REMARK VINA RESULT:    -6.914     13.480     15.572
REMARK INTER + INTRA:         -15.575
REMARK INTER:                 -12.661
REMARK INTRA:                  -2.914
REMARK UNBOUND:                -2.597
REMARK  Name = lig_assembled_77.pdb
REMARK  19 active torsions:
REMARK  status: ('A' for Active; 'I' for Inactive)
REMARK    1  A    between atoms: _2  and  _10
REMARK    2  A    between atoms: _3  and  _17
REMARK    3  A    between atoms: _5  and  _27
REMARK    4  A    between atoms: _7  and  _8
REMARK    5  A    between atoms: _7  and  _27
REMARK    6  A    between atoms: _13  and  _47
REMARK    7  A    between atoms: _14  and  _47
REMARK    8  A    between atoms: _23  and  _43
REMARK    9  A    between atoms: _25  and  _31
REMARK   10  A    between atoms: _26  and  _30
REMARK   11  A    between atoms: _30  and  _31
REMARK   12  A    between atoms: _33  and  _34
REMARK   13  A    between atoms: _35  and  _36
REMARK   14  A    between atoms: _37  and  _39
REMARK   15  A    between atoms: _39  and  _40
REMARK   16  A    between atoms: _39  and  _41
REMARK   17  A    between atoms: _41  and  _42
REMARK   18  A    between atoms: _41  and  _43
REMARK   19  A    between atoms: _44  and  _46
REMARK                            x       y       z     vdW  Elec       q    Type
REMARK                         _______ _______ _______ _____ _____    ______ ____
ROOT
ATOM      1  C   UNL     1      21.082   7.694  23.838  0.00  0.00    +0.401 C 
ATOM      2  O   UNL     1      22.291   7.788  23.616  0.00  0.00    -0.226 OA
ATOM      3  N   UNL     1      20.400   8.534  24.617  0.00  0.00    -0.279 N 
ATOM      4  H   UNL     1      19.408   8.380  24.731  0.00  0.00    +0.152 HD
ENDROOT
BRANCH   3   5
ATOM      5  C   UNL     1      21.008   9.671  25.318  0.00  0.00    +0.141 C 
BRANCH   5   6
ATOM      6  C   UNL     1      20.570   9.741  26.777  0.00  0.00    +0.163 C 
BRANCH   6   7
ATOM      7  O   UNL     1      19.503  10.691  26.925  0.00  0.00    -0.388 OA
ATOM      8  H   UNL     1      19.763  11.371  27.551  0.00  0.00    +0.210 HD
ENDBRANCH   6   7
BRANCH   6   9
ATOM      9  C   UNL     1      20.133   8.343  27.249  0.00  0.00    +0.175 C 
BRANCH   9  10
ATOM     10  C   UNL     1      19.319   8.401  28.550  0.00  0.00    +0.176 C 
ATOM     11  O   UNL     1      19.916   9.415  29.406  0.00  0.00    -0.332 OA
ATOM     12  C   UNL     1      19.204   9.686  30.658  0.00  0.00    +0.277 C 
ATOM     13  C   UNL     1      19.002   8.377  31.460  0.00  0.00    +0.110 C 
ATOM     14  C   UNL     1      18.399   7.259  30.584  0.00  0.00    +0.143 C 
ATOM     15  C   UNL     1      19.216   7.063  29.306  0.00  0.00    +0.133 C 
BRANCH  15  16
ATOM     16  N   UNL     1      18.583   6.057  28.439  0.00  0.00    -0.308 N 
ATOM     17  H   UNL     1      17.710   6.301  27.992  0.00  0.00    +0.149 HD
ATOM     18  C   UNL     1      19.087   4.842  28.203  0.00  0.00    +0.210 C 
ATOM     19  C   UNL     1      20.405   4.492  28.919  0.00  0.00    +0.109 C 
ATOM     20  O   UNL     1      18.542   4.025  27.461  0.00  0.00    -0.276 OA
ENDBRANCH  15  16
BRANCH  12  21
ATOM     21  C   UNL     1      17.833  10.336  30.379  0.00  0.00    +0.414 C 
ATOM     22  O   UNL     1      17.009  10.460  31.284  0.00  0.00    -0.240 OA
ATOM     23  O   UNL     1      17.550  10.735  29.248  0.00  0.00    -0.240 OA
ENDBRANCH  12  21
BRANCH  14  24
ATOM     24  O   UNL     1      18.372   6.034  31.317  0.00  0.00    -0.390 OA
ATOM     25  H   UNL     1      19.035   6.060  32.010  0.00  0.00    +0.210 HD
ENDBRANCH  14  24
BRANCH  12  26
ATOM     26  O   UNL     1      20.019  10.587  31.451  0.00  0.00    -0.343 OA
ATOM     27  C   UNL     1      20.561  11.720  30.727  0.00  0.00    +0.198 C 
ENDBRANCH  12  26
ENDBRANCH   9  10
BRANCH   9  28
ATOM     28  O   UNL     1      21.285   7.494  27.421  0.00  0.00    -0.387 OA
ATOM     29  H   UNL     1      21.658   7.632  28.295  0.00  0.00    +0.210 HD
ENDBRANCH   9  28
ENDBRANCH   6   9
ENDBRANCH   5   6
ENDBRANCH   3   5
BRANCH   1  30
ATOM     30  O   UNL     1      20.346   6.628  23.232  0.00  0.00    -0.444 OA
BRANCH  30  31
ATOM     31  C   UNL     1      19.023   6.593  23.775  0.00  0.00    +0.292 C 
BRANCH  31  33
ATOM     32  N   UNL     1      17.291   5.320  22.553  0.00  0.00    -0.131 NA
ATOM     33  C   UNL     1      18.350   5.330  23.412  0.00  0.00    +0.121 A 
ATOM     34  C   UNL     1      18.618   4.041  23.812  0.00  0.00    +0.143 A 
ATOM     35  N   UNL     1      17.690   3.266  23.155  0.00  0.00    -0.220 N 
ATOM     36  N   UNL     1      16.888   4.065  22.409  0.00  0.00    -0.060 NA
BRANCH  35  37
ATOM     37  C   UNL     1      17.559   1.851  23.143  0.00  0.00    +0.067 A 
ATOM     38  C   UNL     1      16.857   1.184  24.159  0.00  0.00    +0.030 A 
ATOM     39  C   UNL     1      16.841  -0.213  24.198  0.00  0.00    +0.029 A 
ATOM     40  C   UNL     1      17.521  -0.941  23.218  0.00  0.00    +0.094 A 
ATOM     41  C   UNL     1      18.144  -0.288  22.151  0.00  0.00    +0.029 A 
ATOM     42  C   UNL     1      18.173   1.108  22.121  0.00  0.00    +0.030 A 
BRANCH  40  43
ATOM     43  S   UNL     1      17.558  -2.720  23.308  0.00  0.00    +0.025 S 
ATOM     44  O   UNL     1      16.546  -3.193  22.378  0.00  0.00    -0.164 OA
ATOM     45  O   UNL     1      18.941  -3.132  23.170  0.00  0.00    -0.164 OA
BRANCH  43  46
ATOM     46  C   UNL     1      17.045  -3.225  24.937  0.00  0.00    +0.094 A 
ATOM     47  C   UNL     1      15.733  -3.630  25.185  0.00  0.00    +0.029 A 
ATOM     48  C   UNL     1      15.348  -3.961  26.490  0.00  0.00    +0.024 A 
ATOM     49  C   UNL     1      16.272  -3.938  27.543  0.00  0.00    +0.025 A 
ATOM     50  C   UNL     1      17.574  -3.501  27.281  0.00  0.00    +0.024 A 
ATOM     51  C   UNL     1      17.970  -3.166  25.984  0.00  0.00    +0.029 A 
BRANCH  49  52
ATOM     52  N   UNL     1      15.839  -4.103  28.862  0.00  0.00    -0.358 N 
ATOM     53  H   UNL     1      16.551  -4.437  29.504  0.00  0.00    +0.142 HD
ATOM     54  H   UNL     1      15.318  -3.316  29.234  0.00  0.00    +0.142 HD
ENDBRANCH  49  52
ENDBRANCH  43  46
ENDBRANCH  40  43
ENDBRANCH  35  37
ENDBRANCH  31  33
ENDBRANCH  30  31
ENDBRANCH   1  30
TORSDOF 17
