REMARK VINA RESULT:    -6.742      1.491      2.086
REMARK INTER + INTRA:         -14.670
REMARK INTER:                 -12.516
REMARK INTRA:                  -2.153
REMARK UNBOUND:                -2.608
REMARK  Name = lig_assembled_4.pdb
REMARK  19 active torsions:
REMARK  status: ('A' for Active; 'I' for Inactive)
REMARK    1  A    between atoms: _2  and  _9
REMARK    2  A    between atoms: _4  and  _21
REMARK    3  A    between atoms: _6  and  _7
REMARK    4  A    between atoms: _6  and  _21
REMARK    5  A    between atoms: _10  and  _11
REMARK    6  A    between atoms: _11  and  _12
REMARK    7  A    between atoms: _11  and  _13
REMARK    8  A    between atoms: _17  and  _37
REMARK    9  A    between atoms: _19  and  _25
REMARK   10  A    between atoms: _20  and  _24
REMARK   11  A    between atoms: _24  and  _25
REMARK   12  A    between atoms: _27  and  _28
REMARK   13  A    between atoms: _29  and  _30
REMARK   14  A    between atoms: _31  and  _33
REMARK   15  A    between atoms: _33  and  _34
REMARK   16  A    between atoms: _33  and  _35
REMARK   17  A    between atoms: _35  and  _36
REMARK   18  A    between atoms: _35  and  _37
REMARK   19  A    between atoms: _38  and  _40
REMARK                            x       y       z     vdW  Elec       q    Type
REMARK                         _______ _______ _______ _____ _____    ______ ____
ROOT
ATOM      1  C   UNL     1       3.065   3.257  33.120  0.00  0.00    +0.163 C 
ENDROOT
BRANCH   1   2
ATOM      2  O   UNL     1       3.468   4.487  32.494  0.00  0.00    -0.388 OA
ATOM      3  H   UNL     1       2.939   4.634  31.706  0.00  0.00    +0.210 HD
ENDBRANCH   1   2
BRANCH   1   4
ATOM      4  C   UNL     1       1.544   3.177  33.181  0.00  0.00    +0.141 C 
BRANCH   4   7
ATOM      5  C   UNL     1       0.583   3.434  30.919  0.00  0.00    +0.401 C 
ATOM      6  O   UNL     1       0.650   4.665  30.928  0.00  0.00    -0.226 OA
ATOM      7  N   UNL     1       0.973   2.659  31.932  0.00  0.00    -0.279 N 
ATOM      8  H   UNL     1       0.869   1.658  31.834  0.00  0.00    +0.152 HD
BRANCH   5   9
ATOM      9  O   UNL     1       0.055   2.776  29.765  0.00  0.00    -0.444 OA
BRANCH   9  10
ATOM     10  C   UNL     1      -0.352   3.752  28.802  0.00  0.00    +0.292 C 
BRANCH  10  12
ATOM     11  N   UNL     1       1.853   3.729  27.693  0.00  0.00    -0.131 NA
ATOM     12  C   UNL     1       0.497   3.683  27.599  0.00  0.00    +0.121 A 
ATOM     13  C   UNL     1       0.139   3.610  26.271  0.00  0.00    +0.143 A 
ATOM     14  N   UNL     1       1.326   3.747  25.576  0.00  0.00    -0.219 N 
ATOM     15  N   UNL     1       2.346   3.740  26.462  0.00  0.00    -0.060 NA
BRANCH  14  16
ATOM     16  C   UNL     1       1.496   3.900  24.167  0.00  0.00    +0.070 A 
ATOM     17  C   UNL     1       1.708   2.807  23.284  0.00  0.00    -0.019 A 
ATOM     18  C   UNL     1       1.892   3.103  21.914  0.00  0.00    +0.006 A 
ATOM     19  C   UNL     1       1.882   4.412  21.430  0.00  0.00    +0.000 A 
ATOM     20  C   UNL     1       1.666   5.469  22.300  0.00  0.00    +0.002 A 
ATOM     21  C   UNL     1       1.476   5.217  23.658  0.00  0.00    +0.028 A 
BRANCH  17  22
ATOM     22  C   UNL     1       1.761   1.341  23.721  0.00  0.00    +0.015 C 
ATOM     23  C   UNL     1       3.122   0.870  24.257  0.00  0.00    +0.012 C 
ATOM     24  C   UNL     1       1.315   0.437  22.570  0.00  0.00    +0.012 C 
ENDBRANCH  17  22
ENDBRANCH  14  16
ENDBRANCH  10  12
ENDBRANCH   9  10
ENDBRANCH   5   9
ENDBRANCH   4   7
ENDBRANCH   1   4
BRANCH   1  25
ATOM     25  C   UNL     1       3.643   3.149  34.542  0.00  0.00    +0.175 C 
BRANCH  25  26
ATOM     26  C   UNL     1       5.174   3.268  34.554  0.00  0.00    +0.176 C 
ATOM     27  O   UNL     1       5.517   4.657  34.291  0.00  0.00    -0.332 OA
ATOM     28  C   UNL     1       6.944   4.983  34.368  0.00  0.00    +0.277 C 
ATOM     29  C   UNL     1       7.763   4.056  33.437  0.00  0.00    +0.110 C 
ATOM     30  C   UNL     1       7.409   2.570  33.659  0.00  0.00    +0.143 C 
ATOM     31  C   UNL     1       5.900   2.344  33.559  0.00  0.00    +0.133 C 
BRANCH  31  32
ATOM     32  N   UNL     1       5.568   0.943  33.858  0.00  0.00    -0.308 N 
ATOM     33  H   UNL     1       5.699   0.619  34.806  0.00  0.00    +0.149 HD
ATOM     34  C   UNL     1       5.106   0.070  32.958  0.00  0.00    +0.210 C 
ATOM     35  C   UNL     1       4.943   0.587  31.517  0.00  0.00    +0.109 C 
ATOM     36  O   UNL     1       4.822  -1.094  33.241  0.00  0.00    -0.276 OA
ENDBRANCH  31  32
BRANCH  28  37
ATOM     37  C   UNL     1       7.458   4.845  35.816  0.00  0.00    +0.414 C 
ATOM     38  O   UNL     1       8.660   4.700  36.036  0.00  0.00    -0.240 OA
ATOM     39  O   UNL     1       6.672   4.877  36.764  0.00  0.00    -0.240 OA
ENDBRANCH  28  37
BRANCH  30  40
ATOM     40  O   UNL     1       8.071   1.767  32.681  0.00  0.00    -0.390 OA
ATOM     41  H   UNL     1       8.459   0.998  33.107  0.00  0.00    +0.210 HD
ENDBRANCH  30  40
BRANCH  28  42
ATOM     42  O   UNL     1       7.116   6.352  33.918  0.00  0.00    -0.343 OA
ATOM     43  C   UNL     1       6.056   7.262  34.304  0.00  0.00    +0.198 C 
ENDBRANCH  28  42
ENDBRANCH  25  26
BRANCH  25  44
ATOM     44  O   UNL     1       3.236   1.907  35.150  0.00  0.00    -0.387 OA
ATOM     45  H   UNL     1       3.817   1.707  35.888  0.00  0.00    +0.210 HD
ENDBRANCH  25  44
ENDBRANCH   1  25
TORSDOF 15
