REMARK VINA RESULT:    -6.520      1.742      2.611
REMARK INTER + INTRA:         -13.681
REMARK INTER:                 -11.374
REMARK INTRA:                  -2.307
REMARK UNBOUND:                -1.444
REMARK  Name = lig_assembled_16.pdb
REMARK  19 active torsions:
REMARK  status: ('A' for Active; 'I' for Inactive)
REMARK    1  A    between atoms: _2  and  _9
REMARK    2  A    between atoms: _4  and  _22
REMARK    3  A    between atoms: _6  and  _7
REMARK    4  A    between atoms: _6  and  _22
REMARK    5  A    between atoms: _9  and  _10
REMARK    6  A    between atoms: _13  and  _14
REMARK    7  A    between atoms: _14  and  _16
REMARK    8  A    between atoms: _18  and  _38
REMARK    9  A    between atoms: _20  and  _26
REMARK   10  A    between atoms: _21  and  _25
REMARK   11  A    between atoms: _25  and  _26
REMARK   12  A    between atoms: _28  and  _29
REMARK   13  A    between atoms: _30  and  _31
REMARK   14  A    between atoms: _32  and  _34
REMARK   15  A    between atoms: _34  and  _35
REMARK   16  A    between atoms: _34  and  _36
REMARK   17  A    between atoms: _36  and  _37
REMARK   18  A    between atoms: _36  and  _38
REMARK   19  A    between atoms: _39  and  _41
REMARK                            x       y       z     vdW  Elec       q    Type
REMARK                         _______ _______ _______ _____ _____    ______ ____
ROOT
ATOM      1  C   UNL     1       9.712   3.811  37.293  0.00  0.00    +0.163 C 
ENDROOT
BRANCH   1   2
ATOM      2  O   UNL     1      10.127   5.162  37.033  0.00  0.00    -0.388 OA
ATOM      3  H   UNL     1      10.894   5.371  37.572  0.00  0.00    +0.210 HD
ENDBRANCH   1   2
BRANCH   1   4
ATOM      4  C   UNL     1       8.663   3.351  36.266  0.00  0.00    +0.175 C 
BRANCH   4   5
ATOM      5  C   UNL     1       7.868   4.529  35.685  0.00  0.00    +0.176 C 
ATOM      6  O   UNL     1       7.442   5.370  36.792  0.00  0.00    -0.332 OA
ATOM      7  C   UNL     1       6.753   6.609  36.418  0.00  0.00    +0.277 C 
ATOM      8  C   UNL     1       5.545   6.301  35.499  0.00  0.00    +0.110 C 
ATOM      9  C   UNL     1       5.942   5.383  34.325  0.00  0.00    +0.143 C 
ATOM     10  C   UNL     1       6.654   4.126  34.827  0.00  0.00    +0.133 C 
BRANCH  10  11
ATOM     11  N   UNL     1       7.104   3.301  33.695  0.00  0.00    -0.308 N 
ATOM     12  H   UNL     1       7.833   3.672  33.102  0.00  0.00    +0.149 HD
ATOM     13  C   UNL     1       6.612   2.095  33.399  0.00  0.00    +0.210 C 
ATOM     14  C   UNL     1       5.483   1.570  34.306  0.00  0.00    +0.109 C 
ATOM     15  O   UNL     1       7.019   1.420  32.452  0.00  0.00    -0.276 OA
ENDBRANCH  10  11
BRANCH   7  16
ATOM     16  C   UNL     1       7.717   7.574  35.696  0.00  0.00    +0.414 C 
ATOM     17  O   UNL     1       7.311   8.280  34.773  0.00  0.00    -0.240 OA
ATOM     18  O   UNL     1       8.899   7.645  36.035  0.00  0.00    -0.240 OA
ENDBRANCH   7  16
BRANCH   7  19
ATOM     19  O   UNL     1       6.258   7.231  37.631  0.00  0.00    -0.343 OA
ATOM     20  C   UNL     1       6.401   6.431  38.832  0.00  0.00    +0.198 C 
ENDBRANCH   7  19
BRANCH   9  21
ATOM     21  O   UNL     1       4.775   5.003  33.594  0.00  0.00    -0.390 OA
ATOM     22  H   UNL     1       4.365   5.784  33.218  0.00  0.00    +0.210 HD
ENDBRANCH   9  21
ENDBRANCH   4   5
BRANCH   4  23
ATOM     23  O   UNL     1       7.767   2.394  36.866  0.00  0.00    -0.387 OA
ATOM     24  H   UNL     1       6.892   2.780  36.944  0.00  0.00    +0.210 HD
ENDBRANCH   4  23
ENDBRANCH   1   4
BRANCH   1  25
ATOM     25  C   UNL     1      10.917   2.877  37.244  0.00  0.00    +0.141 C 
BRANCH  25  28
ATOM     26  C   UNL     1      12.143   2.919  35.099  0.00  0.00    +0.401 C 
ATOM     27  O   UNL     1      11.466   2.025  34.587  0.00  0.00    -0.226 OA
ATOM     28  N   UNL     1      11.960   3.375  36.339  0.00  0.00    -0.279 N 
ATOM     29  H   UNL     1      12.573   4.105  36.674  0.00  0.00    +0.152 HD
BRANCH  26  30
ATOM     30  O   UNL     1      13.197   3.514  34.338  0.00  0.00    -0.444 OA
BRANCH  30  31
ATOM     31  C   UNL     1      14.423   3.428  35.071  0.00  0.00    +0.292 C 
BRANCH  31  33
ATOM     32  N   UNL     1      14.531   5.902  35.110  0.00  0.00    -0.131 NA
ATOM     33  C   UNL     1      15.167   4.695  34.972  0.00  0.00    +0.120 A 
ATOM     34  C   UNL     1      16.512   4.915  34.772  0.00  0.00    +0.137 A 
ATOM     35  N   UNL     1      16.641   6.267  34.894  0.00  0.00    -0.247 N 
ATOM     36  N   UNL     1      15.444   6.863  35.044  0.00  0.00    -0.065 NA
BRANCH  35  37
ATOM     37  C   UNL     1      17.861   7.048  34.904  0.00  0.00    +0.180 C 
BRANCH  37  38
ATOM     38  C   UNL     1      17.943   7.954  33.696  0.00  0.00    -0.026 A 
ATOM     39  C   UNL     1      18.144   9.333  33.848  0.00  0.00    +0.006 A 
ATOM     40  C   UNL     1      18.258  10.160  32.726  0.00  0.00    +0.015 A 
ATOM     41  C   UNL     1      18.159   9.624  31.440  0.00  0.00    +0.059 A 
ATOM     42  C   UNL     1      17.936   8.248  31.276  0.00  0.00    +0.015 A 
ATOM     43  C   UNL     1      17.816   7.425  32.400  0.00  0.00    +0.006 A 
BRANCH  41  44
ATOM     44  C   UNL     1      18.360  10.536  30.283  0.00  0.00    +0.337 C 
ATOM     45  O   UNL     1      19.436  11.056  30.037  0.00  0.00    -0.245 OA
BRANCH  44  46
ATOM     46  O   UNL     1      17.248  10.761  29.558  0.00  0.00    -0.477 OA
ATOM     47  H   UNL     1      17.352  11.393  28.824  0.00  0.00    +0.295 HD
ENDBRANCH  44  46
ENDBRANCH  41  44
ENDBRANCH  37  38
ENDBRANCH  35  37
ENDBRANCH  31  33
ENDBRANCH  30  31
ENDBRANCH  26  30
ENDBRANCH  25  28
ENDBRANCH   1  25
TORSDOF 17
