REMARK VINA RESULT:    -7.067      2.376      4.160
REMARK INTER + INTRA:         -15.763
REMARK INTER:                 -13.788
REMARK INTRA:                  -1.975
REMARK UNBOUND:                -2.499
REMARK  Name = lig_assembled_64.pdb
REMARK  19 active torsions:
REMARK  status: ('A' for Active; 'I' for Inactive)
REMARK    1  A    between atoms: _2  and  _10
REMARK    2  A    between atoms: _5  and  _27
REMARK    3  A    between atoms: _7  and  _8
REMARK    4  A    between atoms: _7  and  _27
REMARK    5  A    between atoms: _12  and  _13
REMARK    6  A    between atoms: _13  and  _21
REMARK    7  A    between atoms: _14  and  _15
REMARK    8  A    between atoms: _23  and  _43
REMARK    9  A    between atoms: _25  and  _31
REMARK   10  A    between atoms: _26  and  _30
REMARK   11  A    between atoms: _30  and  _31
REMARK   12  A    between atoms: _33  and  _34
REMARK   13  A    between atoms: _35  and  _36
REMARK   14  A    between atoms: _37  and  _39
REMARK   15  A    between atoms: _39  and  _40
REMARK   16  A    between atoms: _39  and  _41
REMARK   17  A    between atoms: _41  and  _42
REMARK   18  A    between atoms: _41  and  _43
REMARK   19  A    between atoms: _44  and  _46
REMARK                            x       y       z     vdW  Elec       q    Type
REMARK                         _______ _______ _______ _____ _____    ______ ____
ROOT
ATOM      1  C   UNL     1       3.370   2.866  32.713  0.00  0.00    +0.401 C 
ATOM      2  O   UNL     1       3.294   3.993  33.208  0.00  0.00    -0.226 OA
ATOM      3  N   UNL     1       4.488   2.353  32.197  0.00  0.00    -0.279 N 
ATOM      4  H   UNL     1       4.453   1.415  31.822  0.00  0.00    +0.152 HD
ENDROOT
BRANCH   3   5
ATOM      5  C   UNL     1       5.766   3.072  32.144  0.00  0.00    +0.141 C 
BRANCH   5   6
ATOM      6  C   UNL     1       6.784   2.497  33.123  0.00  0.00    +0.163 C 
BRANCH   6   7
ATOM      7  O   UNL     1       7.439   1.359  32.539  0.00  0.00    -0.388 OA
ATOM      8  H   UNL     1       7.865   0.845  33.229  0.00  0.00    +0.210 HD
ENDBRANCH   6   7
BRANCH   6   9
ATOM      9  C   UNL     1       7.804   3.584  33.502  0.00  0.00    +0.175 C 
BRANCH   9  10
ATOM     10  C   UNL     1       7.522   4.183  34.888  0.00  0.00    +0.176 C 
ATOM     11  O   UNL     1       7.391   5.623  34.734  0.00  0.00    -0.332 OA
ATOM     12  C   UNL     1       7.014   6.359  35.944  0.00  0.00    +0.277 C 
ATOM     13  C   UNL     1       7.996   6.043  37.098  0.00  0.00    +0.110 C 
ATOM     14  C   UNL     1       8.192   4.523  37.280  0.00  0.00    +0.143 C 
ATOM     15  C   UNL     1       8.580   3.858  35.958  0.00  0.00    +0.133 C 
BRANCH  15  16
ATOM     16  N   UNL     1       8.678   2.399  36.125  0.00  0.00    -0.308 N 
ATOM     17  H   UNL     1       7.886   1.916  36.525  0.00  0.00    +0.149 HD
ATOM     18  C   UNL     1       9.746   1.673  35.783  0.00  0.00    +0.210 C 
ATOM     19  C   UNL     1      10.946   2.443  35.201  0.00  0.00    +0.109 C 
ATOM     20  O   UNL     1       9.794   0.450  35.920  0.00  0.00    -0.276 OA
ENDBRANCH  15  16
BRANCH  12  21
ATOM     21  C   UNL     1       5.577   5.998  36.377  0.00  0.00    +0.414 C 
ATOM     22  O   UNL     1       4.680   5.913  35.539  0.00  0.00    -0.240 OA
ATOM     23  O   UNL     1       5.316   5.793  37.563  0.00  0.00    -0.240 OA
ENDBRANCH  12  21
BRANCH  12  24
ATOM     24  O   UNL     1       7.094   7.777  35.651  0.00  0.00    -0.343 OA
ATOM     25  C   UNL     1       7.548   8.101  34.312  0.00  0.00    +0.198 C 
ENDBRANCH  12  24
BRANCH  14  26
ATOM     26  O   UNL     1       9.215   4.281  38.246  0.00  0.00    -0.390 OA
ATOM     27  H   UNL     1       9.183   3.362  38.524  0.00  0.00    +0.210 HD
ENDBRANCH  14  26
ENDBRANCH   9  10
BRANCH   9  28
ATOM     28  O   UNL     1       7.816   4.624  32.504  0.00  0.00    -0.387 OA
ATOM     29  H   UNL     1       7.949   4.234  31.637  0.00  0.00    +0.210 HD
ENDBRANCH   9  28
ENDBRANCH   6   9
ENDBRANCH   5   6
ENDBRANCH   3   5
BRANCH   1  30
ATOM     30  O   UNL     1       2.203   2.041  32.681  0.00  0.00    -0.444 OA
BRANCH  30  31
ATOM     31  C   UNL     1       1.112   2.777  32.120  0.00  0.00    +0.292 C 
BRANCH  31  33
ATOM     32  N   UNL     1       1.059   4.039  29.984  0.00  0.00    -0.131 NA
ATOM     33  C   UNL     1       1.248   2.864  30.654  0.00  0.00    +0.121 A 
ATOM     34  C   UNL     1       1.562   1.878  29.748  0.00  0.00    +0.143 A 
ATOM     35  N   UNL     1       1.545   2.503  28.523  0.00  0.00    -0.220 N 
ATOM     36  N   UNL     1       1.243   3.812  28.689  0.00  0.00    -0.060 NA
BRANCH  35  37
ATOM     37  C   UNL     1       1.796   1.943  27.246  0.00  0.00    +0.071 A 
ATOM     38  C   UNL     1       2.166   0.608  27.125  0.00  0.00    +0.063 A 
ATOM     39  CA  UNL     1       2.396   0.123  25.853  0.00  0.00    +0.150 A 
ATOM     40  N   UNL     1       2.295   0.858  24.709  0.00  0.00    -0.240 NA
ATOM     41  C   UNL     1       1.946   2.167  24.836  0.00  0.00    +0.074 A 
ATOM     42  C   UNL     1       1.680   2.729  26.089  0.00  0.00    +0.056 A 
BRANCH  41  43
ATOM     43  C   UNL     1       1.898   2.943  23.574  0.00  0.00    +0.000 A 
ATOM     44  C   UNL     1       1.898   2.319  22.312  0.00  0.00    +0.010 A 
ATOM     45  C   UNL     1       1.814   3.062  21.127  0.00  0.00    +0.001 A 
ATOM     46  C   UNL     1       1.726   4.449  21.176  0.00  0.00    +0.000 A 
ATOM     47  C   UNL     1       1.732   5.094  22.408  0.00  0.00    +0.001 A 
ATOM     48  C   UNL     1       1.817   4.350  23.590  0.00  0.00    +0.010 A 
ENDBRANCH  41  43
BRANCH  39  49
ATOM     49  C   UNL     1       2.796  -1.303  25.676  0.00  0.00    +0.355 C 
ATOM     50  OXT UNL     1       3.131  -1.800  24.616  0.00  0.00    -0.243 OA
BRANCH  49  51
ATOM     51  O   UNL     1       2.731  -1.968  26.853  0.00  0.00    -0.476 OA
ATOM     52  H   UNL     1       3.586  -2.434  27.004  0.00  0.00    +0.295 HD
ENDBRANCH  49  51
ENDBRANCH  39  49
ENDBRANCH  35  37
ENDBRANCH  31  33
ENDBRANCH  30  31
ENDBRANCH   1  30
TORSDOF 17
