REMARK VINA RESULT:    -6.626     10.736     15.973
REMARK INTER + INTRA:         -13.412
REMARK INTER:                 -10.426
REMARK INTRA:                  -2.986
REMARK UNBOUND:                -1.557
REMARK  Name = lig_assembled_28.pdb
REMARK  17 active torsions:
REMARK  status: ('A' for Active; 'I' for Inactive)
REMARK    1  A    between atoms: _2  and  _9
REMARK    2  A    between atoms: _4  and  _22
REMARK    3  A    between atoms: _6  and  _7
REMARK    4  A    between atoms: _6  and  _22
REMARK    5  A    between atoms: _9  and  _10
REMARK    6  A    between atoms: _18  and  _38
REMARK    7  A    between atoms: _20  and  _26
REMARK    8  A    between atoms: _21  and  _25
REMARK    9  A    between atoms: _25  and  _26
REMARK   10  A    between atoms: _28  and  _29
REMARK   11  A    between atoms: _30  and  _31
REMARK   12  A    between atoms: _32  and  _34
REMARK   13  A    between atoms: _34  and  _35
REMARK   14  A    between atoms: _34  and  _36
REMARK   15  A    between atoms: _36  and  _37
REMARK   16  A    between atoms: _36  and  _38
REMARK   17  A    between atoms: _39  and  _41
REMARK                            x       y       z     vdW  Elec       q    Type
REMARK                         _______ _______ _______ _____ _____    ______ ____
ROOT
ATOM      1  C   UNL     1      -5.869   7.595  18.220  0.00  0.00    +0.163 C 
ENDROOT
BRANCH   1   2
ATOM      2  O   UNL     1      -6.321   6.547  17.347  0.00  0.00    -0.388 OA
ATOM      3  H   UNL     1      -7.280   6.566  17.293  0.00  0.00    +0.210 HD
ENDBRANCH   1   2
BRANCH   1   4
ATOM      4  C   UNL     1      -6.919   7.871  19.292  0.00  0.00    +0.141 C 
BRANCH   4   7
ATOM      5  C   UNL     1      -5.859   8.468  21.442  0.00  0.00    +0.401 C 
ATOM      6  O   UNL     1      -5.688   9.650  21.138  0.00  0.00    -0.226 OA
ATOM      7  N   UNL     1      -6.420   7.564  20.638  0.00  0.00    -0.279 N 
ATOM      8  H   UNL     1      -6.508   6.616  20.974  0.00  0.00    +0.152 HD
BRANCH   5   9
ATOM      9  O   UNL     1      -5.432   8.014  22.729  0.00  0.00    -0.444 OA
BRANCH   9  10
ATOM     10  C   UNL     1      -5.524   6.588  22.788  0.00  0.00    +0.292 C 
BRANCH  10  12
ATOM     11  N   UNL     1      -3.050   6.735  22.734  0.00  0.00    -0.131 NA
ATOM     12  C   UNL     1      -4.188   5.980  22.637  0.00  0.00    +0.120 A 
ATOM     13  C   UNL     1      -3.840   4.666  22.427  0.00  0.00    +0.137 A 
ATOM     14  N   UNL     1      -2.476   4.666  22.504  0.00  0.00    -0.247 N 
ATOM     15  N   UNL     1      -2.007   5.921  22.638  0.00  0.00    -0.065 NA
BRANCH  14  16
ATOM     16  C   UNL     1      -1.534   3.556  22.553  0.00  0.00    +0.180 C 
BRANCH  16  17
ATOM     17  C   UNL     1      -0.539   3.553  21.416  0.00  0.00    -0.022 A 
ATOM     18  C   UNL     1      -0.986   3.449  20.086  0.00  0.00    +0.055 A 
ATOM     19  C   UNL     1      -0.052   3.567  19.080  0.00  0.00    +0.167 A 
ATOM     20  O   UNL     1      -0.320   3.547  17.745  0.00  0.00    -0.453 OA
ATOM     21  C   UNL     1       0.987   3.836  17.206  0.00  0.00    +0.466 C 
ATOM     22  O   UNL     1       2.025   3.874  18.209  0.00  0.00    -0.453 OA
ATOM     23  C   UNL     1       1.282   3.751  19.342  0.00  0.00    +0.166 A 
ATOM     24  C   UNL     1       1.763   3.822  20.633  0.00  0.00    +0.050 A 
ATOM     25  C   UNL     1       0.839   3.729  21.678  0.00  0.00    +0.009 A 
ENDBRANCH  16  17
ENDBRANCH  14  16
ENDBRANCH  10  12
ENDBRANCH   9  10
ENDBRANCH   5   9
ENDBRANCH   4   7
ENDBRANCH   1   4
BRANCH   1  26
ATOM     26  C   UNL     1      -5.588   8.885  17.431  0.00  0.00    +0.175 C 
BRANCH  26  27
ATOM     27  C   UNL     1      -4.704   8.630  16.202  0.00  0.00    +0.176 C 
ATOM     28  O   UNL     1      -3.671   7.681  16.583  0.00  0.00    -0.332 OA
ATOM     29  C   UNL     1      -2.789   7.235  15.500  0.00  0.00    +0.277 C 
ATOM     30  C   UNL     1      -2.146   8.451  14.789  0.00  0.00    +0.110 C 
ATOM     31  C   UNL     1      -3.204   9.503  14.393  0.00  0.00    +0.143 C 
ATOM     32  C   UNL     1      -4.067   9.893  15.593  0.00  0.00    +0.133 C 
BRANCH  32  33
ATOM     33  N   UNL     1      -5.125  10.830  15.184  0.00  0.00    -0.308 N 
ATOM     34  H   UNL     1      -5.876  10.472  14.611  0.00  0.00    +0.149 HD
ATOM     35  C   UNL     1      -5.158  12.122  15.520  0.00  0.00    +0.210 C 
ATOM     36  C   UNL     1      -3.985  12.643  16.372  0.00  0.00    +0.109 C 
ATOM     37  O   UNL     1      -6.065  12.880  15.176  0.00  0.00    -0.276 OA
ENDBRANCH  32  33
BRANCH  29  38
ATOM     38  C   UNL     1      -3.570   6.390  14.472  0.00  0.00    +0.414 C 
ATOM     39  O   UNL     1      -3.113   6.208  13.344  0.00  0.00    -0.240 OA
ATOM     40  O   UNL     1      -4.656   5.892  14.770  0.00  0.00    -0.240 OA
ENDBRANCH  29  38
BRANCH  29  41
ATOM     41  O   UNL     1      -1.730   6.435  16.085  0.00  0.00    -0.343 OA
ATOM     42  C   UNL     1      -0.419   7.055  16.078  0.00  0.00    +0.198 C 
ENDBRANCH  29  41
BRANCH  31  43
ATOM     43  O   UNL     1      -2.556  10.668  13.881  0.00  0.00    -0.390 OA
ATOM     44  H   UNL     1      -1.733  10.416  13.455  0.00  0.00    +0.210 HD
ENDBRANCH  31  43
ENDBRANCH  26  27
BRANCH  26  45
ATOM     45  O   UNL     1      -4.974   9.868  18.289  0.00  0.00    -0.387 OA
ATOM     46  H   UNL     1      -4.212  10.248  17.846  0.00  0.00    +0.210 HD
ENDBRANCH  26  45
ENDBRANCH   1  26
TORSDOF 15
