REMARK VINA RESULT:    -5.630      6.993     10.650
REMARK INTER + INTRA:         -13.386
REMARK INTER:                  -8.886
REMARK INTRA:                  -4.501
REMARK UNBOUND:                -3.313
REMARK  Name = lig_assembled_71.pdb
REMARK  17 active torsions:
REMARK  status: ('A' for Active; 'I' for Inactive)
REMARK    1  A    between atoms: _2  and  _12
REMARK    2  A    between atoms: _7  and  _22
REMARK    3  A    between atoms: _9  and  _10
REMARK    4  A    between atoms: _9  and  _22
REMARK    5  A    between atoms: _12  and  _13
REMARK    6  A    between atoms: _18  and  _38
REMARK    7  A    between atoms: _20  and  _26
REMARK    8  A    between atoms: _21  and  _25
REMARK    9  A    between atoms: _25  and  _26
REMARK   10  A    between atoms: _28  and  _29
REMARK   11  A    between atoms: _30  and  _31
REMARK   12  A    between atoms: _32  and  _34
REMARK   13  A    between atoms: _34  and  _35
REMARK   14  A    between atoms: _34  and  _36
REMARK   15  A    between atoms: _36  and  _37
REMARK   16  A    between atoms: _36  and  _38
REMARK   17  A    between atoms: _39  and  _41
REMARK                            x       y       z     vdW  Elec       q    Type
REMARK                         _______ _______ _______ _____ _____    ______ ____
ROOT
ATOM      1  C   UNL     1       8.215   8.806  42.572  0.00  0.00    +0.163 C 
ENDROOT
BRANCH   1   2
ATOM      2  O   UNL     1       7.939  10.155  42.163  0.00  0.00    -0.388 OA
ATOM      3  H   UNL     1       8.555  10.753  42.594  0.00  0.00    +0.210 HD
ENDBRANCH   1   2
BRANCH   1   4
ATOM      4  C   UNL     1       9.505   8.317  41.922  0.00  0.00    +0.141 C 
BRANCH   4   7
ATOM      5  C   UNL     1       9.935   6.209  40.706  0.00  0.00    +0.401 C 
ATOM      6  O   UNL     1      10.869   5.869  41.436  0.00  0.00    -0.226 OA
ATOM      7  N   UNL     1       9.246   7.341  40.856  0.00  0.00    -0.279 N 
ATOM      8  H   UNL     1       8.503   7.537  40.201  0.00  0.00    +0.152 HD
BRANCH   5   9
ATOM      9  O   UNL     1       9.554   5.357  39.623  0.00  0.00    -0.444 OA
BRANCH   9  10
ATOM     10  C   UNL     1      10.052   5.894  38.394  0.00  0.00    +0.292 C 
BRANCH  10  12
ATOM     11  N   UNL     1       8.216   7.535  38.077  0.00  0.00    -0.131 NA
ATOM     12  C   UNL     1       8.950   6.478  37.606  0.00  0.00    +0.120 A 
ATOM     13  C   UNL     1       8.480   6.126  36.363  0.00  0.00    +0.137 A 
ATOM     14  N   UNL     1       7.450   6.993  36.137  0.00  0.00    -0.242 N 
ATOM     15  N   UNL     1       7.304   7.848  37.165  0.00  0.00    -0.065 NA
BRANCH  14  16
ATOM     16  C   UNL     1       6.644   7.149  34.943  0.00  0.00    +0.241 C 
BRANCH  16  17
ATOM     17  C   UNL     1       5.397   6.305  34.997  0.00  0.00    +0.241 C 
ATOM     18  O   UNL     1       4.961   5.785  33.971  0.00  0.00    -0.273 OA
ATOM     19  N   UNL     1       4.794   6.253  36.236  0.00  0.00    -0.253 N 
ATOM     20  H   UNL     1       5.071   6.856  36.994  0.00  0.00    +0.158 HD
ATOM     21  C   UNL     1       3.649   5.513  36.509  0.00  0.00    +0.221 A 
ATOM     22  N   UNL     1       3.040   5.805  37.669  0.00  0.00    -0.223 NA
ATOM     23  C   UNL     1       1.886   5.149  37.916  0.00  0.00    +0.116 A 
ATOM     24  C   UNL     1       1.344   4.209  37.073  0.00  0.00    +0.039 A 
ATOM     25  C   UNL     1       2.070   3.954  35.940  0.00  0.00    +0.116 A 
ATOM     26  N   UNL     1       3.214   4.592  35.645  0.00  0.00    -0.223 NA
ENDBRANCH  16  17
ENDBRANCH  14  16
ENDBRANCH  10  12
ENDBRANCH   9  10
ENDBRANCH   5   9
ENDBRANCH   4   7
ENDBRANCH   1   4
BRANCH   1  27
ATOM     27  C   UNL     1       7.058   7.867  42.187  0.00  0.00    +0.175 C 
BRANCH  27  28
ATOM     28  C   UNL     1       5.876   8.630  41.571  0.00  0.00    +0.176 C 
ATOM     29  O   UNL     1       5.256   9.420  42.624  0.00  0.00    -0.332 OA
ATOM     30  C   UNL     1       4.166  10.301  42.196  0.00  0.00    +0.277 C 
ATOM     31  C   UNL     1       3.082   9.494  41.440  0.00  0.00    +0.110 C 
ATOM     32  C   UNL     1       3.697   8.614  40.331  0.00  0.00    +0.143 C 
ATOM     33  C   UNL     1       4.822   7.740  40.886  0.00  0.00    +0.133 C 
BRANCH  33  34
ATOM     34  N   UNL     1       5.457   6.971  39.804  0.00  0.00    -0.308 N 
ATOM     35  H   UNL     1       5.825   7.482  39.014  0.00  0.00    +0.149 HD
ATOM     36  C   UNL     1       5.580   5.640  39.798  0.00  0.00    +0.210 C 
ATOM     37  C   UNL     1       4.986   4.888  41.004  0.00  0.00    +0.109 C 
ATOM     38  O   UNL     1       6.130   5.024  38.885  0.00  0.00    -0.276 OA
ENDBRANCH  33  34
BRANCH  30  39
ATOM     39  C   UNL     1       4.699  11.428  41.286  0.00  0.00    +0.414 C 
ATOM     40  O   UNL     1       4.021  11.836  40.343  0.00  0.00    -0.240 OA
ATOM     41  O   UNL     1       5.805  11.927  41.493  0.00  0.00    -0.240 OA
ENDBRANCH  30  39
BRANCH  30  42
ATOM     42  O   UNL     1       3.563  10.877  43.383  0.00  0.00    -0.343 OA
ATOM     43  C   UNL     1       2.113  10.846  43.410  0.00  0.00    +0.198 C 
ENDBRANCH  30  42
BRANCH  32  44
ATOM     44  O   UNL     1       2.687   7.778  39.765  0.00  0.00    -0.390 OA
ATOM     45  H   UNL     1       2.398   7.137  40.418  0.00  0.00    +0.210 HD
ENDBRANCH  32  44
ENDBRANCH  27  28
BRANCH  27  46
ATOM     46  O   UNL     1       6.621   7.120  43.340  0.00  0.00    -0.387 OA
ATOM     47  H   UNL     1       6.930   7.553  44.139  0.00  0.00    +0.210 HD
ENDBRANCH  27  46
ENDBRANCH   1  27
TORSDOF 15
