REMARK VINA RESULT:    -5.835     14.001     17.594
REMARK INTER + INTRA:         -13.691
REMARK INTER:                 -10.809
REMARK INTRA:                  -2.882
REMARK UNBOUND:                -2.569
REMARK  Name = lig_assembled_18.pdb
REMARK  19 active torsions:
REMARK  status: ('A' for Active; 'I' for Inactive)
REMARK    1  A    between atoms: _2  and  _10
REMARK    2  A    between atoms: _3  and  _12
REMARK    3  A    between atoms: _5  and  _21
REMARK    4  A    between atoms: _7  and  _8
REMARK    5  A    between atoms: _7  and  _21
REMARK    6  A    between atoms: _10  and  _11
REMARK    7  A    between atoms: _12  and  _13
REMARK    8  A    between atoms: _17  and  _37
REMARK    9  A    between atoms: _19  and  _25
REMARK   10  A    between atoms: _20  and  _24
REMARK   11  A    between atoms: _24  and  _25
REMARK   12  A    between atoms: _27  and  _28
REMARK   13  A    between atoms: _29  and  _30
REMARK   14  A    between atoms: _31  and  _33
REMARK   15  A    between atoms: _33  and  _34
REMARK   16  A    between atoms: _33  and  _35
REMARK   17  A    between atoms: _35  and  _36
REMARK   18  A    between atoms: _35  and  _37
REMARK   19  A    between atoms: _38  and  _40
REMARK                            x       y       z     vdW  Elec       q    Type
REMARK                         _______ _______ _______ _____ _____    ______ ____
ROOT
ATOM      1  C   UNL     1      17.937   1.567  23.319  0.00  0.00    +0.163 C 
ENDROOT
BRANCH   1   2
ATOM      2  O   UNL     1      17.289   1.209  22.087  0.00  0.00    -0.388 OA
ATOM      3  H   UNL     1      16.605   1.852  21.886  0.00  0.00    +0.210 HD
ENDBRANCH   1   2
BRANCH   1   4
ATOM      4  C   UNL     1      18.984   0.512  23.717  0.00  0.00    +0.175 C 
BRANCH   4   5
ATOM      5  C   UNL     1      18.339  -0.732  24.345  0.00  0.00    +0.176 C 
ATOM      6  O   UNL     1      17.714  -1.499  23.279  0.00  0.00    -0.332 OA
ATOM      7  C   UNL     1      17.134  -2.785  23.679  0.00  0.00    +0.277 C 
ATOM      8  C   UNL     1      16.130  -2.588  24.841  0.00  0.00    +0.110 C 
ATOM      9  C   UNL     1      16.740  -1.751  25.985  0.00  0.00    +0.143 C 
ATOM     10  C   UNL     1      17.316  -0.436  25.457  0.00  0.00    +0.133 C 
BRANCH  10  11
ATOM     11  N   UNL     1      17.970   0.312  26.541  0.00  0.00    -0.308 N 
ATOM     12  H   UNL     1      18.832  -0.059  26.917  0.00  0.00    +0.149 HD
ATOM     13  C   UNL     1      17.501   1.449  27.062  0.00  0.00    +0.210 C 
ATOM     14  C   UNL     1      16.172   1.974  26.485  0.00  0.00    +0.109 C 
ATOM     15  O   UNL     1      18.078   2.062  27.960  0.00  0.00    -0.276 OA
ENDBRANCH  10  11
BRANCH   7  16
ATOM     16  C   UNL     1      18.238  -3.771  24.114  0.00  0.00    +0.414 C 
ATOM     17  O   UNL     1      19.300  -3.825  23.494  0.00  0.00    -0.240 OA
ATOM     18  O   UNL     1      18.068  -4.511  25.083  0.00  0.00    -0.240 OA
ENDBRANCH   7  16
BRANCH   7  19
ATOM     19  O   UNL     1      16.416  -3.326  22.541  0.00  0.00    -0.343 OA
ATOM     20  C   UNL     1      15.363  -4.267  22.872  0.00  0.00    +0.198 C 
ENDBRANCH   7  19
BRANCH   9  21
ATOM     21  O   UNL     1      15.737  -1.466  26.961  0.00  0.00    -0.390 OA
ATOM     22  H   UNL     1      16.122  -0.958  27.678  0.00  0.00    +0.210 HD
ENDBRANCH   9  21
ENDBRANCH   4   5
BRANCH   4  23
ATOM     23  O   UNL     1      19.946   1.085  24.624  0.00  0.00    -0.387 OA
ATOM     24  H   UNL     1      20.074   0.494  25.370  0.00  0.00    +0.210 HD
ENDBRANCH   4  23
ENDBRANCH   1   4
BRANCH   1  25
ATOM     25  C   UNL     1      18.613   2.927  23.177  0.00  0.00    +0.141 C 
BRANCH  25  28
ATOM     26  C   UNL     1      19.017   4.296  25.194  0.00  0.00    +0.401 C 
ATOM     27  O   UNL     1      20.199   3.961  25.299  0.00  0.00    -0.226 OA
ATOM     28  N   UNL     1      18.200   3.856  24.236  0.00  0.00    -0.279 N 
ATOM     29  H   UNL     1      17.244   4.181  24.238  0.00  0.00    +0.152 HD
BRANCH  26  30
ATOM     30  O   UNL     1      18.466   5.207  26.148  0.00  0.00    -0.444 OA
BRANCH  30  31
ATOM     31  C   UNL     1      19.321   5.275  27.293  0.00  0.00    +0.292 C 
BRANCH  31  33
ATOM     32  N   UNL     1      19.886   6.950  29.030  0.00  0.00    -0.131 NA
ATOM     33  C   UNL     1      19.431   6.666  27.769  0.00  0.00    +0.120 A 
ATOM     34  C   UNL     1      19.135   7.844  27.124  0.00  0.00    +0.137 A 
ATOM     35  N   UNL     1      19.456   8.811  28.031  0.00  0.00    -0.242 N 
ATOM     36  N   UNL     1      19.887   8.268  29.185  0.00  0.00    -0.065 NA
BRANCH  35  37
ATOM     37  C   UNL     1      19.275  10.239  27.929  0.00  0.00    +0.240 C 
BRANCH  37  38
ATOM     38  C   UNL     1      19.311  10.918  29.279  0.00  0.00    +0.235 C 
ATOM     39  O   UNL     1      20.130  11.795  29.548  0.00  0.00    -0.274 OA
ATOM     40  N   UNL     1      18.325  10.524  30.161  0.00  0.00    -0.309 N 
ATOM     41  H   UNL     1      17.779   9.695  29.975  0.00  0.00    +0.149 HD
BRANCH  40  42
ATOM     42  C   UNL     1      18.223  11.099  31.487  0.00  0.00    +0.146 C 
BRANCH  42  43
ATOM     43  C   UNL     1      17.161  10.388  32.262  0.00  0.00    +0.007 A 
ATOM     44  S   UNL     1      17.142   8.677  32.354  0.00  0.00    -0.100 S 
ATOM     45  C   UNL     1      15.704   8.679  33.279  0.00  0.00    +0.045 A 
ATOM     46  C   UNL     1      15.251   9.955  33.531  0.00  0.00    +0.008 A 
ATOM     47  C   UNL     1      16.098  10.942  32.950  0.00  0.00    +0.013 A 
ENDBRANCH  42  43
ENDBRANCH  40  42
ENDBRANCH  37  38
ENDBRANCH  35  37
ENDBRANCH  31  33
ENDBRANCH  30  31
ENDBRANCH  26  30
ENDBRANCH  25  28
ENDBRANCH   1  25
TORSDOF 17
