REMARK VINA RESULT:    -6.337      1.573      3.366
REMARK INTER + INTRA:         -13.272
REMARK INTER:                 -11.289
REMARK INTRA:                  -1.983
REMARK UNBOUND:                -1.933
REMARK  Name = lig_assembled_39.pdb
REMARK  17 active torsions:
REMARK  status: ('A' for Active; 'I' for Inactive)
REMARK    1  A    between atoms: _2  and  _9
REMARK    2  A    between atoms: _4  and  _19
REMARK    3  A    between atoms: _6  and  _7
REMARK    4  A    between atoms: _6  and  _19
REMARK    5  A    between atoms: _9  and  _10
REMARK    6  A    between atoms: _15  and  _35
REMARK    7  A    between atoms: _17  and  _23
REMARK    8  A    between atoms: _18  and  _22
REMARK    9  A    between atoms: _22  and  _23
REMARK   10  A    between atoms: _25  and  _26
REMARK   11  A    between atoms: _27  and  _28
REMARK   12  A    between atoms: _29  and  _31
REMARK   13  A    between atoms: _31  and  _32
REMARK   14  A    between atoms: _31  and  _33
REMARK   15  A    between atoms: _33  and  _34
REMARK   16  A    between atoms: _33  and  _35
REMARK   17  A    between atoms: _36  and  _38
REMARK                            x       y       z     vdW  Elec       q    Type
REMARK                         _______ _______ _______ _____ _____    ______ ____
ROOT
ATOM      1  C   UNL     1      18.939   5.656  29.561  0.00  0.00    +0.163 C 
ENDROOT
BRANCH   1   2
ATOM      2  O   UNL     1      18.571   4.654  30.523  0.00  0.00    -0.388 OA
ATOM      3  H   UNL     1      19.221   4.634  31.229  0.00  0.00    +0.210 HD
ENDBRANCH   1   2
BRANCH   1   4
ATOM      4  C   UNL     1      19.807   5.038  28.470  0.00  0.00    +0.141 C 
BRANCH   4   7
ATOM      5  C   UNL     1      20.299   6.499  26.539  0.00  0.00    +0.401 C 
ATOM      6  O   UNL     1      21.342   6.945  27.022  0.00  0.00    -0.226 OA
ATOM      7  N   UNL     1      19.516   5.609  27.149  0.00  0.00    -0.279 N 
ATOM      8  H   UNL     1      18.675   5.310  26.676  0.00  0.00    +0.152 HD
BRANCH   5   9
ATOM      9  O   UNL     1      19.881   6.953  25.249  0.00  0.00    -0.444 OA
BRANCH   9  10
ATOM     10  C   UNL     1      20.181   5.954  24.270  0.00  0.00    +0.292 C 
BRANCH  10  12
ATOM     11  N   UNL     1      18.031   6.292  23.091  0.00  0.00    -0.131 NA
ATOM     12  C   UNL     1      18.940   5.440  23.663  0.00  0.00    +0.120 A 
ATOM     13  C   UNL     1      18.489   4.145  23.532  0.00  0.00    +0.137 A 
ATOM     14  N   UNL     1      17.345   4.272  22.801  0.00  0.00    -0.247 N 
ATOM     15  N   UNL     1      17.040   5.566  22.592  0.00  0.00    -0.065 NA
BRANCH  14  16
ATOM     16  C   UNL     1      16.536   3.213  22.214  0.00  0.00    +0.181 C 
BRANCH  16  17
ATOM     17  C   UNL     1      17.256   1.878  22.144  0.00  0.00    -0.012 A 
ATOM     18  C   UNL     1      17.869   1.444  20.951  0.00  0.00    +0.006 A 
ATOM     19  C   UNL     1      18.530   0.216  20.872  0.00  0.00    +0.000 A 
ATOM     20  C   UNL     1      18.574  -0.622  21.979  0.00  0.00    +0.001 A 
ATOM     21  C   UNL     1      17.940  -0.239  23.159  0.00  0.00    +0.015 A 
ATOM     22  C   UNL     1      17.276   0.994  23.240  0.00  0.00    +0.023 A 
ATOM     23 BR   UNL     1      16.399   1.382  24.882  0.00  0.00    -0.050 Br
ENDBRANCH  16  17
ENDBRANCH  14  16
ENDBRANCH  10  12
ENDBRANCH   9  10
ENDBRANCH   5   9
ENDBRANCH   4   7
ENDBRANCH   1   4
BRANCH   1  24
ATOM     24  C   UNL     1      19.702   6.810  30.233  0.00  0.00    +0.175 C 
BRANCH  24  25
ATOM     25  C   UNL     1      19.142   8.183  29.835  0.00  0.00    +0.176 C 
ATOM     26  O   UNL     1      20.257   9.016  29.415  0.00  0.00    -0.332 OA
ATOM     27  C   UNL     1      19.900  10.340  28.896  0.00  0.00    +0.277 C 
ATOM     28  C   UNL     1      19.031  11.107  29.922  0.00  0.00    +0.110 C 
ATOM     29  C   UNL     1      17.849  10.249  30.422  0.00  0.00    +0.143 C 
ATOM     30  C   UNL     1      18.335   8.894  30.937  0.00  0.00    +0.133 C 
BRANCH  30  31
ATOM     31  N   UNL     1      17.193   8.053  31.330  0.00  0.00    -0.308 N 
ATOM     32  H   UNL     1      16.551   7.761  30.606  0.00  0.00    +0.149 HD
ATOM     33  C   UNL     1      16.949   7.650  32.580  0.00  0.00    +0.210 C 
ATOM     34  C   UNL     1      17.931   8.134  33.664  0.00  0.00    +0.109 C 
ATOM     35  O   UNL     1      15.993   6.934  32.877  0.00  0.00    -0.276 OA
ENDBRANCH  30  31
BRANCH  27  36
ATOM     36  C   UNL     1      19.133  10.215  27.563  0.00  0.00    +0.414 C 
ATOM     37  O   UNL     1      17.927  10.454  27.516  0.00  0.00    -0.240 OA
ATOM     38  O   UNL     1      19.720   9.877  26.534  0.00  0.00    -0.240 OA
ENDBRANCH  27  36
BRANCH  27  39
ATOM     39  O   UNL     1      21.126  11.086  28.686  0.00  0.00    -0.343 OA
ATOM     40  C   UNL     1      20.961  12.525  28.604  0.00  0.00    +0.198 C 
ENDBRANCH  27  39
BRANCH  29  41
ATOM     41  O   UNL     1      17.167  10.935  31.473  0.00  0.00    -0.390 OA
ATOM     42  H   UNL     1      16.390  10.434  31.732  0.00  0.00    +0.210 HD
ENDBRANCH  29  41
ENDBRANCH  24  25
BRANCH  24  43
ATOM     43  O   UNL     1      21.105   6.733  29.910  0.00  0.00    -0.387 OA
ATOM     44  H   UNL     1      21.213   6.707  28.956  0.00  0.00    +0.210 HD
ENDBRANCH  24  43
ENDBRANCH   1  24
TORSDOF 15
