REMARK VINA RESULT:    -5.887      1.537      2.182
REMARK INTER + INTRA:         -13.976
REMARK INTER:                 -11.932
REMARK INTRA:                  -2.044
REMARK UNBOUND:                -2.754
REMARK  Name = lig_assembled_12.pdb
REMARK  19 active torsions:
REMARK  status: ('A' for Active; 'I' for Inactive)
REMARK    1  A    between atoms: _2  and  _9
REMARK    2  A    between atoms: _4  and  _21
REMARK    3  A    between atoms: _6  and  _7
REMARK    4  A    between atoms: _6  and  _21
REMARK    5  A    between atoms: _9  and  _16
REMARK    6  A    between atoms: _10  and  _11
REMARK    7  A    between atoms: _10  and  _16
REMARK    8  A    between atoms: _17  and  _37
REMARK    9  A    between atoms: _19  and  _25
REMARK   10  A    between atoms: _20  and  _24
REMARK   11  A    between atoms: _24  and  _25
REMARK   12  A    between atoms: _27  and  _28
REMARK   13  A    between atoms: _29  and  _30
REMARK   14  A    between atoms: _31  and  _33
REMARK   15  A    between atoms: _33  and  _34
REMARK   16  A    between atoms: _33  and  _35
REMARK   17  A    between atoms: _35  and  _36
REMARK   18  A    between atoms: _35  and  _37
REMARK   19  A    between atoms: _38  and  _40
REMARK                            x       y       z     vdW  Elec       q    Type
REMARK                         _______ _______ _______ _____ _____    ______ ____
ROOT
ATOM      1  C   UNL     1       5.093   3.642  32.419  0.00  0.00    +0.163 C 
ENDROOT
BRANCH   1   2
ATOM      2  O   UNL     1       4.414   4.598  33.249  0.00  0.00    -0.388 OA
ATOM      3  H   UNL     1       3.504   4.688  32.956  0.00  0.00    +0.210 HD
ENDBRANCH   1   2
BRANCH   1   4
ATOM      4  C   UNL     1       6.180   2.898  33.214  0.00  0.00    +0.175 C 
BRANCH   4   5
ATOM      5  C   UNL     1       6.449   3.552  34.578  0.00  0.00    +0.176 C 
ATOM      6  O   UNL     1       6.970   4.889  34.338  0.00  0.00    -0.332 OA
ATOM      7  C   UNL     1       7.187   5.708  35.534  0.00  0.00    +0.277 C 
ATOM      8  C   UNL     1       8.097   4.965  36.541  0.00  0.00    +0.110 C 
ATOM      9  C   UNL     1       7.601   3.527  36.804  0.00  0.00    +0.143 C 
ATOM     10  C   UNL     1       7.406   2.766  35.492  0.00  0.00    +0.133 C 
BRANCH  10  11
ATOM     11  N   UNL     1       6.851   1.428  35.751  0.00  0.00    -0.308 N 
ATOM     12  H   UNL     1       5.946   1.371  36.196  0.00  0.00    +0.149 HD
ATOM     13  C   UNL     1       7.465   0.285  35.435  0.00  0.00    +0.210 C 
ATOM     14  C   UNL     1       8.854   0.405  34.781  0.00  0.00    +0.109 C 
ATOM     15  O   UNL     1       6.969  -0.822  35.650  0.00  0.00    -0.276 OA
ENDBRANCH  10  11
BRANCH   7  16
ATOM     16  C   UNL     1       5.844   6.055  36.210  0.00  0.00    +0.414 C 
ATOM     17  O   UNL     1       4.849   6.294  35.528  0.00  0.00    -0.240 OA
ATOM     18  O   UNL     1       5.756   6.096  37.438  0.00  0.00    -0.240 OA
ENDBRANCH   7  16
BRANCH   9  19
ATOM     19  O   UNL     1       8.548   2.831  37.616  0.00  0.00    -0.390 OA
ATOM     20  H   UNL     1       8.234   1.940  37.781  0.00  0.00    +0.210 HD
ENDBRANCH   9  19
BRANCH   7  21
ATOM     21  O   UNL     1       7.857   6.929  35.126  0.00  0.00    -0.343 OA
ATOM     22  C   UNL     1       8.404   7.720  36.211  0.00  0.00    +0.198 C 
ENDBRANCH   7  21
ENDBRANCH   4   5
BRANCH   4  23
ATOM     23  O   UNL     1       7.399   2.832  32.447  0.00  0.00    -0.387 OA
ATOM     24  H   UNL     1       7.955   2.128  32.789  0.00  0.00    +0.210 HD
ENDBRANCH   4  23
ENDBRANCH   1   4
BRANCH   1  25
ATOM     25  C   UNL     1       4.095   2.636  31.857  0.00  0.00    +0.141 C 
BRANCH  25  28
ATOM     26  C   UNL     1       1.848   3.532  31.350  0.00  0.00    +0.401 C 
ATOM     27  O   UNL     1       1.382   3.248  32.456  0.00  0.00    -0.226 OA
ATOM     28  N   UNL     1       3.105   3.277  30.983  0.00  0.00    -0.279 N 
ATOM     29  H   UNL     1       3.392   3.539  30.050  0.00  0.00    +0.152 HD
BRANCH  26  30
ATOM     30  O   UNL     1       1.008   4.171  30.386  0.00  0.00    -0.444 OA
BRANCH  30  31
ATOM     31  C   UNL     1       0.388   3.180  29.561  0.00  0.00    +0.292 C 
BRANCH  31  33
ATOM     32  N   UNL     1       2.095   3.695  27.838  0.00  0.00    -0.131 NA
ATOM     33  C   UNL     1       0.809   3.341  28.158  0.00  0.00    +0.120 A 
ATOM     34  C   UNL     1       0.084   3.189  26.999  0.00  0.00    +0.139 A 
ATOM     35  N   UNL     1       0.973   3.492  26.010  0.00  0.00    -0.226 N 
ATOM     36  N   UNL     1       2.188   3.773  26.517  0.00  0.00    -0.063 NA
BRANCH  35  37
ATOM     37  C   UNL     1       0.765   3.490  24.573  0.00  0.00    +0.305 C 
BRANCH  37  38
ATOM     38  O   UNL     1       0.635   4.834  24.116  0.00  0.00    -0.353 OA
BRANCH  38  39
ATOM     39  C   UNL     1       1.651   5.173  23.181  0.00  0.00    +0.197 C 
BRANCH  39  40
ATOM     40  C   UNL     1       1.166   4.760  21.818  0.00  0.00    -0.022 A 
ATOM     41  C   UNL     1      -0.128   5.087  21.392  0.00  0.00    +0.006 A 
ATOM     42  C   UNL     1      -0.590   4.670  20.144  0.00  0.00    +0.000 A 
ATOM     43  C   UNL     1       0.234   3.915  19.311  0.00  0.00    +0.000 A 
ATOM     44  C   UNL     1       1.519   3.574  19.727  0.00  0.00    +0.000 A 
ATOM     45  C   UNL     1       1.983   3.991  20.976  0.00  0.00    +0.006 A 
ENDBRANCH  39  40
ENDBRANCH  38  39
ENDBRANCH  37  38
ENDBRANCH  35  37
ENDBRANCH  31  33
ENDBRANCH  30  31
ENDBRANCH  26  30
ENDBRANCH  25  28
ENDBRANCH   1  25
TORSDOF 17
