REMARK VINA RESULT:    -6.216      4.700      9.156
REMARK INTER + INTRA:         -13.564
REMARK INTER:                 -10.456
REMARK INTRA:                  -3.108
REMARK UNBOUND:                -2.078
REMARK  Name = lig_assembled_14.pdb
REMARK  18 active torsions:
REMARK  status: ('A' for Active; 'I' for Inactive)
REMARK    1  A    between atoms: _2  and  _10
REMARK    2  A    between atoms: _3  and  _11
REMARK    3  A    between atoms: _5  and  _19
REMARK    4  A    between atoms: _7  and  _8
REMARK    5  A    between atoms: _7  and  _19
REMARK    6  A    between atoms: _10  and  _11
REMARK    7  A    between atoms: _15  and  _35
REMARK    8  A    between atoms: _17  and  _23
REMARK    9  A    between atoms: _18  and  _22
REMARK   10  A    between atoms: _22  and  _23
REMARK   11  A    between atoms: _25  and  _26
REMARK   12  A    between atoms: _27  and  _28
REMARK   13  A    between atoms: _29  and  _31
REMARK   14  A    between atoms: _31  and  _32
REMARK   15  A    between atoms: _31  and  _33
REMARK   16  A    between atoms: _33  and  _34
REMARK   17  A    between atoms: _33  and  _35
REMARK   18  A    between atoms: _36  and  _38
REMARK                            x       y       z     vdW  Elec       q    Type
REMARK                         _______ _______ _______ _____ _____    ______ ____
ROOT
ATOM      1  C   UNL     1      16.840   3.642  22.888  0.00  0.00    +0.163 C 
ENDROOT
BRANCH   1   2
ATOM      2  O   UNL     1      15.995   2.769  23.656  0.00  0.00    -0.388 OA
ATOM      3  H   UNL     1      16.489   2.419  24.402  0.00  0.00    +0.210 HD
ENDBRANCH   1   2
BRANCH   1   4
ATOM      4  C   UNL     1      18.239   3.748  23.518  0.00  0.00    +0.175 C 
BRANCH   4   5
ATOM      5  C   UNL     1      18.461   2.695  24.614  0.00  0.00    +0.176 C 
ATOM      6  O   UNL     1      17.860   3.193  25.841  0.00  0.00    -0.332 OA
ATOM      7  C   UNL     1      17.882   2.269  26.979  0.00  0.00    +0.277 C 
ATOM      8  C   UNL     1      19.327   1.791  27.260  0.00  0.00    +0.110 C 
ATOM      9  C   UNL     1      20.018   1.281  25.978  0.00  0.00    +0.143 C 
ATOM     10  C   UNL     1      19.934   2.320  24.859  0.00  0.00    +0.133 C 
BRANCH  10  11
ATOM     11  N   UNL     1      20.519   1.789  23.618  0.00  0.00    -0.308 N 
ATOM     12  H   UNL     1      20.059   1.003  23.178  0.00  0.00    +0.149 HD
ATOM     13  C   UNL     1      21.617   2.276  23.034  0.00  0.00    +0.210 C 
ATOM     14  C   UNL     1      22.309   3.456  23.743  0.00  0.00    +0.109 C 
ATOM     15  O   UNL     1      22.076   1.820  21.986  0.00  0.00    -0.276 OA
ENDBRANCH  10  11
BRANCH   7  16
ATOM     16  C   UNL     1      16.978   1.048  26.708  0.00  0.00    +0.414 C 
ATOM     17  O   UNL     1      17.302  -0.066  27.118  0.00  0.00    -0.240 OA
ATOM     18  O   UNL     1      15.926   1.176  26.081  0.00  0.00    -0.240 OA
ENDBRANCH   7  16
BRANCH   9  19
ATOM     19  O   UNL     1      21.390   0.994  26.252  0.00  0.00    -0.390 OA
ATOM     20  H   UNL     1      21.477   0.081  26.533  0.00  0.00    +0.210 HD
ENDBRANCH   9  19
BRANCH   7  21
ATOM     21  O   UNL     1      17.401   2.983  28.147  0.00  0.00    -0.343 OA
ATOM     22  C   UNL     1      18.435   3.436  29.056  0.00  0.00    +0.198 C 
ENDBRANCH   7  21
ENDBRANCH   4   5
BRANCH   4  23
ATOM     23  O   UNL     1      18.445   5.071  24.052  0.00  0.00    -0.387 OA
ATOM     24  H   UNL     1      17.782   5.253  24.722  0.00  0.00    +0.210 HD
ENDBRANCH   4  23
ENDBRANCH   1   4
BRANCH   1  25
ATOM     25  C   UNL     1      16.962   3.125  21.459  0.00  0.00    +0.141 C 
BRANCH  25  28
ATOM     26  C   UNL     1      18.187   1.035  20.971  0.00  0.00    +0.401 C 
ATOM     27  O   UNL     1      19.188   1.611  20.541  0.00  0.00    -0.226 OA
ATOM     28  N   UNL     1      17.098   1.664  21.415  0.00  0.00    -0.279 N 
ATOM     29  H   UNL     1      16.322   1.103  21.740  0.00  0.00    +0.152 HD
BRANCH  26  30
ATOM     30  O   UNL     1      18.168  -0.395  21.002  0.00  0.00    -0.444 OA
BRANCH  30  31
ATOM     31  C   UNL     1      19.082  -0.864  21.996  0.00  0.00    +0.292 C 
BRANCH  31  33
ATOM     32  N   UNL     1      19.045  -3.190  22.841  0.00  0.00    -0.131 NA
ATOM     33  C   UNL     1      18.470  -1.947  22.789  0.00  0.00    +0.120 A 
ATOM     34  C   UNL     1      17.320  -1.949  23.546  0.00  0.00    +0.137 A 
ATOM     35  N   UNL     1      17.246  -3.224  24.020  0.00  0.00    -0.250 N 
ATOM     36  N   UNL     1      18.287  -3.964  23.602  0.00  0.00    -0.065 NA
BRANCH  35  37
ATOM     37  C   UNL     1      16.199  -3.822  24.820  0.00  0.00    +0.160 C 
BRANCH  37  38
ATOM     38  C   UNL     1      15.505  -2.791  25.717  0.00  0.00    +0.107 C 
BRANCH  38  39
ATOM     39  N   UNL     1      15.396  -3.229  27.119  0.00  0.00    -0.301 NA
ATOM     40  C   UNL     1      14.409  -4.295  27.314  0.00  0.00    +0.084 C 
ATOM     41  C   UNL     1      14.777  -4.838  28.680  0.00  0.00    +0.017 C 
ATOM     42  C   UNL     1      16.293  -4.785  28.694  0.00  0.00    +0.017 C 
ATOM     43  C   UNL     1      16.670  -3.765  27.623  0.00  0.00    +0.084 C 
ENDBRANCH  38  39
ENDBRANCH  37  38
ENDBRANCH  35  37
ENDBRANCH  31  33
ENDBRANCH  30  31
ENDBRANCH  26  30
ENDBRANCH  25  28
ENDBRANCH   1  25
TORSDOF 16
