REMARK VINA RESULT:    -6.689      4.564      6.604
REMARK INTER + INTRA:         -13.525
REMARK INTER:                 -11.708
REMARK INTRA:                  -1.817
REMARK UNBOUND:                -1.557
REMARK  Name = lig_assembled_28.pdb
REMARK  17 active torsions:
REMARK  status: ('A' for Active; 'I' for Inactive)
REMARK    1  A    between atoms: _2  and  _9
REMARK    2  A    between atoms: _4  and  _22
REMARK    3  A    between atoms: _6  and  _7
REMARK    4  A    between atoms: _6  and  _22
REMARK    5  A    between atoms: _9  and  _10
REMARK    6  A    between atoms: _18  and  _38
REMARK    7  A    between atoms: _20  and  _26
REMARK    8  A    between atoms: _21  and  _25
REMARK    9  A    between atoms: _25  and  _26
REMARK   10  A    between atoms: _28  and  _29
REMARK   11  A    between atoms: _30  and  _31
REMARK   12  A    between atoms: _32  and  _34
REMARK   13  A    between atoms: _34  and  _35
REMARK   14  A    between atoms: _34  and  _36
REMARK   15  A    between atoms: _36  and  _37
REMARK   16  A    between atoms: _36  and  _38
REMARK   17  A    between atoms: _39  and  _41
REMARK                            x       y       z     vdW  Elec       q    Type
REMARK                         _______ _______ _______ _____ _____    ______ ____
ROOT
ATOM      1  C   UNL     1       2.693  -0.881  27.674  0.00  0.00    +0.163 C 
ENDROOT
BRANCH   1   2
ATOM      2  O   UNL     1       3.220  -0.349  26.447  0.00  0.00    -0.388 OA
ATOM      3  H   UNL     1       3.107   0.604  26.436  0.00  0.00    +0.210 HD
ENDBRANCH   1   2
BRANCH   1   4
ATOM      4  C   UNL     1       2.693   0.197  28.752  0.00  0.00    +0.141 C 
BRANCH   4   7
ATOM      5  C   UNL     1       2.107   2.590  28.949  0.00  0.00    +0.401 C 
ATOM      6  O   UNL     1       2.707   2.745  30.016  0.00  0.00    -0.226 OA
ATOM      7  N   UNL     1       2.044   1.431  28.292  0.00  0.00    -0.279 N 
ATOM      8  H   UNL     1       1.519   1.400  27.429  0.00  0.00    +0.152 HD
BRANCH   5   9
ATOM      9  O   UNL     1       1.428   3.704  28.365  0.00  0.00    -0.444 OA
BRANCH   9  10
ATOM     10  C   UNL     1       0.419   3.233  27.469  0.00  0.00    +0.292 C 
BRANCH  10  12
ATOM     11  N   UNL     1      -0.445   5.033  26.000  0.00  0.00    -0.131 NA
ATOM     12  C   UNL     1       0.440   4.011  26.216  0.00  0.00    +0.120 A 
ATOM     13  C   UNL     1       1.284   3.911  25.134  0.00  0.00    +0.137 A 
ATOM     14  N   UNL     1       0.929   4.960  24.335  0.00  0.00    -0.247 N 
ATOM     15  N   UNL     1      -0.144   5.600  24.838  0.00  0.00    -0.065 NA
BRANCH  14  16
ATOM     16  C   UNL     1       1.572   5.499  23.144  0.00  0.00    +0.180 C 
BRANCH  16  17
ATOM     17  C   UNL     1       1.112   4.851  21.859  0.00  0.00    -0.022 A 
ATOM     18  C   UNL     1      -0.174   5.117  21.354  0.00  0.00    +0.055 A 
ATOM     19  C   UNL     1      -0.505   4.595  20.122  0.00  0.00    +0.167 A 
ATOM     20  O   UNL     1      -1.680   4.799  19.466  0.00  0.00    -0.453 OA
ATOM     21  C   UNL     1      -1.405   4.136  18.214  0.00  0.00    +0.466 C 
ATOM     22  O   UNL     1      -0.146   3.429  18.204  0.00  0.00    -0.453 OA
ATOM     23  C   UNL     1       0.366   3.813  19.405  0.00  0.00    +0.166 A 
ATOM     24  C   UNL     1       1.622   3.502  19.882  0.00  0.00    +0.050 A 
ATOM     25  C   UNL     1       1.998   4.035  21.119  0.00  0.00    +0.009 A 
ENDBRANCH  16  17
ENDBRANCH  14  16
ENDBRANCH  10  12
ENDBRANCH   9  10
ENDBRANCH   5   9
ENDBRANCH   4   7
ENDBRANCH   1   4
BRANCH   1  26
ATOM     26  C   UNL     1       3.523  -2.086  28.152  0.00  0.00    +0.175 C 
BRANCH  26  27
ATOM     27  C   UNL     1       4.889  -2.159  27.456  0.00  0.00    +0.176 C 
ATOM     28  O   UNL     1       4.832  -3.226  26.469  0.00  0.00    -0.332 OA
ATOM     29  C   UNL     1       6.022  -3.375  25.627  0.00  0.00    +0.277 C 
ATOM     30  C   UNL     1       7.288  -3.541  26.503  0.00  0.00    +0.110 C 
ATOM     31  C   UNL     1       7.376  -2.447  27.588  0.00  0.00    +0.143 C 
ATOM     32  C   UNL     1       6.084  -2.377  28.403  0.00  0.00    +0.133 C 
BRANCH  32  33
ATOM     33  N   UNL     1       6.147  -1.274  29.375  0.00  0.00    -0.308 N 
ATOM     34  H   UNL     1       6.176  -0.330  29.017  0.00  0.00    +0.149 HD
ATOM     35  C   UNL     1       6.170  -1.440  30.701  0.00  0.00    +0.210 C 
ATOM     36  C   UNL     1       6.153  -2.892  31.214  0.00  0.00    +0.109 C 
ATOM     37  O   UNL     1       6.209  -0.497  31.492  0.00  0.00    -0.276 OA
ENDBRANCH  32  33
BRANCH  29  38
ATOM     38  C   UNL     1       6.194  -2.153  24.700  0.00  0.00    +0.414 C 
ATOM     39  O   UNL     1       5.212  -1.501  24.346  0.00  0.00    -0.240 OA
ATOM     40  O   UNL     1       7.312  -1.820  24.307  0.00  0.00    -0.240 OA
ENDBRANCH  29  38
BRANCH  29  41
ATOM     41  O   UNL     1       5.859  -4.575  24.827  0.00  0.00    -0.343 OA
ATOM     42  C   UNL     1       7.068  -5.353  24.637  0.00  0.00    +0.198 C 
ENDBRANCH  29  41
BRANCH  31  43
ATOM     43  O   UNL     1       8.470  -2.725  28.464  0.00  0.00    -0.390 OA
ATOM     44  H   UNL     1       8.725  -3.646  28.377  0.00  0.00    +0.210 HD
ENDBRANCH  31  43
ENDBRANCH  26  27
BRANCH  26  45
ATOM     45  O   UNL     1       2.790  -3.309  27.939  0.00  0.00    -0.387 OA
ATOM     46  H   UNL     1       2.564  -3.389  27.009  0.00  0.00    +0.210 HD
ENDBRANCH  26  45
ENDBRANCH   1  26
TORSDOF 15
