REMARK VINA RESULT:    -6.843      1.768      3.483
REMARK INTER + INTRA:         -17.300
REMARK INTER:                 -14.362
REMARK INTRA:                  -2.939
REMARK UNBOUND:                -3.256
REMARK  Name = lig_assembled_47.pdb
REMARK  22 active torsions:
REMARK  status: ('A' for Active; 'I' for Inactive)
REMARK    1  A    between atoms: _2  and  _9
REMARK    2  A    between atoms: _4  and  _30
REMARK    3  A    between atoms: _6  and  _7
REMARK    4  A    between atoms: _6  and  _30
REMARK    5  A    between atoms: _9  and  _10
REMARK    6  A    between atoms: _10  and  _11
REMARK    7  A    between atoms: _10  and  _12
REMARK    8  A    between atoms: _11  and  _24
REMARK    9  A    between atoms: _12  and  _13
REMARK   10  A    between atoms: _12  and  _19
REMARK   11  A    between atoms: _26  and  _46
REMARK   12  A    between atoms: _28  and  _34
REMARK   13  A    between atoms: _29  and  _33
REMARK   14  A    between atoms: _33  and  _34
REMARK   15  A    between atoms: _36  and  _37
REMARK   16  A    between atoms: _38  and  _39
REMARK   17  A    between atoms: _40  and  _42
REMARK   18  A    between atoms: _42  and  _43
REMARK   19  A    between atoms: _42  and  _44
REMARK   20  A    between atoms: _44  and  _45
REMARK   21  A    between atoms: _44  and  _46
REMARK   22  A    between atoms: _47  and  _49
REMARK                            x       y       z     vdW  Elec       q    Type
REMARK                         _______ _______ _______ _____ _____    ______ ____
ROOT
ATOM      1  C   UNL     1       2.606  23.860  16.991  0.00  0.00    +0.401 C 
ATOM      2  O   UNL     1       2.623  25.078  16.796  0.00  0.00    -0.226 OA
ATOM      3  N   UNL     1       3.700  23.117  17.163  0.00  0.00    -0.279 N 
ATOM      4  H   UNL     1       3.583  22.127  17.326  0.00  0.00    +0.152 HD
ENDROOT
BRANCH   3   5
ATOM      5  C   UNL     1       5.065  23.657  17.128  0.00  0.00    +0.141 C 
BRANCH   5   6
ATOM      6  C   UNL     1       5.905  23.011  16.032  0.00  0.00    +0.163 C 
BRANCH   6   7
ATOM      7  O   UNL     1       5.755  21.582  16.075  0.00  0.00    -0.388 OA
ATOM      8  H   UNL     1       5.802  21.282  16.986  0.00  0.00    +0.210 HD
ENDBRANCH   6   7
BRANCH   6   9
ATOM      9  C   UNL     1       5.478  23.567  14.662  0.00  0.00    +0.175 C 
BRANCH   9  10
ATOM     10  C   UNL     1       6.613  23.494  13.630  0.00  0.00    +0.176 C 
ATOM     11  O   UNL     1       7.128  24.840  13.437  0.00  0.00    -0.332 OA
ATOM     12  C   UNL     1       8.296  24.952  12.557  0.00  0.00    +0.277 C 
ATOM     13  C   UNL     1       8.002  24.301  11.183  0.00  0.00    +0.110 C 
ATOM     14  C   UNL     1       7.422  22.880  11.338  0.00  0.00    +0.143 C 
ATOM     15  C   UNL     1       6.214  22.879  12.276  0.00  0.00    +0.133 C 
BRANCH  15  16
ATOM     16  N   UNL     1       5.724  21.508  12.485  0.00  0.00    -0.308 N 
ATOM     17  H   UNL     1       6.369  20.829  12.866  0.00  0.00    +0.149 HD
ATOM     18  C   UNL     1       4.484  21.100  12.204  0.00  0.00    +0.210 C 
ATOM     19  C   UNL     1       3.533  22.151  11.600  0.00  0.00    +0.109 C 
ATOM     20  O   UNL     1       4.097  19.948  12.403  0.00  0.00    -0.276 OA
ENDBRANCH  15  16
BRANCH  12  21
ATOM     21  C   UNL     1       9.528  24.276  13.194  0.00  0.00    +0.414 C 
ATOM     22  O   UNL     1      10.437  23.848  12.485  0.00  0.00    -0.240 OA
ATOM     23  O   UNL     1       9.612  24.159  14.418  0.00  0.00    -0.240 OA
ENDBRANCH  12  21
BRANCH  12  24
ATOM     24  O   UNL     1       8.566  26.362  12.347  0.00  0.00    -0.343 OA
ATOM     25  C   UNL     1       9.020  26.706  11.013  0.00  0.00    +0.198 C 
ENDBRANCH  12  24
BRANCH  14  26
ATOM     26  O   UNL     1       7.026  22.379  10.061  0.00  0.00    -0.390 OA
ATOM     27  H   UNL     1       7.539  21.595   9.851  0.00  0.00    +0.210 HD
ENDBRANCH  14  26
ENDBRANCH   9  10
BRANCH   9  28
ATOM     28  O   UNL     1       5.018  24.926  14.800  0.00  0.00    -0.387 OA
ATOM     29  H   UNL     1       4.143  25.009  14.414  0.00  0.00    +0.210 HD
ENDBRANCH   9  28
ENDBRANCH   6   9
ENDBRANCH   5   6
ENDBRANCH   3   5
BRANCH   1  30
ATOM     30  O   UNL     1       1.347  23.183  17.043  0.00  0.00    -0.444 OA
BRANCH  30  31
ATOM     31  C   UNL     1       0.482  23.853  17.964  0.00  0.00    +0.292 C 
BRANCH  31  33
ATOM     32  N   UNL     1       0.167  23.515  20.403  0.00  0.00    -0.131 NA
ATOM     33  C   UNL     1       0.190  23.000  19.133  0.00  0.00    +0.120 A 
ATOM     34  C   UNL     1      -0.064  21.647  19.197  0.00  0.00    +0.137 A 
ATOM     35  N   UNL     1      -0.184  21.394  20.532  0.00  0.00    -0.251 N 
ATOM     36  N   UNL     1      -0.066  22.522  21.252  0.00  0.00    -0.065 NA
BRANCH  35  37
ATOM     37  C   UNL     1      -0.258  20.101  21.197  0.00  0.00    +0.160 C 
BRANCH  37  38
ATOM     38  C   UNL     1      -1.195  19.103  20.512  0.00  0.00    +0.131 C 
BRANCH  38  39
ATOM     39  C   UNL     1      -0.590  17.716  20.684  0.00  0.00    +0.311 C 
ATOM     40  O   UNL     1      -0.962  16.932  21.544  0.00  0.00    -0.251 OA
BRANCH  39  41
ATOM     41  O   UNL     1       0.319  17.330  19.764  0.00  0.00    -0.480 OA
ATOM     42  H   UNL     1       0.509  16.382  19.664  0.00  0.00    +0.295 HD
ENDBRANCH  39  41
ENDBRANCH  38  39
BRANCH  38  43
ATOM     43  C   UNL     1      -2.677  19.157  21.001  0.00  0.00    +0.064 C 
BRANCH  43  44
ATOM     44  C   UNL     1      -2.931  19.990  22.259  0.00  0.00    -0.039 A 
ATOM     45  C   UNL     1      -3.346  21.330  22.137  0.00  0.00    +0.004 A 
ATOM     46  C   UNL     1      -3.587  22.119  23.267  0.00  0.00    +0.000 A 
ATOM     47  C   UNL     1      -3.400  21.590  24.540  0.00  0.00    +0.000 A 
ATOM     48  C   UNL     1      -2.971  20.274  24.681  0.00  0.00    +0.000 A 
ATOM     49  C   UNL     1      -2.748  19.478  23.552  0.00  0.00    +0.004 A 
ENDBRANCH  43  44
BRANCH  43  50
ATOM     50  C   UNL     1      -3.606  19.530  19.839  0.00  0.00    -0.039 A 
ATOM     51  C   UNL     1      -4.936  19.079  19.820  0.00  0.00    +0.004 A 
ATOM     52  C   UNL     1      -5.734  19.269  18.687  0.00  0.00    +0.000 A 
ATOM     53  C   UNL     1      -5.225  19.933  17.572  0.00  0.00    +0.000 A 
ATOM     54  C   UNL     1      -3.924  20.418  17.590  0.00  0.00    +0.000 A 
ATOM     55  C   UNL     1      -3.121  20.218  18.713  0.00  0.00    +0.004 A 
ENDBRANCH  43  50
ENDBRANCH  38  43
ENDBRANCH  37  38
ENDBRANCH  35  37
ENDBRANCH  31  33
ENDBRANCH  30  31
ENDBRANCH   1  30
TORSDOF 20
