REMARK VINA RESULT:    -6.819      1.507      1.942
REMARK INTER + INTRA:         -13.650
REMARK INTER:                 -12.115
REMARK INTRA:                  -1.535
REMARK UNBOUND:                -1.847
REMARK  Name = lig_assembled_2.pdb
REMARK  16 active torsions:
REMARK  status: ('A' for Active; 'I' for Inactive)
REMARK    1  A    between atoms: _2  and  _9
REMARK    2  A    between atoms: _4  and  _18
REMARK    3  A    between atoms: _6  and  _7
REMARK    4  A    between atoms: _6  and  _18
REMARK    5  A    between atoms: _14  and  _34
REMARK    6  A    between atoms: _16  and  _22
REMARK    7  A    between atoms: _17  and  _21
REMARK    8  A    between atoms: _21  and  _22
REMARK    9  A    between atoms: _24  and  _25
REMARK   10  A    between atoms: _26  and  _27
REMARK   11  A    between atoms: _28  and  _30
REMARK   12  A    between atoms: _30  and  _31
REMARK   13  A    between atoms: _30  and  _32
REMARK   14  A    between atoms: _32  and  _33
REMARK   15  A    between atoms: _32  and  _34
REMARK   16  A    between atoms: _35  and  _37
REMARK                            x       y       z     vdW  Elec       q    Type
REMARK                         _______ _______ _______ _____ _____    ______ ____
ROOT
ATOM      1  C   UNL     1       6.383   1.357  33.115  0.00  0.00    +0.163 C 
ENDROOT
BRANCH   1   2
ATOM      2  O   UNL     1       6.625   0.437  32.037  0.00  0.00    -0.388 OA
ATOM      3  H   UNL     1       6.062  -0.334  32.141  0.00  0.00    +0.210 HD
ENDBRANCH   1   2
BRANCH   1   4
ATOM      4  C   UNL     1       4.933   1.828  33.083  0.00  0.00    +0.141 C 
BRANCH   4   7
ATOM      5  C   UNL     1       3.454   2.894  31.415  0.00  0.00    +0.401 C 
ATOM      6  O   UNL     1       2.791   3.505  32.255  0.00  0.00    -0.226 OA
ATOM      7  N   UNL     1       4.470   2.083  31.714  0.00  0.00    -0.279 N 
ATOM      8  H   UNL     1       4.948   1.618  30.955  0.00  0.00    +0.152 HD
BRANCH   5   9
ATOM      9  O   UNL     1       3.131   3.045  30.030  0.00  0.00    -0.444 OA
BRANCH   9  10
ATOM     10  C   UNL     1       1.723   2.874  29.847  0.00  0.00    +0.292 C 
BRANCH  10  12
ATOM     11  N   UNL     1       0.206   4.012  28.258  0.00  0.00    -0.131 NA
ATOM     12  C   UNL     1       1.332   3.275  28.482  0.00  0.00    +0.121 A 
ATOM     13  C   UNL     1       1.955   3.029  27.280  0.00  0.00    +0.143 A 
ATOM     14  N   UNL     1       1.178   3.667  26.341  0.00  0.00    -0.220 N 
ATOM     15  N   UNL     1       0.115   4.240  26.955  0.00  0.00    -0.060 NA
BRANCH  14  16
ATOM     16  C   UNL     1       1.395   3.786  24.942  0.00  0.00    +0.067 A 
ATOM     17  C   UNL     1       1.267   5.024  24.296  0.00  0.00    +0.029 A 
ATOM     18  C   UNL     1       1.448   5.113  22.911  0.00  0.00    +0.022 A 
ATOM     19  C   UNL     1       1.756   3.972  22.173  0.00  0.00    +0.041 A 
ATOM     20 CL   UNL     1       1.953   4.087  20.468  0.00  0.00    -0.084 Cl
ATOM     21  C   UNL     1       1.899   2.741  22.807  0.00  0.00    +0.022 A 
ATOM     22  C   UNL     1       1.721   2.645  24.191  0.00  0.00    +0.029 A 
ENDBRANCH  14  16
ENDBRANCH  10  12
ENDBRANCH   9  10
ENDBRANCH   5   9
ENDBRANCH   4   7
ENDBRANCH   1   4
BRANCH   1  23
ATOM     23  C   UNL     1       7.321   2.573  33.021  0.00  0.00    +0.175 C 
BRANCH  23  24
ATOM     24  C   UNL     1       7.137   3.536  34.203  0.00  0.00    +0.176 C 
ATOM     25  O   UNL     1       7.085   4.889  33.673  0.00  0.00    -0.332 OA
ATOM     26  C   UNL     1       6.807   5.944  34.652  0.00  0.00    +0.277 C 
ATOM     27  C   UNL     1       7.820   5.878  35.821  0.00  0.00    +0.110 C 
ATOM     28  C   UNL     1       7.933   4.451  36.397  0.00  0.00    +0.143 C 
ATOM     29  C   UNL     1       8.221   3.434  35.292  0.00  0.00    +0.133 C 
BRANCH  29  30
ATOM     30  N   UNL     1       8.241   2.069  35.840  0.00  0.00    -0.308 N 
ATOM     31  H   UNL     1       7.402   1.729  36.289  0.00  0.00    +0.149 HD
ATOM     32  C   UNL     1       9.294   1.250  35.783  0.00  0.00    +0.210 C 
ATOM     33  C   UNL     1      10.566   1.807  35.116  0.00  0.00    +0.109 C 
ATOM     34  O   UNL     1       9.277   0.106  36.238  0.00  0.00    -0.276 OA
ENDBRANCH  29  30
BRANCH  26  35
ATOM     35  C   UNL     1       5.372   5.811  35.205  0.00  0.00    +0.414 C 
ATOM     36  O   UNL     1       4.479   5.335  34.505  0.00  0.00    -0.240 OA
ATOM     37  O   UNL     1       5.109   6.180  36.351  0.00  0.00    -0.240 OA
ENDBRANCH  26  35
BRANCH  28  38
ATOM     38  O   UNL     1       8.983   4.404  37.365  0.00  0.00    -0.390 OA
ATOM     39  H   UNL     1       9.832   4.419  36.918  0.00  0.00    +0.210 HD
ENDBRANCH  28  38
BRANCH  26  40
ATOM     40  O   UNL     1       6.957   7.225  33.988  0.00  0.00    -0.343 OA
ATOM     41  C   UNL     1       7.711   8.215  34.731  0.00  0.00    +0.198 C 
ENDBRANCH  26  40
ENDBRANCH  23  24
BRANCH  23  42
ATOM     42  O   UNL     1       7.110   3.268  31.776  0.00  0.00    -0.387 OA
ATOM     43  H   UNL     1       7.957   3.526  31.406  0.00  0.00    +0.210 HD
ENDBRANCH  23  42
ENDBRANCH   1  23
TORSDOF 14
