REMARK VINA RESULT:    -5.780      5.980      7.500
REMARK INTER + INTRA:         -14.203
REMARK INTER:                 -11.526
REMARK INTRA:                  -2.677
REMARK UNBOUND:                -2.172
REMARK  Name = lig_assembled_54.pdb
REMARK  24 active torsions:
REMARK  status: ('A' for Active; 'I' for Inactive)
REMARK    1  A    between atoms: _2  and  _9
REMARK    2  A    between atoms: _4  and  _21
REMARK    3  A    between atoms: _5  and  _14
REMARK    4  A    between atoms: _6  and  _7
REMARK    5  A    between atoms: _6  and  _21
REMARK    6  A    between atoms: _9  and  _10
REMARK    7  A    between atoms: _10  and  _11
REMARK    8  A    between atoms: _11  and  _15
REMARK    9  A    between atoms: _11  and  _16
REMARK   10  A    between atoms: _12  and  _13
REMARK   11  A    between atoms: _12  and  _16
REMARK   12  A    between atoms: _14  and  _15
REMARK   13  A    between atoms: _17  and  _37
REMARK   14  A    between atoms: _19  and  _25
REMARK   15  A    between atoms: _20  and  _24
REMARK   16  A    between atoms: _24  and  _25
REMARK   17  A    between atoms: _27  and  _28
REMARK   18  A    between atoms: _29  and  _30
REMARK   19  A    between atoms: _31  and  _33
REMARK   20  A    between atoms: _33  and  _34
REMARK   21  A    between atoms: _33  and  _35
REMARK   22  A    between atoms: _35  and  _36
REMARK   23  A    between atoms: _35  and  _37
REMARK   24  A    between atoms: _38  and  _40
REMARK                            x       y       z     vdW  Elec       q    Type
REMARK                         _______ _______ _______ _____ _____    ______ ____
ROOT
ATOM      1  C   UNL     1       7.971   2.441  34.288  0.00  0.00    +0.163 C 
ENDROOT
BRANCH   1   2
ATOM      2  O   UNL     1       8.612   2.771  35.531  0.00  0.00    -0.388 OA
ATOM      3  H   UNL     1       8.072   3.403  36.012  0.00  0.00    +0.210 HD
ENDBRANCH   1   2
BRANCH   1   4
ATOM      4  C   UNL     1       7.901   3.668  33.363  0.00  0.00    +0.175 C 
BRANCH   4   5
ATOM      5  C   UNL     1       7.027   4.786  33.950  0.00  0.00    +0.176 C 
ATOM      6  O   UNL     1       7.741   5.367  35.075  0.00  0.00    -0.332 OA
ATOM      7  C   UNL     1       7.101   6.528  35.701  0.00  0.00    +0.277 C 
ATOM      8  C   UNL     1       5.650   6.186  36.121  0.00  0.00    +0.110 C 
ATOM      9  C   UNL     1       4.861   5.536  34.965  0.00  0.00    +0.143 C 
ATOM     10  C   UNL     1       5.619   4.340  34.387  0.00  0.00    +0.133 C 
BRANCH  10  11
ATOM     11  N   UNL     1       4.899   3.783  33.232  0.00  0.00    -0.308 N 
ATOM     12  H   UNL     1       4.843   4.346  32.395  0.00  0.00    +0.149 HD
ATOM     13  C   UNL     1       4.314   2.582  33.217  0.00  0.00    +0.210 C 
ATOM     14  C   UNL     1       4.394   1.760  34.517  0.00  0.00    +0.109 C 
ATOM     15  O   UNL     1       3.729   2.135  32.229  0.00  0.00    -0.276 OA
ENDBRANCH  10  11
BRANCH   7  16
ATOM     16  C   UNL     1       7.087   7.731  34.734  0.00  0.00    +0.414 C 
ATOM     17  O   UNL     1       8.144   8.233  34.353  0.00  0.00    -0.240 OA
ATOM     18  O   UNL     1       6.020   8.200  34.336  0.00  0.00    -0.240 OA
ENDBRANCH   7  16
BRANCH   9  19
ATOM     19  O   UNL     1       3.586   5.100  35.438  0.00  0.00    -0.390 OA
ATOM     20  H   UNL     1       3.126   5.838  35.847  0.00  0.00    +0.210 HD
ENDBRANCH   9  19
BRANCH   7  21
ATOM     21  O   UNL     1       7.854   6.868  36.893  0.00  0.00    -0.343 OA
ATOM     22  C   UNL     1       9.089   6.128  37.069  0.00  0.00    +0.198 C 
ENDBRANCH   7  21
ENDBRANCH   4   5
BRANCH   4  23
ATOM     23  O   UNL     1       7.408   3.282  32.064  0.00  0.00    -0.387 OA
ATOM     24  H   UNL     1       8.085   2.783  31.600  0.00  0.00    +0.210 HD
ENDBRANCH   4  23
ENDBRANCH   1   4
BRANCH   1  25
ATOM     25  C   UNL     1       8.733   1.319  33.590  0.00  0.00    +0.141 C 
BRANCH  25  28
ATOM     26  C   UNL     1       7.240  -0.650  33.597  0.00  0.00    +0.401 C 
ATOM     27  O   UNL     1       7.406  -0.889  34.796  0.00  0.00    -0.226 OA
ATOM     28  N   UNL     1       7.826   0.358  32.950  0.00  0.00    -0.279 N 
ATOM     29  H   UNL     1       7.636   0.467  31.964  0.00  0.00    +0.152 HD
BRANCH  26  30
ATOM     30  O   UNL     1       6.375  -1.495  32.834  0.00  0.00    -0.444 OA
BRANCH  30  31
ATOM     31  C   UNL     1       5.712  -0.720  31.832  0.00  0.00    +0.292 C 
BRANCH  31  33
ATOM     32  N   UNL     1       7.380  -1.634  30.246  0.00  0.00    -0.131 NA
ATOM     33  C   UNL     1       6.110  -1.184  30.488  0.00  0.00    +0.120 A 
ATOM     34  C   UNL     1       5.371  -1.274  29.329  0.00  0.00    +0.137 A 
ATOM     35  N   UNL     1       6.235  -1.822  28.430  0.00  0.00    -0.251 N 
ATOM     36  N   UNL     1       7.444  -2.031  28.982  0.00  0.00    -0.065 NA
BRANCH  35  37
ATOM     37  C   UNL     1       5.975  -2.227  27.064  0.00  0.00    +0.150 C 
BRANCH  37  38
ATOM     38  C   UNL     1       7.239  -2.205  26.219  0.00  0.00    +0.084 C 
BRANCH  38  39
ATOM     39  C   UNL     1       7.542  -3.546  25.539  0.00  0.00    +0.252 C 
BRANCH  39  40
ATOM     40  O   UNL     1       8.751  -4.102  26.063  0.00  0.00    -0.352 OA
BRANCH  40  41
ATOM     41  C   UNL     1       8.548  -5.111  27.050  0.00  0.00    +0.159 C 
ATOM     42  C   UNL     1       9.662  -5.022  28.075  0.00  0.00    +0.034 C 
ENDBRANCH  40  41
ENDBRANCH  39  40
BRANCH  39  43
ATOM     43  O   UNL     1       7.689  -3.297  24.136  0.00  0.00    -0.352 OA
BRANCH  43  44
ATOM     44  C   UNL     1       6.996  -4.256  23.335  0.00  0.00    +0.159 C 
ATOM     45  C   UNL     1       5.909  -4.905  24.168  0.00  0.00    +0.034 C 
ENDBRANCH  43  44
ENDBRANCH  39  43
ENDBRANCH  38  39
ENDBRANCH  37  38
ENDBRANCH  35  37
ENDBRANCH  31  33
ENDBRANCH  30  31
ENDBRANCH  26  30
ENDBRANCH  25  28
ENDBRANCH   1  25
TORSDOF 20
