REMARK VINA RESULT:    -7.414      0.000      0.000
REMARK INTER + INTRA:         -14.949
REMARK INTER:                 -13.231
REMARK INTRA:                  -1.718
REMARK UNBOUND:                -2.118
REMARK  Name = lig_assembled_7.pdb
REMARK  19 active torsions:
REMARK  status: ('A' for Active; 'I' for Inactive)
REMARK    1  A    between atoms: _2  and  _9
REMARK    2  A    between atoms: _4  and  _21
REMARK    3  A    between atoms: _5  and  _16
REMARK    4  A    between atoms: _6  and  _7
REMARK    5  A    between atoms: _6  and  _21
REMARK    6  A    between atoms: _10  and  _11
REMARK    7  A    between atoms: _13  and  _14
REMARK    8  A    between atoms: _17  and  _37
REMARK    9  A    between atoms: _19  and  _25
REMARK   10  A    between atoms: _20  and  _24
REMARK   11  A    between atoms: _24  and  _25
REMARK   12  A    between atoms: _27  and  _28
REMARK   13  A    between atoms: _29  and  _30
REMARK   14  A    between atoms: _31  and  _33
REMARK   15  A    between atoms: _33  and  _34
REMARK   16  A    between atoms: _33  and  _35
REMARK   17  A    between atoms: _35  and  _36
REMARK   18  A    between atoms: _35  and  _37
REMARK   19  A    between atoms: _38  and  _40
REMARK                            x       y       z     vdW  Elec       q    Type
REMARK                         _______ _______ _______ _____ _____    ______ ____
ROOT
ATOM      1  C   UNL     1       3.751   3.630  32.426  0.00  0.00    +0.163 C 
ENDROOT
BRANCH   1   2
ATOM      2  O   UNL     1       2.826   3.900  33.493  0.00  0.00    -0.388 OA
ATOM      3  H   UNL     1       3.287   3.864  34.334  0.00  0.00    +0.210 HD
ENDBRANCH   1   2
BRANCH   1   4
ATOM      4  C   UNL     1       3.140   2.634  31.446  0.00  0.00    +0.141 C 
BRANCH   4   7
ATOM      5  C   UNL     1       1.262   3.311  29.990  0.00  0.00    +0.401 C 
ATOM      6  O   UNL     1       0.405   2.748  30.674  0.00  0.00    -0.226 OA
ATOM      7  N   UNL     1       2.565   3.304  30.273  0.00  0.00    -0.279 N 
ATOM      8  H   UNL     1       3.192   3.788  29.645  0.00  0.00    +0.152 HD
BRANCH   5   9
ATOM      9  O   UNL     1       0.857   4.017  28.814  0.00  0.00    -0.444 OA
BRANCH   9  10
ATOM     10  C   UNL     1       0.286   3.099  27.878  0.00  0.00    +0.292 C 
BRANCH  10  12
ATOM     11  N   UNL     1       2.242   3.707  26.505  0.00  0.00    -0.131 NA
ATOM     12  C   UNL     1       0.987   3.186  26.583  0.00  0.00    +0.121 A 
ATOM     13  C   UNL     1       0.586   2.800  25.320  0.00  0.00    +0.143 A 
ATOM     14  N   UNL     1       1.624   3.154  24.482  0.00  0.00    -0.219 N 
ATOM     15  N   UNL     1       2.629   3.658  25.241  0.00  0.00    -0.060 NA
BRANCH  14  16
ATOM     16  C   UNL     1       1.728   3.039  23.058  0.00  0.00    +0.073 A 
ATOM     17  C   UNL     1       1.709   4.222  22.257  0.00  0.00    -0.024 A 
ATOM     18  C   UNL     1       1.812   4.119  20.853  0.00  0.00    +0.008 A 
ATOM     19  C   UNL     1       1.943   2.885  20.221  0.00  0.00    -0.050 A 
ATOM     20  C   UNL     1       2.052   2.811  18.728  0.00  0.00    +0.044 C 
ATOM     21  C   UNL     1       1.963   1.734  21.006  0.00  0.00    +0.008 A 
ATOM     22  C   UNL     1       1.635   5.629  22.808  0.00  0.00    +0.046 C 
ATOM     23  C   UNL     1       1.836   1.779  22.414  0.00  0.00    -0.024 A 
ATOM     24  C   UNL     1       1.755   0.419  23.058  0.00  0.00    +0.046 C 
ENDBRANCH  14  16
ENDBRANCH  10  12
ENDBRANCH   9  10
ENDBRANCH   5   9
ENDBRANCH   4   7
ENDBRANCH   1   4
BRANCH   1  25
ATOM     25  C   UNL     1       5.073   3.065  32.975  0.00  0.00    +0.175 C 
BRANCH  25  26
ATOM     26  C   UNL     1       5.486   3.738  34.292  0.00  0.00    +0.176 C 
ATOM     27  O   UNL     1       5.475   5.177  34.082  0.00  0.00    -0.332 OA
ATOM     28  C   UNL     1       5.744   5.993  35.269  0.00  0.00    +0.277 C 
ATOM     29  C   UNL     1       7.081   5.571  35.925  0.00  0.00    +0.110 C 
ATOM     30  C   UNL     1       7.154   4.044  36.139  0.00  0.00    +0.143 C 
ATOM     31  C   UNL     1       6.854   3.293  34.841  0.00  0.00    +0.133 C 
BRANCH  31  32
ATOM     32  N   UNL     1       6.841   1.841  35.078  0.00  0.00    -0.308 N 
ATOM     33  H   UNL     1       6.099   1.464  35.652  0.00  0.00    +0.149 HD
ATOM     34  C   UNL     1       7.743   0.989  34.584  0.00  0.00    +0.210 C 
ATOM     35  C   UNL     1       8.874   1.599  33.735  0.00  0.00    +0.109 C 
ATOM     36  O   UNL     1       7.698  -0.225  34.786  0.00  0.00    -0.276 OA
ENDBRANCH  31  32
BRANCH  28  37
ATOM     37  C   UNL     1       4.601   5.857  36.297  0.00  0.00    +0.414 C 
ATOM     38  O   UNL     1       4.800   6.115  37.484  0.00  0.00    -0.240 OA
ATOM     39  O   UNL     1       3.480   5.491  35.940  0.00  0.00    -0.240 OA
ENDBRANCH  28  37
BRANCH  30  40
ATOM     40  O   UNL     1       8.456   3.684  36.602  0.00  0.00    -0.390 OA
ATOM     41  H   UNL     1       8.595   4.045  37.481  0.00  0.00    +0.210 HD
ENDBRANCH  30  40
BRANCH  28  42
ATOM     42  O   UNL     1       5.858   7.377  34.847  0.00  0.00    -0.343 OA
ATOM     43  C   UNL     1       7.180   7.773  34.402  0.00  0.00    +0.198 C 
ENDBRANCH  28  42
ENDBRANCH  25  26
BRANCH  25  44
ATOM     44  O   UNL     1       6.119   3.209  31.994  0.00  0.00    -0.387 OA
ATOM     45  H   UNL     1       6.028   4.055  31.550  0.00  0.00    +0.210 HD
ENDBRANCH  25  44
ENDBRANCH   1  25
TORSDOF 14
