REMARK VINA RESULT:    -6.791     13.765     15.285
REMARK INTER + INTRA:         -13.542
REMARK INTER:                 -11.356
REMARK INTRA:                  -2.186
REMARK UNBOUND:                -1.788
REMARK  Name = lig_assembled_20.pdb
REMARK  16 active torsions:
REMARK  status: ('A' for Active; 'I' for Inactive)
REMARK    1  A    between atoms: _2  and  _11
REMARK    2  A    between atoms: _6  and  _21
REMARK    3  A    between atoms: _8  and  _9
REMARK    4  A    between atoms: _8  and  _21
REMARK    5  A    between atoms: _17  and  _37
REMARK    6  A    between atoms: _19  and  _25
REMARK    7  A    between atoms: _20  and  _24
REMARK    8  A    between atoms: _24  and  _25
REMARK    9  A    between atoms: _27  and  _28
REMARK   10  A    between atoms: _29  and  _30
REMARK   11  A    between atoms: _31  and  _33
REMARK   12  A    between atoms: _33  and  _34
REMARK   13  A    between atoms: _33  and  _35
REMARK   14  A    between atoms: _35  and  _36
REMARK   15  A    between atoms: _35  and  _37
REMARK   16  A    between atoms: _38  and  _40
REMARK                            x       y       z     vdW  Elec       q    Type
REMARK                         _______ _______ _______ _____ _____    ______ ____
ROOT
ATOM      1  C   UNL     1      18.815  10.397  29.283  0.00  0.00    +0.163 C 
ENDROOT
BRANCH   1   2
ATOM      2  O   UNL     1      17.507  10.988  29.352  0.00  0.00    -0.388 OA
ATOM      3  H   UNL     1      17.588  11.927  29.538  0.00  0.00    +0.210 HD
ENDBRANCH   1   2
BRANCH   1   4
ATOM      4  C   UNL     1      19.263  10.290  27.829  0.00  0.00    +0.141 C 
BRANCH   4   7
ATOM      5  C   UNL     1      19.775   8.409  26.312  0.00  0.00    +0.401 C 
ATOM      6  O   UNL     1      20.714   8.987  25.759  0.00  0.00    -0.226 OA
ATOM      7  N   UNL     1      19.038   8.946  27.285  0.00  0.00    -0.279 N 
ATOM      8  H   UNL     1      18.282   8.396  27.669  0.00  0.00    +0.152 HD
BRANCH   5   9
ATOM      9  O   UNL     1      19.435   7.083  25.897  0.00  0.00    -0.444 OA
BRANCH   9  10
ATOM     10  C   UNL     1      19.588   6.972  24.480  0.00  0.00    +0.292 C 
BRANCH  10  12
ATOM     11  N   UNL     1      17.933   5.853  23.009  0.00  0.00    -0.131 NA
ATOM     12  C   UNL     1      18.893   5.772  23.976  0.00  0.00    +0.121 A 
ATOM     13  C   UNL     1      19.052   4.456  24.340  0.00  0.00    +0.143 A 
ATOM     14  N   UNL     1      18.160   3.757  23.561  0.00  0.00    -0.220 N 
ATOM     15  N   UNL     1      17.492   4.626  22.761  0.00  0.00    -0.060 NA
BRANCH  14  16
ATOM     16  C   UNL     1      17.917   2.359  23.535  0.00  0.00    +0.068 A 
ATOM     17  C   UNL     1      17.079   1.777  24.501  0.00  0.00    +0.030 A 
ATOM     18  C   UNL     1      16.815   0.401  24.502  0.00  0.00    +0.030 A 
ATOM     19  C   UNL     1      17.419  -0.366  23.501  0.00  0.00    +0.066 A 
ATOM     20  C   UNL     1      18.254   0.178  22.534  0.00  0.00    +0.021 A 
ATOM     21  C   UNL     1      18.643  -0.921  21.737  0.00  0.00    +0.142 A 
ATOM     22  N   UNL     1      18.107  -2.071  22.152  0.00  0.00    -0.181 NA
ATOM     23  N   UNL     1      17.371  -1.707  23.217  0.00  0.00    -0.277 N 
ATOM     24  H   UNL     1      16.857  -2.424  23.715  0.00  0.00    +0.189 HD
ATOM     25  C   UNL     1      18.514   1.560  22.542  0.00  0.00    +0.039 A 
ENDBRANCH  14  16
ENDBRANCH  10  12
ENDBRANCH   9  10
ENDBRANCH   5   9
ENDBRANCH   4   7
ENDBRANCH   1   4
BRANCH   1  26
ATOM     26  C   UNL     1      18.823   9.001  29.928  0.00  0.00    +0.175 C 
BRANCH  26  27
ATOM     27  C   UNL     1      18.016   8.962  31.234  0.00  0.00    +0.176 C 
ATOM     28  O   UNL     1      18.276  10.197  31.956  0.00  0.00    -0.332 OA
ATOM     29  C   UNL     1      17.504  10.386  33.188  0.00  0.00    +0.277 C 
ATOM     30  C   UNL     1      17.692   9.176  34.136  0.00  0.00    +0.110 C 
ATOM     31  C   UNL     1      17.457   7.838  33.404  0.00  0.00    +0.143 C 
ATOM     32  C   UNL     1      18.308   7.749  32.136  0.00  0.00    +0.133 C 
BRANCH  32  33
ATOM     33  N   UNL     1      18.011   6.508  31.402  0.00  0.00    -0.308 N 
ATOM     34  H   UNL     1      17.107   6.429  30.957  0.00  0.00    +0.149 HD
ATOM     35  C   UNL     1      18.856   5.481  31.287  0.00  0.00    +0.210 C 
ATOM     36  C   UNL     1      20.215   5.623  32.000  0.00  0.00    +0.109 C 
ATOM     37  O   UNL     1      18.586   4.460  30.654  0.00  0.00    -0.276 OA
ENDBRANCH  32  33
BRANCH  29  38
ATOM     38  C   UNL     1      16.004  10.564  32.872  0.00  0.00    +0.414 C 
ATOM     39  O   UNL     1      15.651  11.207  31.884  0.00  0.00    -0.240 OA
ATOM     40  O   UNL     1      15.148  10.066  33.603  0.00  0.00    -0.240 OA
ENDBRANCH  29  38
BRANCH  31  41
ATOM     41  O   UNL     1      17.788   6.751  34.269  0.00  0.00    -0.390 OA
ATOM     42  H   UNL     1      17.044   6.147  34.324  0.00  0.00    +0.210 HD
ENDBRANCH  31  41
BRANCH  29  43
ATOM     43  O   UNL     1      18.006  11.572  33.856  0.00  0.00    -0.343 OA
ATOM     44  C   UNL     1      17.944  11.532  35.304  0.00  0.00    +0.198 C 
ENDBRANCH  29  43
ENDBRANCH  26  27
BRANCH  26  45
ATOM     45  O   UNL     1      20.178   8.572  30.168  0.00  0.00    -0.387 OA
ATOM     46  H   UNL     1      20.294   8.387  31.103  0.00  0.00    +0.210 HD
ENDBRANCH  26  45
ENDBRANCH   1  26
TORSDOF 14
