REMARK VINA RESULT:    -5.405      4.596      6.645
REMARK INTER + INTRA:         -13.423
REMARK INTER:                 -11.033
REMARK INTRA:                  -2.390
REMARK UNBOUND:                -2.172
REMARK  Name = lig_assembled_54.pdb
REMARK  24 active torsions:
REMARK  status: ('A' for Active; 'I' for Inactive)
REMARK    1  A    between atoms: _2  and  _9
REMARK    2  A    between atoms: _4  and  _21
REMARK    3  A    between atoms: _5  and  _14
REMARK    4  A    between atoms: _6  and  _7
REMARK    5  A    between atoms: _6  and  _21
REMARK    6  A    between atoms: _9  and  _10
REMARK    7  A    between atoms: _10  and  _11
REMARK    8  A    between atoms: _11  and  _15
REMARK    9  A    between atoms: _11  and  _16
REMARK   10  A    between atoms: _12  and  _13
REMARK   11  A    between atoms: _12  and  _16
REMARK   12  A    between atoms: _14  and  _15
REMARK   13  A    between atoms: _17  and  _37
REMARK   14  A    between atoms: _19  and  _25
REMARK   15  A    between atoms: _20  and  _24
REMARK   16  A    between atoms: _24  and  _25
REMARK   17  A    between atoms: _27  and  _28
REMARK   18  A    between atoms: _29  and  _30
REMARK   19  A    between atoms: _31  and  _33
REMARK   20  A    between atoms: _33  and  _34
REMARK   21  A    between atoms: _33  and  _35
REMARK   22  A    between atoms: _35  and  _36
REMARK   23  A    between atoms: _35  and  _37
REMARK   24  A    between atoms: _38  and  _40
REMARK                            x       y       z     vdW  Elec       q    Type
REMARK                         _______ _______ _______ _____ _____    ______ ____
ROOT
ATOM      1  C   UNL     1       7.913   2.445  34.174  0.00  0.00    +0.163 C 
ENDROOT
BRANCH   1   2
ATOM      2  O   UNL     1       8.723   2.670  35.340  0.00  0.00    -0.388 OA
ATOM      3  H   UNL     1       8.156   2.798  36.104  0.00  0.00    +0.210 HD
ENDBRANCH   1   2
BRANCH   1   4
ATOM      4  C   UNL     1       7.848   3.708  33.298  0.00  0.00    +0.175 C 
BRANCH   4   5
ATOM      5  C   UNL     1       6.993   4.811  33.938  0.00  0.00    +0.176 C 
ATOM      6  O   UNL     1       7.754   5.387  35.035  0.00  0.00    -0.332 OA
ATOM      7  C   UNL     1       7.134   6.536  35.703  0.00  0.00    +0.277 C 
ATOM      8  C   UNL     1       5.708   6.176  36.187  0.00  0.00    +0.110 C 
ATOM      9  C   UNL     1       4.871   5.531  35.063  0.00  0.00    +0.143 C 
ATOM     10  C   UNL     1       5.611   4.348  34.436  0.00  0.00    +0.133 C 
BRANCH  10  11
ATOM     11  N   UNL     1       4.841   3.797  33.310  0.00  0.00    -0.308 N 
ATOM     12  H   UNL     1       4.755   4.362  32.477  0.00  0.00    +0.149 HD
ATOM     13  C   UNL     1       4.250   2.599  33.317  0.00  0.00    +0.210 C 
ATOM     14  C   UNL     1       4.379   1.774  34.611  0.00  0.00    +0.109 C 
ATOM     15  O   UNL     1       3.624   2.157  32.353  0.00  0.00    -0.276 OA
ENDBRANCH  10  11
BRANCH   7  16
ATOM     16  C   UNL     1       7.064   7.749  34.752  0.00  0.00    +0.414 C 
ATOM     17  O   UNL     1       5.975   8.195  34.394  0.00  0.00    -0.240 OA
ATOM     18  O   UNL     1       8.097   8.281  34.342  0.00  0.00    -0.240 OA
ENDBRANCH   7  16
BRANCH   9  19
ATOM     19  O   UNL     1       3.623   5.078  35.591  0.00  0.00    -0.390 OA
ATOM     20  H   UNL     1       3.709   4.168  35.882  0.00  0.00    +0.210 HD
ENDBRANCH   9  19
BRANCH   7  21
ATOM     21  O   UNL     1       7.940   6.870  36.862  0.00  0.00    -0.343 OA
ATOM     22  C   UNL     1       7.726   6.025  38.020  0.00  0.00    +0.198 C 
ENDBRANCH   7  21
ENDBRANCH   4   5
BRANCH   4  23
ATOM     23  O   UNL     1       7.337   3.379  31.991  0.00  0.00    -0.387 OA
ATOM     24  H   UNL     1       7.400   2.432  31.851  0.00  0.00    +0.210 HD
ENDBRANCH   4  23
ENDBRANCH   1   4
BRANCH   1  25
ATOM     25  C   UNL     1       8.482   1.288  33.359  0.00  0.00    +0.141 C 
BRANCH  25  28
ATOM     26  C   UNL     1       6.914  -0.614  33.200  0.00  0.00    +0.401 C 
ATOM     27  O   UNL     1       7.280  -1.126  34.260  0.00  0.00    -0.226 OA
ATOM     28  N   UNL     1       7.426   0.511  32.700  0.00  0.00    -0.279 N 
ATOM     29  H   UNL     1       7.066   0.848  31.817  0.00  0.00    +0.152 HD
BRANCH  26  30
ATOM     30  O   UNL     1       5.882  -1.250  32.442  0.00  0.00    -0.444 OA
BRANCH  30  31
ATOM     31  C   UNL     1       5.628  -0.496  31.253  0.00  0.00    +0.292 C 
BRANCH  31  33
ATOM     32  N   UNL     1       7.444  -1.666  30.042  0.00  0.00    -0.131 NA
ATOM     33  C   UNL     1       6.150  -1.218  30.076  0.00  0.00    +0.120 A 
ATOM     34  C   UNL     1       5.518  -1.574  28.905  0.00  0.00    +0.137 A 
ATOM     35  N   UNL     1       6.467  -2.269  28.218  0.00  0.00    -0.251 N 
ATOM     36  N   UNL     1       7.625  -2.317  28.900  0.00  0.00    -0.065 NA
BRANCH  35  37
ATOM     37  C   UNL     1       6.334  -2.960  26.951  0.00  0.00    +0.150 C 
BRANCH  37  38
ATOM     38  C   UNL     1       5.964  -2.007  25.825  0.00  0.00    +0.084 C 
BRANCH  38  39
ATOM     39  C   UNL     1       5.870  -2.689  24.455  0.00  0.00    +0.252 C 
BRANCH  39  40
ATOM     40  O   UNL     1       4.714  -2.226  23.752  0.00  0.00    -0.352 OA
BRANCH  40  41
ATOM     41  C   UNL     1       3.642  -1.817  24.598  0.00  0.00    +0.159 C 
ATOM     42  C   UNL     1       3.264  -0.390  24.254  0.00  0.00    +0.034 C 
ENDBRANCH  40  41
ENDBRANCH  39  40
BRANCH  39  43
ATOM     43  O   UNL     1       5.769  -4.101  24.679  0.00  0.00    -0.352 OA
BRANCH  43  44
ATOM     44  C   UNL     1       6.430  -4.864  23.667  0.00  0.00    +0.159 C 
ATOM     45  C   UNL     1       7.906  -4.523  23.673  0.00  0.00    +0.034 C 
ENDBRANCH  43  44
ENDBRANCH  39  43
ENDBRANCH  38  39
ENDBRANCH  37  38
ENDBRANCH  35  37
ENDBRANCH  31  33
ENDBRANCH  30  31
ENDBRANCH  26  30
ENDBRANCH  25  28
ENDBRANCH   1  25
TORSDOF 20
