REMARK VINA RESULT:    -7.272      1.460      3.453
REMARK INTER + INTRA:         -14.587
REMARK INTER:                 -12.608
REMARK INTRA:                  -1.980
REMARK UNBOUND:                -1.575
REMARK  Name = lig_assembled_0.pdb
REMARK  17 active torsions:
REMARK  status: ('A' for Active; 'I' for Inactive)
REMARK    1  A    between atoms: _2  and  _10
REMARK    2  A    between atoms: _5  and  _21
REMARK    3  A    between atoms: _7  and  _8
REMARK    4  A    between atoms: _7  and  _21
REMARK    5  A    between atoms: _11  and  _12
REMARK    6  A    between atoms: _17  and  _37
REMARK    7  A    between atoms: _19  and  _25
REMARK    8  A    between atoms: _20  and  _24
REMARK    9  A    between atoms: _24  and  _25
REMARK   10  A    between atoms: _27  and  _28
REMARK   11  A    between atoms: _29  and  _30
REMARK   12  A    between atoms: _31  and  _33
REMARK   13  A    between atoms: _33  and  _34
REMARK   14  A    between atoms: _33  and  _35
REMARK   15  A    between atoms: _35  and  _36
REMARK   16  A    between atoms: _35  and  _37
REMARK   17  A    between atoms: _38  and  _40
REMARK                            x       y       z     vdW  Elec       q    Type
REMARK                         _______ _______ _______ _____ _____    ______ ____
ROOT
ATOM      1  C   UNL     1       2.984   3.253  33.042  0.00  0.00    +0.163 C 
ENDROOT
BRANCH   1   2
ATOM      2  O   UNL     1       3.496   4.438  32.411  0.00  0.00    -0.388 OA
ATOM      3  H   UNL     1       4.245   4.207  31.855  0.00  0.00    +0.210 HD
ENDBRANCH   1   2
BRANCH   1   4
ATOM      4  C   UNL     1       1.462   3.316  33.113  0.00  0.00    +0.141 C 
BRANCH   4   7
ATOM      5  C   UNL     1       0.686   4.019  30.874  0.00  0.00    +0.401 C 
ATOM      6  O   UNL     1       1.035   5.193  31.018  0.00  0.00    -0.226 OA
ATOM      7  N   UNL     1       0.842   3.076  31.804  0.00  0.00    -0.279 N 
ATOM      8  H   UNL     1       0.514   2.143  31.596  0.00  0.00    +0.152 HD
BRANCH   5   9
ATOM      9  O   UNL     1       0.072   3.623  29.646  0.00  0.00    -0.444 OA
BRANCH   9  10
ATOM     10  C   UNL     1       0.851   2.592  29.032  0.00  0.00    +0.292 C 
BRANCH  10  12
ATOM     11  N   UNL     1       2.544   3.746  27.657  0.00  0.00    -0.131 NA
ATOM     12  C   UNL     1       1.374   3.050  27.731  0.00  0.00    +0.121 A 
ATOM     13  C   UNL     1       0.872   2.875  26.462  0.00  0.00    +0.143 A 
ATOM     14  N   UNL     1       1.728   3.570  25.638  0.00  0.00    -0.219 N 
ATOM     15  N   UNL     1       2.779   4.012  26.382  0.00  0.00    -0.060 NA
BRANCH  14  16
ATOM     16  C   UNL     1       1.716   3.756  24.227  0.00  0.00    +0.079 A 
ATOM     17  C   UNL     1       1.930   2.735  23.278  0.00  0.00    +0.062 A 
ATOM     18  C   UNL     1       1.931   3.070  21.907  0.00  0.00    +0.015 A 
ATOM     19  C   UNL     1       1.741   4.384  21.479  0.00  0.00    +0.001 A 
ATOM     20  C   UNL     1       1.515   5.386  22.412  0.00  0.00    +0.002 A 
ATOM     21  C   UNL     1       1.491   5.075  23.771  0.00  0.00    +0.028 A 
BRANCH  17  22
ATOM     22  C   UNL     1       1.971   1.283  23.610  0.00  0.00    +0.244 C 
ATOM     23  O   UNL     1       0.982   0.570  23.545  0.00  0.00    -0.270 OA
ATOM     24  N   UNL     1       3.182   0.747  23.959  0.00  0.00    -0.325 N 
ATOM     25  H   UNL     1       3.211  -0.251  24.133  0.00  0.00    +0.145 HD
ATOM     26  H   UNL     1       4.046   1.264  24.022  0.00  0.00    +0.145 HD
ENDBRANCH  17  22
ENDBRANCH  14  16
ENDBRANCH  10  12
ENDBRANCH   9  10
ENDBRANCH   5   9
ENDBRANCH   4   7
ENDBRANCH   1   4
BRANCH   1  27
ATOM     27  C   UNL     1       3.558   3.092  34.460  0.00  0.00    +0.175 C 
BRANCH  27  28
ATOM     28  C   UNL     1       5.091   3.194  34.477  0.00  0.00    +0.176 C 
ATOM     29  O   UNL     1       5.449   4.587  34.264  0.00  0.00    -0.332 OA
ATOM     30  C   UNL     1       6.879   4.895  34.354  0.00  0.00    +0.277 C 
ATOM     31  C   UNL     1       7.689   3.993  33.391  0.00  0.00    +0.110 C 
ATOM     32  C   UNL     1       7.319   2.504  33.558  0.00  0.00    +0.143 C 
ATOM     33  C   UNL     1       5.808   2.299  33.449  0.00  0.00    +0.133 C 
BRANCH  33  34
ATOM     34  N   UNL     1       5.460   0.891  33.697  0.00  0.00    -0.308 N 
ATOM     35  H   UNL     1       5.590   0.530  34.632  0.00  0.00    +0.149 HD
ATOM     36  C   UNL     1       4.984   0.058  32.767  0.00  0.00    +0.210 C 
ATOM     37  C   UNL     1       4.821   0.631  31.347  0.00  0.00    +0.109 C 
ATOM     38  O   UNL     1       4.687  -1.113  33.007  0.00  0.00    -0.276 OA
ENDBRANCH  33  34
BRANCH  30  39
ATOM     39  C   UNL     1       7.391   4.698  35.797  0.00  0.00    +0.414 C 
ATOM     40  O   UNL     1       6.603   4.714  36.742  0.00  0.00    -0.240 OA
ATOM     41  O   UNL     1       8.590   4.523  36.015  0.00  0.00    -0.240 OA
ENDBRANCH  30  39
BRANCH  32  42
ATOM     42  O   UNL     1       7.973   1.729  32.552  0.00  0.00    -0.390 OA
ATOM     43  H   UNL     1       7.453   1.746  31.746  0.00  0.00    +0.210 HD
ENDBRANCH  32  42
BRANCH  30  44
ATOM     44  O   UNL     1       7.067   6.277  33.954  0.00  0.00    -0.343 OA
ATOM     45  C   UNL     1       5.995   7.176  34.334  0.00  0.00    +0.198 C 
ENDBRANCH  30  44
ENDBRANCH  27  28
BRANCH  27  46
ATOM     46  O   UNL     1       3.138   1.835  35.026  0.00  0.00    -0.387 OA
ATOM     47  H   UNL     1       2.552   1.999  35.769  0.00  0.00    +0.210 HD
ENDBRANCH  27  46
ENDBRANCH   1  27
TORSDOF 15
