REMARK VINA RESULT:    -6.493      2.016      3.993
REMARK INTER + INTRA:         -15.035
REMARK INTER:                 -12.945
REMARK INTRA:                  -2.090
REMARK UNBOUND:                -2.090
REMARK  Name = lig_assembled_76.pdb
REMARK  21 active torsions:
REMARK  status: ('A' for Active; 'I' for Inactive)
REMARK    1  A    between atoms: _2  and  _9
REMARK    2  A    between atoms: _4  and  _23
REMARK    3  A    between atoms: _6  and  _7
REMARK    4  A    between atoms: _6  and  _23
REMARK    5  A    between atoms: _9  and  _10
REMARK    6  A    between atoms: _10  and  _11
REMARK    7  A    between atoms: _10  and  _18
REMARK    8  A    between atoms: _11  and  _12
REMARK    9  A    between atoms: _12  and  _13
REMARK   10  A    between atoms: _19  and  _39
REMARK   11  A    between atoms: _21  and  _27
REMARK   12  A    between atoms: _22  and  _26
REMARK   13  A    between atoms: _26  and  _27
REMARK   14  A    between atoms: _29  and  _30
REMARK   15  A    between atoms: _31  and  _32
REMARK   16  A    between atoms: _33  and  _35
REMARK   17  A    between atoms: _35  and  _36
REMARK   18  A    between atoms: _35  and  _37
REMARK   19  A    between atoms: _37  and  _38
REMARK   20  A    between atoms: _37  and  _39
REMARK   21  A    between atoms: _40  and  _42
REMARK                            x       y       z     vdW  Elec       q    Type
REMARK                         _______ _______ _______ _____ _____    ______ ____
ROOT
ATOM      1  C   UNL     1       2.458   2.281  34.382  0.00  0.00    +0.141 C 
ENDROOT
BRANCH   1   4
ATOM      2  C   UNL     1       2.099   3.565  32.302  0.00  0.00    +0.401 C 
ATOM      3  O   UNL     1       3.214   4.092  32.323  0.00  0.00    -0.226 OA
ATOM      4  N   UNL     1       1.660   2.712  33.228  0.00  0.00    -0.279 N 
ATOM      5  H   UNL     1       0.726   2.340  33.129  0.00  0.00    +0.152 HD
BRANCH   2   6
ATOM      6  O   UNL     1       1.204   3.878  31.232  0.00  0.00    -0.444 OA
BRANCH   6   7
ATOM      7  C   UNL     1       1.576   3.139  30.066  0.00  0.00    +0.292 C 
BRANCH   7   9
ATOM      8  N   UNL     1      -0.448   4.218  29.125  0.00  0.00    -0.131 NA
ATOM      9  C   UNL     1       0.688   3.472  28.940  0.00  0.00    +0.120 A 
ATOM     10  C   UNL     1       0.791   3.129  27.610  0.00  0.00    +0.137 A 
ATOM     11  N   UNL     1      -0.305   3.700  27.042  0.00  0.00    -0.249 N 
ATOM     12  N   UNL     1      -1.054   4.344  27.951  0.00  0.00    -0.065 NA
BRANCH  11  13
ATOM     13  C   UNL     1      -0.768   3.561  25.679  0.00  0.00    +0.176 C 
BRANCH  13  14
ATOM     14  C   UNL     1      -0.579   4.836  24.851  0.00  0.00    +0.136 C 
BRANCH  14  15
ATOM     15  O   UNL     1      -0.879   5.991  25.647  0.00  0.00    -0.390 OA
ATOM     16  H   UNL     1      -1.839   6.028  25.806  0.00  0.00    +0.210 HD
ENDBRANCH  14  15
BRANCH  14  17
ATOM     17  C   UNL     1       0.861   4.994  24.337  0.00  0.00    +0.038 C 
BRANCH  17  18
ATOM     18  C   UNL     1       1.540   3.664  24.011  0.00  0.00    +0.038 C 
BRANCH  18  19
ATOM     19  C   UNL     1       1.642   3.428  22.526  0.00  0.00    -0.047 A 
ATOM     20  C   UNL     1       1.352   4.462  21.624  0.00  0.00    +0.003 A 
ATOM     21  C   UNL     1       1.463   4.252  20.249  0.00  0.00    +0.000 A 
ATOM     22  C   UNL     1       1.859   3.008  19.763  0.00  0.00    +0.000 A 
ATOM     23  C   UNL     1       2.139   1.971  20.653  0.00  0.00    +0.000 A 
ATOM     24  C   UNL     1       2.027   2.178  22.028  0.00  0.00    +0.003 A 
ENDBRANCH  18  19
ENDBRANCH  17  18
ENDBRANCH  14  17
ENDBRANCH  13  14
ENDBRANCH  11  13
ENDBRANCH   7   9
ENDBRANCH   6   7
ENDBRANCH   2   6
ENDBRANCH   1   4
BRANCH   1  25
ATOM     25  C   UNL     1       2.708   3.426  35.359  0.00  0.00    +0.163 C 
BRANCH  25  26
ATOM     26  O   UNL     1       1.830   3.307  36.491  0.00  0.00    -0.388 OA
ATOM     27  H   UNL     1       1.052   3.851  36.351  0.00  0.00    +0.210 HD
ENDBRANCH  25  26
BRANCH  25  28
ATOM     28  C   UNL     1       4.181   3.411  35.802  0.00  0.00    +0.175 C 
BRANCH  28  29
ATOM     29  C   UNL     1       5.124   3.003  34.660  0.00  0.00    +0.176 C 
ATOM     30  O   UNL     1       5.823   1.794  35.068  0.00  0.00    -0.332 OA
ATOM     31  C   UNL     1       6.695   1.194  34.054  0.00  0.00    +0.277 C 
ATOM     32  C   UNL     1       7.714   2.237  33.531  0.00  0.00    +0.110 C 
ATOM     33  C   UNL     1       7.020   3.551  33.115  0.00  0.00    +0.143 C 
ATOM     34  C   UNL     1       6.136   4.085  34.242  0.00  0.00    +0.133 C 
BRANCH  34  35
ATOM     35  N   UNL     1       5.414   5.290  33.803  0.00  0.00    -0.308 N 
ATOM     36  H   UNL     1       4.729   5.187  33.067  0.00  0.00    +0.149 HD
ATOM     37  C   UNL     1       5.603   6.509  34.314  0.00  0.00    +0.210 C 
ATOM     38  C   UNL     1       6.671   6.637  35.417  0.00  0.00    +0.109 C 
ATOM     39  O   UNL     1       4.973   7.498  33.937  0.00  0.00    -0.276 OA
ENDBRANCH  34  35
BRANCH  31  40
ATOM     40  C   UNL     1       5.866   0.646  32.874  0.00  0.00    +0.414 C 
ATOM     41  O   UNL     1       4.767   0.130  33.075  0.00  0.00    -0.240 OA
ATOM     42  O   UNL     1       6.296   0.719  31.722  0.00  0.00    -0.240 OA
ENDBRANCH  31  40
BRANCH  33  43
ATOM     43  O   UNL     1       8.005   4.531  32.784  0.00  0.00    -0.390 OA
ATOM     44  H   UNL     1       8.524   4.225  32.037  0.00  0.00    +0.210 HD
ENDBRANCH  33  43
BRANCH  31  45
ATOM     45  O   UNL     1       7.431   0.111  34.679  0.00  0.00    -0.343 OA
ATOM     46  C   UNL     1       8.573   0.523  35.471  0.00  0.00    +0.198 C 
ENDBRANCH  31  45
ENDBRANCH  28  29
BRANCH  28  47
ATOM     47  O   UNL     1       4.353   2.527  36.928  0.00  0.00    -0.387 OA
ATOM     48  H   UNL     1       3.501   2.162  37.181  0.00  0.00    +0.210 HD
ENDBRANCH  28  47
ENDBRANCH  25  28
ENDBRANCH   1  25
TORSDOF 19
