REMARK VINA RESULT:    -7.125     14.462     16.537
REMARK INTER + INTRA:         -14.561
REMARK INTER:                 -11.998
REMARK INTRA:                  -2.563
REMARK UNBOUND:                -1.813
REMARK  Name = lig_assembled_41.pdb
REMARK  18 active torsions:
REMARK  status: ('A' for Active; 'I' for Inactive)
REMARK    1  A    between atoms: _2  and  _9
REMARK    2  A    between atoms: _4  and  _21
REMARK    3  A    between atoms: _6  and  _7
REMARK    4  A    between atoms: _6  and  _21
REMARK    5  A    between atoms: _10  and  _11
REMARK    6  A    between atoms: _11  and  _12
REMARK    7  A    between atoms: _17  and  _37
REMARK    8  A    between atoms: _19  and  _25
REMARK    9  A    between atoms: _20  and  _24
REMARK   10  A    between atoms: _24  and  _25
REMARK   11  A    between atoms: _27  and  _28
REMARK   12  A    between atoms: _29  and  _30
REMARK   13  A    between atoms: _31  and  _33
REMARK   14  A    between atoms: _33  and  _34
REMARK   15  A    between atoms: _33  and  _35
REMARK   16  A    between atoms: _35  and  _36
REMARK   17  A    between atoms: _35  and  _37
REMARK   18  A    between atoms: _38  and  _40
REMARK                            x       y       z     vdW  Elec       q    Type
REMARK                         _______ _______ _______ _____ _____    ______ ____
ROOT
ATOM      1  C   UNL     1      17.662   4.019  22.535  0.00  0.00    +0.163 C 
ENDROOT
BRANCH   1   2
ATOM      2  O   UNL     1      16.948   5.179  22.991  0.00  0.00    -0.388 OA
ATOM      3  H   UNL     1      16.103   4.912  23.361  0.00  0.00    +0.210 HD
ENDBRANCH   1   2
BRANCH   1   4
ATOM      4  C   UNL     1      16.728   3.109  21.744  0.00  0.00    +0.141 C 
BRANCH   4   7
ATOM      5  C   UNL     1      17.608   1.201  20.444  0.00  0.00    +0.401 C 
ATOM      6  O   UNL     1      17.493   1.768  19.355  0.00  0.00    -0.226 OA
ATOM      7  N   UNL     1      17.269   1.751  21.611  0.00  0.00    -0.279 N 
ATOM      8  H   UNL     1      17.392   1.203  22.450  0.00  0.00    +0.152 HD
BRANCH   5   9
ATOM      9  O   UNL     1      18.131  -0.130  20.483  0.00  0.00    -0.444 OA
BRANCH   9  10
ATOM     10  C   UNL     1      18.957  -0.285  21.639  0.00  0.00    +0.292 C 
BRANCH  10  12
ATOM     11  N   UNL     1      19.039  -2.646  22.350  0.00  0.00    -0.131 NA
ATOM     12  C   UNL     1      18.479  -1.409  22.465  0.00  0.00    +0.121 A 
ATOM     13  C   UNL     1      17.498  -1.448  23.431  0.00  0.00    +0.143 A 
ATOM     14  N   UNL     1      17.417  -2.769  23.809  0.00  0.00    -0.219 N 
ATOM     15  N   UNL     1      18.429  -3.453  23.205  0.00  0.00    -0.060 NA
BRANCH  14  16
ATOM     16  C   UNL     1      16.567  -3.417  24.749  0.00  0.00    +0.077 A 
ATOM     17  C   UNL     1      15.686  -4.476  24.441  0.00  0.00    +0.043 A 
ATOM     18  C   UNL     1      14.862  -4.993  25.462  0.00  0.00    +0.013 A 
ATOM     19  C   UNL     1      14.899  -4.473  26.758  0.00  0.00    +0.001 A 
ATOM     20  C   UNL     1      15.783  -3.449  27.068  0.00  0.00    +0.002 A 
ATOM     21  C   UNL     1      16.617  -2.934  26.077  0.00  0.00    +0.028 A 
BRANCH  17  22
ATOM     22  C   UNL     1      15.712  -5.232  23.152  0.00  0.00    +0.162 C 
ATOM     23  O   UNL     1      16.388  -6.256  23.069  0.00  0.00    -0.292 OA
ATOM     24  C   UNL     1      14.915  -4.745  21.967  0.00  0.00    +0.091 C 
ENDBRANCH  17  22
ENDBRANCH  14  16
ENDBRANCH  10  12
ENDBRANCH   9  10
ENDBRANCH   5   9
ENDBRANCH   4   7
ENDBRANCH   1   4
BRANCH   1  25
ATOM     25  C   UNL     1      18.257   3.238  23.720  0.00  0.00    +0.175 C 
BRANCH  25  26
ATOM     26  C   UNL     1      18.334   4.092  24.994  0.00  0.00    +0.176 C 
ATOM     27  O   UNL     1      19.585   4.833  24.961  0.00  0.00    -0.332 OA
ATOM     28  C   UNL     1      19.785   5.789  26.054  0.00  0.00    +0.277 C 
ATOM     29  C   UNL     1      19.631   5.084  27.424  0.00  0.00    +0.110 C 
ATOM     30  C   UNL     1      18.330   4.257  27.496  0.00  0.00    +0.143 C 
ATOM     31  C   UNL     1      18.223   3.299  26.310  0.00  0.00    +0.133 C 
BRANCH  31  32
ATOM     32  N   UNL     1      16.940   2.579  26.343  0.00  0.00    -0.308 N 
ATOM     33  H   UNL     1      16.092   3.123  26.263  0.00  0.00    +0.149 HD
ATOM     34  C   UNL     1      16.822   1.255  26.471  0.00  0.00    +0.210 C 
ATOM     35  C   UNL     1      18.132   0.457  26.617  0.00  0.00    +0.109 C 
ATOM     36  O   UNL     1      15.734   0.678  26.481  0.00  0.00    -0.276 OA
ENDBRANCH  31  32
BRANCH  28  37
ATOM     37  C   UNL     1      18.776   6.951  25.956  0.00  0.00    +0.414 C 
ATOM     38  O   UNL     1      18.025   7.041  24.985  0.00  0.00    -0.240 OA
ATOM     39  O   UNL     1      18.712   7.799  26.847  0.00  0.00    -0.240 OA
ENDBRANCH  28  37
BRANCH  30  40
ATOM     40  O   UNL     1      18.303   3.507  28.711  0.00  0.00    -0.390 OA
ATOM     41  H   UNL     1      19.102   2.979  28.780  0.00  0.00    +0.210 HD
ENDBRANCH  30  40
BRANCH  28  42
ATOM     42  O   UNL     1      21.137   6.306  25.955  0.00  0.00    -0.343 OA
ATOM     43  C   UNL     1      22.070   5.451  25.247  0.00  0.00    +0.198 C 
ENDBRANCH  28  42
ENDBRANCH  25  26
BRANCH  25  44
ATOM     44  O   UNL     1      19.564   2.736  23.378  0.00  0.00    -0.387 OA
ATOM     45  H   UNL     1      20.235   3.342  23.701  0.00  0.00    +0.210 HD
ENDBRANCH  25  44
ENDBRANCH   1  25
TORSDOF 15
