REMARK VINA RESULT:    -5.960      4.098      8.729
REMARK INTER + INTRA:         -12.921
REMARK INTER:                 -10.692
REMARK INTRA:                  -2.228
REMARK UNBOUND:                -2.083
REMARK  Name = lig_assembled_35.pdb
REMARK  19 active torsions:
REMARK  status: ('A' for Active; 'I' for Inactive)
REMARK    1  A    between atoms: _2  and  _9
REMARK    2  A    between atoms: _4  and  _17
REMARK    3  A    between atoms: _5  and  _9
REMARK    4  A    between atoms: _5  and  _11
REMARK    5  A    between atoms: _6  and  _7
REMARK    6  A    between atoms: _6  and  _17
REMARK    7  A    between atoms: _9  and  _10
REMARK    8  A    between atoms: _13  and  _33
REMARK    9  A    between atoms: _15  and  _21
REMARK   10  A    between atoms: _16  and  _20
REMARK   11  A    between atoms: _20  and  _21
REMARK   12  A    between atoms: _23  and  _24
REMARK   13  A    between atoms: _25  and  _26
REMARK   14  A    between atoms: _27  and  _29
REMARK   15  A    between atoms: _29  and  _30
REMARK   16  A    between atoms: _29  and  _31
REMARK   17  A    between atoms: _31  and  _32
REMARK   18  A    between atoms: _31  and  _33
REMARK   19  A    between atoms: _34  and  _36
REMARK                            x       y       z     vdW  Elec       q    Type
REMARK                         _______ _______ _______ _____ _____    ______ ____
ROOT
ATOM      1  C   UNL     1      16.960   2.480  22.947  0.00  0.00    +0.163 C 
ENDROOT
BRANCH   1   2
ATOM      2  O   UNL     1      17.536   1.603  21.966  0.00  0.00    -0.388 OA
ATOM      3  H   UNL     1      18.381   1.955  21.678  0.00  0.00    +0.210 HD
ENDBRANCH   1   2
BRANCH   1   4
ATOM      4  C   UNL     1      17.364   2.056  24.370  0.00  0.00    +0.175 C 
BRANCH   4   5
ATOM      5  C   UNL     1      17.825   0.592  24.427  0.00  0.00    +0.176 C 
ATOM      6  O   UNL     1      16.681  -0.250  24.117  0.00  0.00    -0.332 OA
ATOM      7  C   UNL     1      16.958  -1.686  24.020  0.00  0.00    +0.277 C 
ATOM      8  C   UNL     1      17.646  -2.192  25.312  0.00  0.00    +0.110 C 
ATOM      9  C   UNL     1      18.850  -1.309  25.700  0.00  0.00    +0.143 C 
ATOM     10  C   UNL     1      18.450   0.165  25.769  0.00  0.00    +0.133 C 
BRANCH  10  11
ATOM     11  N   UNL     1      19.624   1.005  26.054  0.00  0.00    -0.308 N 
ATOM     12  H   UNL     1      20.414   0.940  25.427  0.00  0.00    +0.149 HD
ATOM     13  C   UNL     1      19.713   1.849  27.086  0.00  0.00    +0.210 C 
ATOM     14  C   UNL     1      18.502   1.906  28.036  0.00  0.00    +0.109 C 
ATOM     15  O   UNL     1      20.703   2.551  27.292  0.00  0.00    -0.276 OA
ENDBRANCH  10  11
BRANCH   7  16
ATOM     16  C   UNL     1      17.859  -1.989  22.805  0.00  0.00    +0.414 C 
ATOM     17  O   UNL     1      18.003  -1.151  21.915  0.00  0.00    -0.240 OA
ATOM     18  O   UNL     1      18.442  -3.070  22.713  0.00  0.00    -0.240 OA
ENDBRANCH   7  16
BRANCH   7  19
ATOM     19  O   UNL     1      15.692  -2.379  23.874  0.00  0.00    -0.343 OA
ATOM     20  C   UNL     1      15.411  -3.364  24.900  0.00  0.00    +0.198 C 
ENDBRANCH   7  19
BRANCH   9  21
ATOM     21  O   UNL     1      19.358  -1.718  26.971  0.00  0.00    -0.390 OA
ATOM     22  H   UNL     1      19.555  -0.943  27.502  0.00  0.00    +0.210 HD
ENDBRANCH   9  21
ENDBRANCH   4   5
BRANCH   4  23
ATOM     23  O   UNL     1      16.267   2.267  25.282  0.00  0.00    -0.387 OA
ATOM     24  H   UNL     1      15.489   1.806  24.959  0.00  0.00    +0.210 HD
ENDBRANCH   4  23
ENDBRANCH   1   4
BRANCH   1  25
ATOM     25  C   UNL     1      17.413   3.914  22.695  0.00  0.00    +0.141 C 
BRANCH  25  28
ATOM     26  C   UNL     1      18.655   5.690  23.883  0.00  0.00    +0.401 C 
ATOM     27  O   UNL     1      18.364   6.569  23.069  0.00  0.00    -0.226 OA
ATOM     28  N   UNL     1      18.259   4.420  23.783  0.00  0.00    -0.279 N 
ATOM     29  H   UNL     1      18.558   3.770  24.497  0.00  0.00    +0.152 HD
BRANCH  26  30
ATOM     30  O   UNL     1      19.470   6.028  25.009  0.00  0.00    -0.444 OA
BRANCH  30  31
ATOM     31  C   UNL     1      18.840   5.573  26.209  0.00  0.00    +0.292 C 
BRANCH  31  33
ATOM     32  N   UNL     1      18.808   6.248  28.590  0.00  0.00    -0.131 NA
ATOM     33  C   UNL     1      18.975   6.586  27.274  0.00  0.00    +0.120 A 
ATOM     34  C   UNL     1      19.258   7.931  27.187  0.00  0.00    +0.138 A 
ATOM     35  N   UNL     1      19.265   8.350  28.486  0.00  0.00    -0.238 N 
ATOM     36  N   UNL     1      18.973   7.340  29.322  0.00  0.00    -0.065 NA
BRANCH  35  37
ATOM     37  C   UNL     1      19.502   9.673  29.031  0.00  0.00    +0.214 C 
ATOM     38  C   UNL     1      20.849  10.221  28.568  0.00  0.00    +0.045 C 
BRANCH  37  39
ATOM     39  C   UNL     1      18.361  10.617  28.711  0.00  0.00    +0.329 C 
ATOM     40  O   UNL     1      18.269  11.265  27.677  0.00  0.00    -0.249 OA
BRANCH  39  41
ATOM     41  O   UNL     1      17.430  10.723  29.691  0.00  0.00    -0.479 OA
ATOM     42  H   UNL     1      16.641  10.152  29.592  0.00  0.00    +0.295 HD
ENDBRANCH  39  41
ENDBRANCH  37  39
ENDBRANCH  35  37
ENDBRANCH  31  33
ENDBRANCH  30  31
ENDBRANCH  26  30
ENDBRANCH  25  28
ENDBRANCH   1  25
TORSDOF 16
