REMARK VINA RESULT:    -6.003      9.515     12.365
REMARK INTER + INTRA:         -14.234
REMARK INTER:                 -11.374
REMARK INTRA:                  -2.860
REMARK UNBOUND:                -2.615
REMARK  Name = lig_assembled_83.pdb
REMARK  20 active torsions:
REMARK  status: ('A' for Active; 'I' for Inactive)
REMARK    1  A    between atoms: _2  and  _12
REMARK    2  A    between atoms: _3  and  _14
REMARK    3  A    between atoms: _7  and  _24
REMARK    4  A    between atoms: _9  and  _10
REMARK    5  A    between atoms: _9  and  _24
REMARK    6  A    between atoms: _12  and  _13
REMARK    7  A    between atoms: _13  and  _14
REMARK    8  A    between atoms: _13  and  _18
REMARK    9  A    between atoms: _20  and  _40
REMARK   10  A    between atoms: _22  and  _28
REMARK   11  A    between atoms: _23  and  _27
REMARK   12  A    between atoms: _27  and  _28
REMARK   13  A    between atoms: _30  and  _31
REMARK   14  A    between atoms: _32  and  _33
REMARK   15  A    between atoms: _34  and  _36
REMARK   16  A    between atoms: _36  and  _37
REMARK   17  A    between atoms: _36  and  _38
REMARK   18  A    between atoms: _38  and  _39
REMARK   19  A    between atoms: _38  and  _40
REMARK   20  A    between atoms: _41  and  _43
REMARK                            x       y       z     vdW  Elec       q    Type
REMARK                         _______ _______ _______ _____ _____    ______ ____
ROOT
ATOM      1  C   UNL     1       8.004   4.038  35.508  0.00  0.00    +0.141 C 
ENDROOT
BRANCH   1   4
ATOM      2  C   UNL     1       9.816   4.738  37.036  0.00  0.00    +0.401 C 
ATOM      3  O   UNL     1       9.514   5.933  36.998  0.00  0.00    -0.226 OA
ATOM      4  N   UNL     1       9.168   3.784  36.366  0.00  0.00    -0.279 N 
ATOM      5  H   UNL     1       9.497   2.832  36.453  0.00  0.00    +0.152 HD
BRANCH   2   6
ATOM      6  O   UNL     1      10.927   4.327  37.837  0.00  0.00    -0.444 OA
BRANCH   6   7
ATOM      7  C   UNL     1      11.492   3.131  37.294  0.00  0.00    +0.292 C 
BRANCH   7   9
ATOM      8  N   UNL     1      12.326   3.286  34.961  0.00  0.00    -0.131 NA
ATOM      9  C   UNL     1      12.536   3.456  36.305  0.00  0.00    +0.120 A 
ATOM     10  C   UNL     1      13.807   3.945  36.501  0.00  0.00    +0.137 A 
ATOM     11  N   UNL     1      14.309   4.066  35.242  0.00  0.00    -0.249 N 
ATOM     12  N   UNL     1      13.425   3.659  34.316  0.00  0.00    -0.065 NA
BRANCH  11  13
ATOM     13  C   UNL     1      15.627   4.521  34.853  0.00  0.00    +0.178 C 
BRANCH  13  14
ATOM     14  C   UNL     1      15.575   5.873  34.135  0.00  0.00    +0.156 C 
BRANCH  14  15
ATOM     15  O   UNL     1      14.558   6.695  34.718  0.00  0.00    -0.388 OA
ATOM     16  H   UNL     1      14.417   7.489  34.164  0.00  0.00    +0.210 HD
ENDBRANCH  14  15
BRANCH  14  17
ATOM     17  C   UNL     1      16.939   6.577  34.214  0.00  0.00    +0.162 C 
BRANCH  17  18
ATOM     18  N   UNL     1      17.336   7.170  32.947  0.00  0.00    -0.269 N 
ATOM     19  C   UNL     1      18.153   6.538  32.037  0.00  0.00    +0.113 A 
ATOM     20  C   UNL     1      18.260   7.404  30.973  0.00  0.00    +0.137 A 
ATOM     21  N   UNL     1      17.561   8.555  31.212  0.00  0.00    -0.172 NA
ATOM     22  C   UNL     1      17.010   8.388  32.400  0.00  0.00    +0.450 A 
ATOM     23  N   UNL     1      16.168   9.391  33.013  0.00  0.00    +0.120 N 
ATOM     24  O   UNL     1      15.695   9.139  34.133  0.00  0.00    +0.045 OA
ATOM     25  O   UNL     1      15.985  10.442  32.388  0.00  0.00    -0.573 OA
ENDBRANCH  17  18
ENDBRANCH  14  17
ENDBRANCH  13  14
ENDBRANCH  11  13
ENDBRANCH   7   9
ENDBRANCH   6   7
ENDBRANCH   2   6
ENDBRANCH   1   4
BRANCH   1  26
ATOM     26  C   UNL     1       8.324   3.813  34.034  0.00  0.00    +0.163 C 
BRANCH  26  27
ATOM     27  O   UNL     1       9.331   2.797  33.899  0.00  0.00    -0.388 OA
ATOM     28  H   UNL     1       9.706   2.833  33.016  0.00  0.00    +0.210 HD
ENDBRANCH  26  27
BRANCH  26  29
ATOM     29  C   UNL     1       7.040   3.419  33.284  0.00  0.00    +0.175 C 
BRANCH  29  30
ATOM     30  C   UNL     1       6.670   1.945  33.507  0.00  0.00    +0.176 C 
ATOM     31  O   UNL     1       7.454   1.142  32.581  0.00  0.00    -0.332 OA
ATOM     32  C   UNL     1       7.310  -0.310  32.722  0.00  0.00    +0.277 C 
ATOM     33  C   UNL     1       5.818  -0.717  32.635  0.00  0.00    +0.110 C 
ATOM     34  C   UNL     1       4.940   0.132  33.579  0.00  0.00    +0.143 C 
ATOM     35  C   UNL     1       5.172   1.626  33.349  0.00  0.00    +0.133 C 
BRANCH  35  36
ATOM     36  N   UNL     1       4.396   2.422  34.312  0.00  0.00    -0.308 N 
ATOM     37  H   UNL     1       4.513   2.218  35.295  0.00  0.00    +0.149 HD
ATOM     38  C   UNL     1       3.547   3.396  33.973  0.00  0.00    +0.210 C 
ATOM     39  C   UNL     1       3.372   3.664  32.467  0.00  0.00    +0.109 C 
ATOM     40  O   UNL     1       2.921   4.056  34.803  0.00  0.00    -0.276 OA
ENDBRANCH  35  36
BRANCH  32  41
ATOM     41  C   UNL     1       7.897  -0.790  34.066  0.00  0.00    +0.414 C 
ATOM     42  O   UNL     1       8.777  -0.137  34.626  0.00  0.00    -0.240 OA
ATOM     43  O   UNL     1       7.492  -1.828  34.589  0.00  0.00    -0.240 OA
ENDBRANCH  32  41
BRANCH  32  44
ATOM     44  O   UNL     1       8.021  -0.940  31.626  0.00  0.00    -0.343 OA
ATOM     45  C   UNL     1       7.213  -1.809  30.791  0.00  0.00    +0.198 C 
ENDBRANCH  32  44
BRANCH  34  46
ATOM     46  O   UNL     1       3.562  -0.170  33.357  0.00  0.00    -0.390 OA
ATOM     47  H   UNL     1       3.262   0.271  32.559  0.00  0.00    +0.210 HD
ENDBRANCH  34  46
ENDBRANCH  29  30
BRANCH  29  48
ATOM     48  O   UNL     1       7.186   3.687  31.875  0.00  0.00    -0.387 OA
ATOM     49  H   UNL     1       8.029   3.343  31.569  0.00  0.00    +0.210 HD
ENDBRANCH  29  48
ENDBRANCH  26  29
ENDBRANCH   1  26
TORSDOF 18
