REMARK VINA RESULT:    -6.145      5.243      6.638
REMARK INTER + INTRA:         -12.272
REMARK INTER:                 -10.636
REMARK INTRA:                  -1.636
REMARK UNBOUND:                -1.636
REMARK  Name = lig_assembled_52.pdb
REMARK  16 active torsions:
REMARK  status: ('A' for Active; 'I' for Inactive)
REMARK    1  A    between atoms: _2  and  _10
REMARK    2  A    between atoms: _5  and  _18
REMARK    3  A    between atoms: _7  and  _8
REMARK    4  A    between atoms: _7  and  _18
REMARK    5  A    between atoms: _14  and  _34
REMARK    6  A    between atoms: _16  and  _22
REMARK    7  A    between atoms: _17  and  _21
REMARK    8  A    between atoms: _21  and  _22
REMARK    9  A    between atoms: _24  and  _25
REMARK   10  A    between atoms: _26  and  _27
REMARK   11  A    between atoms: _28  and  _30
REMARK   12  A    between atoms: _30  and  _31
REMARK   13  A    between atoms: _30  and  _32
REMARK   14  A    between atoms: _32  and  _33
REMARK   15  A    between atoms: _32  and  _34
REMARK   16  A    between atoms: _35  and  _37
REMARK                            x       y       z     vdW  Elec       q    Type
REMARK                         _______ _______ _______ _____ _____    ______ ____
ROOT
ATOM      1  C   UNL     1       3.600   3.666  32.444  0.00  0.00    +0.163 C 
ENDROOT
BRANCH   1   2
ATOM      2  O   UNL     1       2.720   3.938  33.546  0.00  0.00    -0.388 OA
ATOM      3  H   UNL     1       2.721   3.190  34.149  0.00  0.00    +0.210 HD
ENDBRANCH   1   2
BRANCH   1   4
ATOM      4  C   UNL     1       2.923   2.724  31.454  0.00  0.00    +0.141 C 
BRANCH   4   7
ATOM      5  C   UNL     1       2.049   2.794  29.144  0.00  0.00    +0.401 C 
ATOM      6  O   UNL     1       1.910   1.572  29.059  0.00  0.00    -0.226 OA
ATOM      7  N   UNL     1       2.521   3.417  30.224  0.00  0.00    -0.279 N 
ATOM      8  H   UNL     1       2.608   4.424  30.195  0.00  0.00    +0.152 HD
BRANCH   5   9
ATOM      9  O   UNL     1       1.693   3.613  28.027  0.00  0.00    -0.444 OA
BRANCH   9  10
ATOM     10  C   UNL     1       0.868   2.864  27.130  0.00  0.00    +0.292 C 
BRANCH  10  12
ATOM     11  N   UNL     1       1.209   4.794  25.620  0.00  0.00    -0.131 NA
ATOM     12  C   UNL     1       0.879   3.480  25.790  0.00  0.00    +0.121 A 
ATOM     13  C   UNL     1       0.599   2.927  24.562  0.00  0.00    +0.143 A 
ATOM     14  N   UNL     1       0.791   3.946  23.659  0.00  0.00    -0.218 N 
ATOM     15  N   UNL     1       1.150   5.070  24.325  0.00  0.00    -0.060 NA
BRANCH  14  16
ATOM     16  C   UNL     1       0.675   3.913  22.253  0.00  0.00    +0.085 A 
ATOM     17  C   UNL     1      -0.559   3.762  21.615  0.00  0.00    +0.031 A 
ATOM     18  C   UNL     1      -0.605   3.716  20.223  0.00  0.00    +0.022 A 
ATOM     19  C   UNL     1       0.582   3.825  19.519  0.00  0.00    +0.111 A 
ATOM     20  N   UNL     1       1.789   3.980  20.106  0.00  0.00    -0.261 NA
ATOM     21  C   UNL     1       1.812   4.021  21.460  0.00  0.00    +0.138 A 
ENDBRANCH  14  16
ENDBRANCH  10  12
ENDBRANCH   9  10
ENDBRANCH   5   9
ENDBRANCH   4   7
ENDBRANCH   1   4
BRANCH   1  22
ATOM     22  C   UNL     1       4.917   3.039  32.933  0.00  0.00    +0.175 C 
BRANCH  22  23
ATOM     23  C   UNL     1       5.470   3.751  34.176  0.00  0.00    +0.176 C 
ATOM     24  O   UNL     1       5.491   5.179  33.901  0.00  0.00    -0.332 OA
ATOM     25  C   UNL     1       5.894   6.034  35.021  0.00  0.00    +0.277 C 
ATOM     26  C   UNL     1       7.269   5.588  35.575  0.00  0.00    +0.110 C 
ATOM     27  C   UNL     1       7.306   4.071  35.853  0.00  0.00    +0.143 C 
ATOM     28  C   UNL     1       6.865   3.277  34.623  0.00  0.00    +0.133 C 
BRANCH  28  29
ATOM     29  N   UNL     1       6.821   1.838  34.927  0.00  0.00    -0.308 N 
ATOM     30  H   UNL     1       6.154   1.522  35.617  0.00  0.00    +0.149 HD
ATOM     31  C   UNL     1       7.605   0.922  34.351  0.00  0.00    +0.210 C 
ATOM     32  C   UNL     1       8.629   1.439  33.323  0.00  0.00    +0.109 C 
ATOM     33  O   UNL     1       7.535  -0.279  34.615  0.00  0.00    -0.276 OA
ENDBRANCH  28  29
BRANCH  25  34
ATOM     34  C   UNL     1       4.843   5.988  36.150  0.00  0.00    +0.414 C 
ATOM     35  O   UNL     1       5.158   6.284  37.302  0.00  0.00    -0.240 OA
ATOM     36  O   UNL     1       3.682   5.655  35.909  0.00  0.00    -0.240 OA
ENDBRANCH  25  34
BRANCH  27  37
ATOM     37  O   UNL     1       8.630   3.679  36.216  0.00  0.00    -0.390 OA
ATOM     38  H   UNL     1       8.591   2.916  36.798  0.00  0.00    +0.210 HD
ENDBRANCH  27  37
BRANCH  25  39
ATOM     39  O   UNL     1       6.019   7.392  34.526  0.00  0.00    -0.343 OA
ATOM     40  C   UNL     1       7.358   7.946  34.589  0.00  0.00    +0.198 C 
ENDBRANCH  25  39
ENDBRANCH  22  23
BRANCH  22  41
ATOM     41  O   UNL     1       5.896   3.052  31.875  0.00  0.00    -0.387 OA
ATOM     42  H   UNL     1       6.351   3.898  31.870  0.00  0.00    +0.210 HD
ENDBRANCH  22  41
ENDBRANCH   1  22
TORSDOF 14
