REMARK VINA RESULT:    -6.219      4.628      7.379
REMARK INTER + INTRA:         -13.723
REMARK INTER:                 -11.734
REMARK INTRA:                  -1.989
REMARK UNBOUND:                -2.597
REMARK  Name = lig_assembled_89.pdb
REMARK  19 active torsions:
REMARK  status: ('A' for Active; 'I' for Inactive)
REMARK    1  A    between atoms: _2  and  _12
REMARK    2  A    between atoms: _5  and  _20
REMARK    3  A    between atoms: _7  and  _29
REMARK    4  A    between atoms: _9  and  _10
REMARK    5  A    between atoms: _9  and  _29
REMARK    6  A    between atoms: _20  and  _21
REMARK    7  A    between atoms: _20  and  _22
REMARK    8  A    between atoms: _25  and  _45
REMARK    9  A    between atoms: _27  and  _33
REMARK   10  A    between atoms: _28  and  _32
REMARK   11  A    between atoms: _32  and  _33
REMARK   12  A    between atoms: _35  and  _36
REMARK   13  A    between atoms: _37  and  _38
REMARK   14  A    between atoms: _39  and  _41
REMARK   15  A    between atoms: _41  and  _42
REMARK   16  A    between atoms: _41  and  _43
REMARK   17  A    between atoms: _43  and  _44
REMARK   18  A    between atoms: _43  and  _45
REMARK   19  A    between atoms: _46  and  _48
REMARK                            x       y       z     vdW  Elec       q    Type
REMARK                         _______ _______ _______ _____ _____    ______ ____
ROOT
ATOM      1  C   UNL     1       2.214   0.854  29.754  0.00  0.00    +0.401 C 
ATOM      2  O   UNL     1       1.642   0.214  30.639  0.00  0.00    -0.226 OA
ATOM      3  N   UNL     1       2.587   0.337  28.582  0.00  0.00    -0.279 N 
ATOM      4  H   UNL     1       3.041   0.945  27.916  0.00  0.00    +0.152 HD
ENDROOT
BRANCH   3   5
ATOM      5  C   UNL     1       2.373  -1.066  28.207  0.00  0.00    +0.141 C 
BRANCH   5   6
ATOM      6  C   UNL     1       3.535  -1.619  27.390  0.00  0.00    +0.163 C 
BRANCH   6   7
ATOM      7  O   UNL     1       3.708  -0.843  26.193  0.00  0.00    -0.388 OA
ATOM      8  H   UNL     1       3.693   0.092  26.412  0.00  0.00    +0.210 HD
ENDBRANCH   6   7
BRANCH   6   9
ATOM      9  C   UNL     1       4.816  -1.607  28.243  0.00  0.00    +0.175 C 
BRANCH   9  10
ATOM     10  C   UNL     1       6.003  -2.251  27.512  0.00  0.00    +0.176 C 
ATOM     11  O   UNL     1       5.475  -3.239  26.584  0.00  0.00    -0.332 OA
ATOM     12  C   UNL     1       6.464  -3.886  25.717  0.00  0.00    +0.277 C 
ATOM     13  C   UNL     1       7.597  -4.516  26.564  0.00  0.00    +0.110 C 
ATOM     14  C   UNL     1       8.168  -3.512  27.588  0.00  0.00    +0.143 C 
ATOM     15  C   UNL     1       7.053  -2.898  28.434  0.00  0.00    +0.133 C 
BRANCH  15  16
ATOM     16  N   UNL     1       7.600  -1.880  29.346  0.00  0.00    -0.308 N 
ATOM     17  H   UNL     1       7.925  -1.012  28.943  0.00  0.00    +0.149 HD
ATOM     18  C   UNL     1       7.696  -2.029  30.670  0.00  0.00    +0.210 C 
ATOM     19  C   UNL     1       7.217  -3.373  31.249  0.00  0.00    +0.109 C 
ATOM     20  O   UNL     1       8.145  -1.153  31.410  0.00  0.00    -0.276 OA
ENDBRANCH  15  16
BRANCH  12  21
ATOM     21  C   UNL     1       7.067  -2.871  24.723  0.00  0.00    +0.414 C 
ATOM     22  O   UNL     1       6.394  -1.924  24.318  0.00  0.00    -0.240 OA
ATOM     23  O   UNL     1       8.226  -2.999  24.326  0.00  0.00    -0.240 OA
ENDBRANCH  12  21
BRANCH  14  24
ATOM     24  O   UNL     1       9.099  -4.176  28.445  0.00  0.00    -0.390 OA
ATOM     25  H   UNL     1       8.636  -4.827  28.976  0.00  0.00    +0.210 HD
ENDBRANCH  14  24
BRANCH  12  26
ATOM     26  O   UNL     1       5.795  -4.946  24.987  0.00  0.00    -0.343 OA
ATOM     27  C   UNL     1       5.773  -6.232  25.657  0.00  0.00    +0.198 C 
ENDBRANCH  12  26
ENDBRANCH   9  10
BRANCH   9  28
ATOM     28  O   UNL     1       4.582  -2.277  29.498  0.00  0.00    -0.387 OA
ATOM     29  H   UNL     1       3.712  -2.683  29.487  0.00  0.00    +0.210 HD
ENDBRANCH   9  28
ENDBRANCH   6   9
ENDBRANCH   5   6
ENDBRANCH   3   5
BRANCH   1  30
ATOM     30  O   UNL     1       2.502   2.238  29.972  0.00  0.00    -0.444 OA
BRANCH  30  31
ATOM     31  C   UNL     1       1.281   2.983  29.987  0.00  0.00    +0.292 C 
BRANCH  31  33
ATOM     32  N   UNL     1      -0.274   4.006  28.371  0.00  0.00    -0.131 NA
ATOM     33  C   UNL     1       0.915   3.386  28.618  0.00  0.00    +0.121 A 
ATOM     34  C   UNL     1       1.611   3.265  27.440  0.00  0.00    +0.145 A 
ATOM     35  N   UNL     1       0.810   3.858  26.483  0.00  0.00    -0.199 N 
ATOM     36  N   UNL     1      -0.325   4.295  27.077  0.00  0.00    -0.059 NA
BRANCH  35  37
ATOM     37  C   UNL     1       1.160   4.067  25.117  0.00  0.00    +0.186 A 
ATOM     38  C   UNL     1       1.327   3.150  24.099  0.00  0.00    +0.158 A 
ATOM     39  C   UNL     1       1.340   1.720  24.060  0.00  0.00    +0.280 A 
ATOM     40  O   UNL     1       1.538   1.039  25.057  0.00  0.00    -0.265 OA
ATOM     41  N   UNL     1       1.143   1.151  22.785  0.00  0.00    -0.302 N 
ATOM     42  C   UNL     1       1.385   1.936  21.595  0.00  0.00    +0.069 A 
ATOM     43  C   UNL     1       1.478   1.365  20.317  0.00  0.00    +0.028 A 
ATOM     44  C   UNL     1       1.764   2.150  19.191  0.00  0.00    +0.002 A 
ATOM     45  C   UNL     1       1.952   3.522  19.314  0.00  0.00    +0.002 A 
ATOM     46  C   UNL     1       1.854   4.123  20.565  0.00  0.00    +0.028 A 
ATOM     47  C   UNL     1       1.582   3.331  21.690  0.00  0.00    +0.072 A 
ATOM     48  N   UNL     1       1.485   3.906  22.968  0.00  0.00    -0.291 N 
ATOM     49  C   UNL     1       1.522   5.221  23.356  0.00  0.00    +0.207 A 
ATOM     50  N   UNL     1       1.317   5.358  24.648  0.00  0.00    -0.216 NA
BRANCH  41  51
ATOM     51  C   UNL     1       0.892  -0.306  22.708  0.00  0.00    +0.085 C 
ATOM     52  C   UNL     1      -0.448  -0.738  23.337  0.00  0.00    +0.030 C 
ATOM     53  C   UNL     1       2.045  -1.115  23.301  0.00  0.00    +0.030 C 
ENDBRANCH  41  51
ENDBRANCH  35  37
ENDBRANCH  31  33
ENDBRANCH  30  31
ENDBRANCH   1  30
TORSDOF 15
