REMARK VINA RESULT:    -5.274     22.292     25.723
REMARK INTER + INTRA:         -13.194
REMARK INTER:                 -10.253
REMARK INTRA:                  -2.940
REMARK UNBOUND:                -3.450
REMARK  Name = lig_assembled_66.pdb
REMARK  18 active torsions:
REMARK  status: ('A' for Active; 'I' for Inactive)
REMARK    1  A    between atoms: _2  and  _10
REMARK    2  A    between atoms: _5  and  _21
REMARK    3  A    between atoms: _7  and  _8
REMARK    4  A    between atoms: _7  and  _21
REMARK    5  A    between atoms: _10  and  _11
REMARK    6  A    between atoms: _15  and  _16
REMARK    7  A    between atoms: _17  and  _37
REMARK    8  A    between atoms: _19  and  _25
REMARK    9  A    between atoms: _20  and  _24
REMARK   10  A    between atoms: _24  and  _25
REMARK   11  A    between atoms: _27  and  _28
REMARK   12  A    between atoms: _29  and  _30
REMARK   13  A    between atoms: _31  and  _33
REMARK   14  A    between atoms: _33  and  _34
REMARK   15  A    between atoms: _33  and  _35
REMARK   16  A    between atoms: _35  and  _36
REMARK   17  A    between atoms: _35  and  _37
REMARK   18  A    between atoms: _38  and  _40
REMARK                            x       y       z     vdW  Elec       q    Type
REMARK                         _______ _______ _______ _____ _____    ______ ____
ROOT
ATOM      1  C   UNL     1      16.180  23.512  19.383  0.00  0.00    +0.163 C 
ENDROOT
BRANCH   1   2
ATOM      2  O   UNL     1      16.980  23.887  18.250  0.00  0.00    -0.388 OA
ATOM      3  H   UNL     1      17.182  23.106  17.728  0.00  0.00    +0.210 HD
ENDBRANCH   1   2
BRANCH   1   4
ATOM      4  C   UNL     1      15.057  22.546  18.968  0.00  0.00    +0.175 C 
BRANCH   4   5
ATOM      5  C   UNL     1      13.904  23.271  18.258  0.00  0.00    +0.176 C 
ATOM      6  O   UNL     1      14.300  23.498  16.878  0.00  0.00    -0.332 OA
ATOM      7  C   UNL     1      13.276  24.090  16.013  0.00  0.00    +0.277 C 
ATOM      8  C   UNL     1      12.744  25.408  16.628  0.00  0.00    +0.110 C 
ATOM      9  C   UNL     1      12.339  25.225  18.105  0.00  0.00    +0.143 C 
ATOM     10  C   UNL     1      13.478  24.599  18.912  0.00  0.00    +0.133 C 
BRANCH  10  11
ATOM     11  N   UNL     1      13.050  24.349  20.298  0.00  0.00    -0.308 N 
ATOM     12  H   UNL     1      12.380  23.610  20.459  0.00  0.00    +0.149 HD
ATOM     13  C   UNL     1      13.489  25.035  21.357  0.00  0.00    +0.210 C 
ATOM     14  C   UNL     1      14.489  26.172  21.075  0.00  0.00    +0.109 C 
ATOM     15  O   UNL     1      13.124  24.794  22.508  0.00  0.00    -0.276 OA
ENDBRANCH  10  11
BRANCH   7  16
ATOM     16  C   UNL     1      12.103  23.109  15.803  0.00  0.00    +0.414 C 
ATOM     17  O   UNL     1      10.941  23.501  15.904  0.00  0.00    -0.240 OA
ATOM     18  O   UNL     1      12.319  21.927  15.534  0.00  0.00    -0.240 OA
ENDBRANCH   7  16
BRANCH   7  19
ATOM     19  O   UNL     1      13.890  24.397  14.735  0.00  0.00    -0.343 OA
ATOM     20  C   UNL     1      13.294  25.508  14.020  0.00  0.00    +0.198 C 
ENDBRANCH   7  19
BRANCH   9  21
ATOM     21  O   UNL     1      12.001  26.491  18.673  0.00  0.00    -0.390 OA
ATOM     22  H   UNL     1      12.633  26.713  19.360  0.00  0.00    +0.210 HD
ENDBRANCH   9  21
ENDBRANCH   4   5
BRANCH   4  23
ATOM     23  O   UNL     1      14.562  21.835  20.120  0.00  0.00    -0.387 OA
ATOM     24  H   UNL     1      14.622  22.399  20.895  0.00  0.00    +0.210 HD
ENDBRANCH   4  23
ENDBRANCH   1   4
BRANCH   1  25
ATOM     25  C   UNL     1      17.054  22.851  20.444  0.00  0.00    +0.141 C 
BRANCH  25  28
ATOM     26  C   UNL     1      16.261  22.594  22.770  0.00  0.00    +0.401 C 
ATOM     27  O   UNL     1      15.995  21.396  22.647  0.00  0.00    -0.226 OA
ATOM     28  N   UNL     1      16.754  23.353  21.791  0.00  0.00    -0.279 N 
ATOM     29  H   UNL     1      16.931  24.329  21.986  0.00  0.00    +0.152 HD
BRANCH  26  30
ATOM     30  O   UNL     1      16.032  23.230  24.030  0.00  0.00    -0.444 OA
BRANCH  30  31
ATOM     31  C   UNL     1      15.496  22.279  24.955  0.00  0.00    +0.292 C 
BRANCH  31  33
ATOM     32  N   UNL     1      14.803  23.983  26.616  0.00  0.00    -0.131 NA
ATOM     33  C   UNL     1      14.482  22.916  25.818  0.00  0.00    +0.120 A 
ATOM     34  C   UNL     1      13.141  22.638  25.958  0.00  0.00    +0.137 A 
ATOM     35  N   UNL     1      12.690  23.605  26.809  0.00  0.00    -0.247 N 
ATOM     36  N   UNL     1      13.697  24.400  27.217  0.00  0.00    -0.065 NA
BRANCH  35  37
ATOM     37  C   UNL     1      11.312  23.981  27.064  0.00  0.00    +0.180 C 
BRANCH  37  38
ATOM     38  C   UNL     1      10.582  24.449  25.831  0.00  0.00    -0.025 A 
ATOM     39  C   UNL     1      10.917  25.671  25.230  0.00  0.00    +0.005 A 
ATOM     40  C   UNL     1      10.304  26.073  24.040  0.00  0.00    +0.002 A 
ATOM     41  C   UNL     1       9.333  25.266  23.447  0.00  0.00    +0.019 A 
ATOM     42  C   UNL     1       8.961  24.062  24.053  0.00  0.00    +0.052 A 
ATOM     43  C   UNL     1       9.585  23.655  25.239  0.00  0.00    +0.024 A 
BRANCH  42  44
ATOM     44  C   UNL     1       7.951  23.239  23.454  0.00  0.00    +0.099 C 
ATOM     45  N   UNL     1       7.140  22.569  22.964  0.00  0.00    -0.191 NA
ENDBRANCH  42  44
ENDBRANCH  37  38
ENDBRANCH  35  37
ENDBRANCH  31  33
ENDBRANCH  30  31
ENDBRANCH  26  30
ENDBRANCH  25  28
ENDBRANCH   1  25
TORSDOF 16
