REMARK VINA RESULT:    -5.914      5.395      6.078
REMARK INTER + INTRA:         -12.426
REMARK INTER:                 -10.808
REMARK INTRA:                  -1.618
REMARK UNBOUND:                -2.191
REMARK  Name = lig_assembled_48.pdb
REMARK  16 active torsions:
REMARK  status: ('A' for Active; 'I' for Inactive)
REMARK    1  A    between atoms: _2  and  _9
REMARK    2  A    between atoms: _4  and  _18
REMARK    3  A    between atoms: _6  and  _7
REMARK    4  A    between atoms: _6  and  _18
REMARK    5  A    between atoms: _14  and  _34
REMARK    6  A    between atoms: _16  and  _22
REMARK    7  A    between atoms: _17  and  _21
REMARK    8  A    between atoms: _21  and  _22
REMARK    9  A    between atoms: _24  and  _25
REMARK   10  A    between atoms: _26  and  _27
REMARK   11  A    between atoms: _28  and  _30
REMARK   12  A    between atoms: _30  and  _31
REMARK   13  A    between atoms: _30  and  _32
REMARK   14  A    between atoms: _32  and  _33
REMARK   15  A    between atoms: _32  and  _34
REMARK   16  A    between atoms: _35  and  _37
REMARK                            x       y       z     vdW  Elec       q    Type
REMARK                         _______ _______ _______ _____ _____    ______ ____
ROOT
ATOM      1  C   UNL     1       5.968   2.799  32.579  0.00  0.00    +0.163 C 
ENDROOT
BRANCH   1   2
ATOM      2  O   UNL     1       4.883   3.738  32.659  0.00  0.00    -0.388 OA
ATOM      3  H   UNL     1       4.687   4.077  31.782  0.00  0.00    +0.210 HD
ENDBRANCH   1   2
BRANCH   1   4
ATOM      4  C   UNL     1       5.583   1.496  33.272  0.00  0.00    +0.141 C 
BRANCH   4   7
ATOM      5  C   UNL     1       6.288  -0.374  31.819  0.00  0.00    +0.401 C 
ATOM      6  O   UNL     1       7.482  -0.277  32.114  0.00  0.00    -0.226 OA
ATOM      7  N   UNL     1       5.333   0.417  32.308  0.00  0.00    -0.279 N 
ATOM      8  H   UNL     1       4.383   0.266  31.998  0.00  0.00    +0.152 HD
BRANCH   5   9
ATOM      9  O   UNL     1       5.881  -1.386  30.894  0.00  0.00    -0.444 OA
BRANCH   9  10
ATOM     10  C   UNL     1       7.033  -1.933  30.247  0.00  0.00    +0.292 C 
BRANCH  10  12
ATOM     11  N   UNL     1       5.637  -1.571  28.240  0.00  0.00    -0.131 NA
ATOM     12  C   UNL     1       6.809  -2.006  28.791  0.00  0.00    +0.120 A 
ATOM     13  C   UNL     1       7.642  -2.450  27.787  0.00  0.00    +0.137 A 
ATOM     14  N   UNL     1       6.960  -2.172  26.640  0.00  0.00    -0.248 N 
ATOM     15  N   UNL     1       5.722  -1.712  26.926  0.00  0.00    -0.065 NA
BRANCH  14  16
ATOM     16  C   UNL     1       7.376  -2.243  25.244  0.00  0.00    +0.109 C 
ATOM     17  C   UNL     1       7.938  -3.637  24.905  0.00  0.00    +0.027 C 
ATOM     18  C   UNL     1       6.831  -4.685  24.841  0.00  0.00    +0.002 C 
ATOM     19  C   UNL     1       5.798  -4.321  23.782  0.00  0.00    +0.000 C 
ATOM     20  C   UNL     1       5.229  -2.919  23.978  0.00  0.00    +0.002 C 
ATOM     21  C   UNL     1       6.307  -1.853  24.204  0.00  0.00    +0.027 C 
ENDBRANCH  14  16
ENDBRANCH  10  12
ENDBRANCH   9  10
ENDBRANCH   5   9
ENDBRANCH   4   7
ENDBRANCH   1   4
BRANCH   1  22
ATOM     22  C   UNL     1       7.239   3.371  33.231  0.00  0.00    +0.175 C 
BRANCH  22  23
ATOM     23  C   UNL     1       6.967   3.935  34.633  0.00  0.00    +0.176 C 
ATOM     24  O   UNL     1       6.821   5.377  34.514  0.00  0.00    -0.332 OA
ATOM     25  C   UNL     1       6.450   6.080  35.746  0.00  0.00    +0.277 C 
ATOM     26  C   UNL     1       7.448   5.746  36.881  0.00  0.00    +0.110 C 
ATOM     27  C   UNL     1       7.660   4.224  37.025  0.00  0.00    +0.143 C 
ATOM     28  C   UNL     1       8.040   3.595  35.684  0.00  0.00    +0.133 C 
BRANCH  28  29
ATOM     29  N   UNL     1       8.154   2.133  35.815  0.00  0.00    -0.308 N 
ATOM     30  H   UNL     1       7.359   1.629  36.182  0.00  0.00    +0.149 HD
ATOM     31  C   UNL     1       9.239   1.430  35.480  0.00  0.00    +0.210 C 
ATOM     32  C   UNL     1      10.442   2.231  34.948  0.00  0.00    +0.109 C 
ATOM     33  O   UNL     1       9.301   0.205  35.587  0.00  0.00    -0.276 OA
ENDBRANCH  28  29
BRANCH  25  34
ATOM     34  C   UNL     1       5.022   5.695  36.186  0.00  0.00    +0.414 C 
ATOM     35  O   UNL     1       4.192   5.333  35.352  0.00  0.00    -0.240 OA
ATOM     36  O   UNL     1       4.699   5.747  37.373  0.00  0.00    -0.240 OA
ENDBRANCH  25  34
BRANCH  27  37
ATOM     37  O   UNL     1       8.696   3.969  37.974  0.00  0.00    -0.390 OA
ATOM     38  H   UNL     1       9.104   4.798  38.234  0.00  0.00    +0.210 HD
ENDBRANCH  27  37
BRANCH  25  39
ATOM     39  O   UNL     1       6.513   7.506  35.485  0.00  0.00    -0.343 OA
ATOM     40  C   UNL     1       7.239   7.877  34.287  0.00  0.00    +0.198 C 
ENDBRANCH  25  39
ENDBRANCH  22  23
BRANCH  22  41
ATOM     41  O   UNL     1       7.814   4.390  32.388  0.00  0.00    -0.387 OA
ATOM     42  H   UNL     1       8.668   4.094  32.064  0.00  0.00    +0.210 HD
ENDBRANCH  22  41
ENDBRANCH   1  22
TORSDOF 14
