REMARK VINA RESULT:    -6.212      2.234      4.465
REMARK INTER + INTRA:         -14.847
REMARK INTER:                 -12.603
REMARK INTRA:                  -2.244
REMARK UNBOUND:                -2.643
REMARK  Name = lig_assembled_37.pdb
REMARK  21 active torsions:
REMARK  status: ('A' for Active; 'I' for Inactive)
REMARK    1  A    between atoms: _2  and  _9
REMARK    2  A    between atoms: _4  and  _24
REMARK    3  A    between atoms: _6  and  _7
REMARK    4  A    between atoms: _6  and  _24
REMARK    5  A    between atoms: _9  and  _10
REMARK    6  A    between atoms: _9  and  _11
REMARK    7  A    between atoms: _11  and  _18
REMARK    8  A    between atoms: _12  and  _13
REMARK    9  A    between atoms: _12  and  _18
REMARK   10  A    between atoms: _20  and  _40
REMARK   11  A    between atoms: _22  and  _28
REMARK   12  A    between atoms: _23  and  _27
REMARK   13  A    between atoms: _27  and  _28
REMARK   14  A    between atoms: _30  and  _31
REMARK   15  A    between atoms: _32  and  _33
REMARK   16  A    between atoms: _34  and  _36
REMARK   17  A    between atoms: _36  and  _37
REMARK   18  A    between atoms: _36  and  _38
REMARK   19  A    between atoms: _38  and  _39
REMARK   20  A    between atoms: _38  and  _40
REMARK   21  A    between atoms: _41  and  _43
REMARK                            x       y       z     vdW  Elec       q    Type
REMARK                         _______ _______ _______ _____ _____    ______ ____
ROOT
ATOM      1  C   UNL     1       1.890   3.622  32.641  0.00  0.00    +0.141 C 
ENDROOT
BRANCH   1   4
ATOM      2  C   UNL     1       1.155   3.546  30.283  0.00  0.00    +0.401 C 
ATOM      3  O   UNL     1       0.190   2.812  30.510  0.00  0.00    -0.226 OA
ATOM      4  N   UNL     1       2.006   3.969  31.219  0.00  0.00    -0.279 N 
ATOM      5  H   UNL     1       2.773   4.561  30.934  0.00  0.00    +0.152 HD
BRANCH   2   6
ATOM      6  O   UNL     1       1.398   3.979  28.943  0.00  0.00    -0.444 OA
BRANCH   6   7
ATOM      7  C   UNL     1       0.560   3.248  28.044  0.00  0.00    +0.292 C 
BRANCH   7   9
ATOM      8  N   UNL     1       2.028   3.967  26.181  0.00  0.00    -0.131 NA
ATOM      9  C   UNL     1       1.263   2.997  26.772  0.00  0.00    +0.120 A 
ATOM     10  C   UNL     1       1.300   1.860  25.997  0.00  0.00    +0.138 A 
ATOM     11  N   UNL     1       2.080   2.208  24.934  0.00  0.00    -0.238 N 
ATOM     12  N   UNL     1       2.530   3.471  25.059  0.00  0.00    -0.065 NA
BRANCH  11  13
ATOM     13  C   UNL     1       2.504   1.407  23.803  0.00  0.00    +0.214 C 
ATOM     14  C   UNL     1       2.653  -0.065  24.186  0.00  0.00    +0.045 C 
BRANCH  13  15
ATOM     15  C   UNL     1       1.547   1.551  22.641  0.00  0.00    +0.332 C 
ATOM     16  O   UNL     1       0.384   1.163  22.657  0.00  0.00    -0.248 OA
BRANCH  15  17
ATOM     17  O   UNL     1       2.147   2.162  21.584  0.00  0.00    -0.458 OA
BRANCH  17  18
ATOM     18  C   UNL     1       1.902   3.570  21.445  0.00  0.00    +0.267 C 
BRANCH  18  19
ATOM     19  C   UNL     1       1.278   3.854  20.104  0.00  0.00    -0.010 A 
ATOM     20  C   UNL     1       2.025   3.708  18.927  0.00  0.00    +0.007 A 
ATOM     21  C   UNL     1       1.440   3.945  17.682  0.00  0.00    +0.000 A 
ATOM     22  C   UNL     1       0.104   4.332  17.600  0.00  0.00    +0.000 A 
ATOM     23  C   UNL     1      -0.648   4.486  18.763  0.00  0.00    +0.000 A 
ATOM     24  C   UNL     1      -0.063   4.252  20.010  0.00  0.00    +0.007 A 
ENDBRANCH  18  19
ENDBRANCH  17  18
ENDBRANCH  15  17
ENDBRANCH  13  15
ENDBRANCH  11  13
ENDBRANCH   7   9
ENDBRANCH   6   7
ENDBRANCH   2   6
ENDBRANCH   1   4
BRANCH   1  25
ATOM     25  C   UNL     1       3.149   2.939  33.164  0.00  0.00    +0.163 C 
BRANCH  25  26
ATOM     26  O   UNL     1       3.753   2.156  32.121  0.00  0.00    -0.388 OA
ATOM     27  H   UNL     1       3.462   2.483  31.266  0.00  0.00    +0.210 HD
ENDBRANCH  25  26
BRANCH  25  28
ATOM     28  C   UNL     1       4.129   4.001  33.692  0.00  0.00    +0.175 C 
BRANCH  28  29
ATOM     29  C   UNL     1       5.562   3.460  33.804  0.00  0.00    +0.176 C 
ATOM     30  O   UNL     1       5.488   2.098  34.309  0.00  0.00    -0.332 OA
ATOM     31  C   UNL     1       6.763   1.379  34.383  0.00  0.00    +0.277 C 
ATOM     32  C   UNL     1       7.793   2.187  35.208  0.00  0.00    +0.110 C 
ATOM     33  C   UNL     1       7.884   3.651  34.729  0.00  0.00    +0.143 C 
ATOM     34  C   UNL     1       6.501   4.302  34.687  0.00  0.00    +0.133 C 
BRANCH  34  35
ATOM     35  N   UNL     1       6.590   5.668  34.147  0.00  0.00    -0.308 N 
ATOM     36  H   UNL     1       6.798   5.773  33.164  0.00  0.00    +0.149 HD
ATOM     37  C   UNL     1       6.415   6.777  34.871  0.00  0.00    +0.210 C 
ATOM     38  C   UNL     1       6.126   6.582  36.371  0.00  0.00    +0.109 C 
ATOM     39  O   UNL     1       6.481   7.908  34.388  0.00  0.00    -0.276 OA
ENDBRANCH  34  35
BRANCH  31  40
ATOM     40  C   UNL     1       7.326   1.117  32.970  0.00  0.00    +0.414 C 
ATOM     41  O   UNL     1       8.538   1.171  32.766  0.00  0.00    -0.240 OA
ATOM     42  O   UNL     1       6.568   0.852  32.036  0.00  0.00    -0.240 OA
ENDBRANCH  31  40
BRANCH  31  43
ATOM     43  O   UNL     1       6.528   0.115  35.056  0.00  0.00    -0.343 OA
ATOM     44  C   UNL     1       7.649  -0.387  35.825  0.00  0.00    +0.198 C 
ENDBRANCH  31  43
BRANCH  33  45
ATOM     45  O   UNL     1       8.728   4.395  35.609  0.00  0.00    -0.390 OA
ATOM     46  H   UNL     1       8.213   5.077  36.046  0.00  0.00    +0.210 HD
ENDBRANCH  33  45
ENDBRANCH  28  29
BRANCH  28  47
ATOM     47  O   UNL     1       3.683   4.495  34.971  0.00  0.00    -0.387 OA
ATOM     48  H   UNL     1       4.185   5.280  35.203  0.00  0.00    +0.210 HD
ENDBRANCH  28  47
ENDBRANCH  25  28
ENDBRANCH   1  25
TORSDOF 18
