REMARK VINA RESULT:    -6.221      6.235     14.633
REMARK INTER + INTRA:         -15.900
REMARK INTER:                 -12.802
REMARK INTRA:                  -3.098
REMARK UNBOUND:                -3.133
REMARK  Name = lig_assembled_90.pdb
REMARK  22 active torsions:
REMARK  status: ('A' for Active; 'I' for Inactive)
REMARK    1  A    between atoms: _2  and  _13
REMARK    2  A    between atoms: _3  and  _15
REMARK    3  A    between atoms: _4  and  _17
REMARK    4  A    between atoms: _8  and  _28
REMARK    5  A    between atoms: _10  and  _11
REMARK    6  A    between atoms: _10  and  _28
REMARK    7  A    between atoms: _13  and  _14
REMARK    8  A    between atoms: _15  and  _16
REMARK    9  A    between atoms: _16  and  _17
REMARK   10  A    between atoms: _16  and  _22
REMARK   11  A    between atoms: _24  and  _44
REMARK   12  A    between atoms: _26  and  _32
REMARK   13  A    between atoms: _27  and  _31
REMARK   14  A    between atoms: _31  and  _32
REMARK   15  A    between atoms: _34  and  _35
REMARK   16  A    between atoms: _36  and  _37
REMARK   17  A    between atoms: _38  and  _40
REMARK   18  A    between atoms: _40  and  _41
REMARK   19  A    between atoms: _40  and  _42
REMARK   20  A    between atoms: _42  and  _43
REMARK   21  A    between atoms: _42  and  _44
REMARK   22  A    between atoms: _45  and  _47
REMARK                            x       y       z     vdW  Elec       q    Type
REMARK                         _______ _______ _______ _____ _____    ______ ____
ROOT
ATOM      1  C   UNL     1      16.205  -1.438  24.537  0.00  0.00    +0.401 C 
ATOM      2  O   UNL     1      17.361  -1.380  24.112  0.00  0.00    -0.226 OA
ATOM      3  N   UNL     1      15.708  -0.613  25.460  0.00  0.00    -0.279 N 
ATOM      4  H   UNL     1      14.744  -0.734  25.738  0.00  0.00    +0.152 HD
ENDROOT
BRANCH   3   5
ATOM      5  C   UNL     1      16.482   0.461  26.094  0.00  0.00    +0.141 C 
BRANCH   5   6
ATOM      6  C   UNL     1      16.107   1.833  25.544  0.00  0.00    +0.163 C 
BRANCH   6   7
ATOM      7  O   UNL     1      16.411   2.851  26.512  0.00  0.00    -0.388 OA
ATOM      8  H   UNL     1      17.084   3.437  26.160  0.00  0.00    +0.210 HD
ENDBRANCH   6   7
BRANCH   6   9
ATOM      9  C   UNL     1      16.863   2.083  24.228  0.00  0.00    +0.175 C 
BRANCH   9  10
ATOM     10  C   UNL     1      18.369   2.282  24.455  0.00  0.00    +0.176 C 
ATOM     11  O   UNL     1      18.563   3.600  25.038  0.00  0.00    -0.332 OA
ATOM     12  C   UNL     1      19.939   3.925  25.424  0.00  0.00    +0.277 C 
ATOM     13  C   UNL     1      20.897   3.739  24.222  0.00  0.00    +0.110 C 
ATOM     14  C   UNL     1      20.705   2.364  23.548  0.00  0.00    +0.143 C 
ATOM     15  C   UNL     1      19.237   2.128  23.192  0.00  0.00    +0.133 C 
BRANCH  15  16
ATOM     16  N   UNL     1      19.053   0.780  22.631  0.00  0.00    -0.308 N 
ATOM     17  H   UNL     1      19.385  -0.006  23.173  0.00  0.00    +0.149 HD
ATOM     18  C   UNL     1      18.477   0.527  21.453  0.00  0.00    +0.210 C 
ATOM     19  C   UNL     1      18.006   1.747  20.639  0.00  0.00    +0.109 C 
ATOM     20  O   UNL     1      18.324  -0.613  21.014  0.00  0.00    -0.276 OA
ENDBRANCH  15  16
BRANCH  12  21
ATOM     21  C   UNL     1      20.404   3.036  26.596  0.00  0.00    +0.414 C 
ATOM     22  O   UNL     1      19.584   2.579  27.391  0.00  0.00    -0.240 OA
ATOM     23  O   UNL     1      21.598   2.775  26.746  0.00  0.00    -0.240 OA
ENDBRANCH  12  21
BRANCH  14  24
ATOM     24  O   UNL     1      21.495   2.295  22.360  0.00  0.00    -0.390 OA
ATOM     25  H   UNL     1      20.996   1.853  21.669  0.00  0.00    +0.210 HD
ENDBRANCH  14  24
BRANCH  12  26
ATOM     26  O   UNL     1      19.975   5.319  25.825  0.00  0.00    -0.343 OA
ATOM     27  C   UNL     1      18.733   5.831  26.371  0.00  0.00    +0.198 C 
ENDBRANCH  12  26
ENDBRANCH   9  10
BRANCH   9  28
ATOM     28  O   UNL     1      16.308   3.226  23.546  0.00  0.00    -0.387 OA
ATOM     29  H   UNL     1      15.540   3.544  24.026  0.00  0.00    +0.210 HD
ENDBRANCH   9  28
ENDBRANCH   6   9
ENDBRANCH   5   6
ENDBRANCH   3   5
BRANCH   1  30
ATOM     30  O   UNL     1      15.326  -2.440  24.022  0.00  0.00    -0.444 OA
BRANCH  30  31
ATOM     31  C   UNL     1      15.503  -3.655  24.756  0.00  0.00    +0.292 C 
BRANCH  31  33
ATOM     32  N   UNL     1      15.138  -4.665  22.520  0.00  0.00    -0.131 NA
ATOM     33  C   UNL     1      15.344  -4.822  23.867  0.00  0.00    +0.120 A 
ATOM     34  C   UNL     1      15.362  -6.166  24.164  0.00  0.00    +0.137 A 
ATOM     35  N   UNL     1      15.185  -6.774  22.957  0.00  0.00    -0.242 N 
ATOM     36  N   UNL     1      15.032  -5.870  21.973  0.00  0.00    -0.065 NA
BRANCH  35  37
ATOM     37  C   UNL     1      15.045  -8.182  22.678  0.00  0.00    +0.240 C 
BRANCH  37  38
ATOM     38  C   UNL     1      13.624  -8.529  22.299  0.00  0.00    +0.235 C 
ATOM     39  O   UNL     1      13.315  -9.613  21.806  0.00  0.00    -0.274 OA
ATOM     40  N   UNL     1      12.681  -7.564  22.598  0.00  0.00    -0.311 N 
ATOM     41  H   UNL     1      12.994  -6.606  22.741  0.00  0.00    +0.149 HD
BRANCH  40  42
ATOM     42  C   UNL     1      11.290  -7.743  22.206  0.00  0.00    +0.137 C 
BRANCH  42  43
ATOM     43  C   UNL     1      10.904  -6.779  21.074  0.00  0.00    +0.151 C 
BRANCH  43  44
ATOM     44  O   UNL     1      11.964  -5.832  20.896  0.00  0.00    -0.388 OA
ATOM     45  H   UNL     1      12.485  -6.084  20.107  0.00  0.00    +0.210 HD
ENDBRANCH  43  44
BRANCH  43  46
ATOM     46  C   UNL     1      10.601  -7.528  19.771  0.00  0.00    +0.162 C 
BRANCH  46  47
ATOM     47  N   UNL     1       9.173  -7.612  19.496  0.00  0.00    -0.269 N 
ATOM     48  C   UNL     1       8.343  -8.527  20.106  0.00  0.00    +0.113 A 
ATOM     49  C   UNL     1       7.099  -8.326  19.560  0.00  0.00    +0.137 A 
ATOM     50  N   UNL     1       7.136  -7.317  18.632  0.00  0.00    -0.172 NA
ATOM     51  C   UNL     1       8.391  -6.898  18.621  0.00  0.00    +0.450 A 
ATOM     52  N   UNL     1       8.838  -5.823  17.769  0.00  0.00    +0.120 N 
ATOM     53  O   UNL     1      10.004  -5.427  17.905  0.00  0.00    +0.045 OA
ATOM     54  O   UNL     1       8.027  -5.375  16.948  0.00  0.00    -0.573 OA
ENDBRANCH  46  47
ENDBRANCH  43  46
ENDBRANCH  42  43
ENDBRANCH  40  42
ENDBRANCH  37  38
ENDBRANCH  35  37
ENDBRANCH  31  33
ENDBRANCH  30  31
ENDBRANCH   1  30
TORSDOF 20
