REMARK VINA RESULT:    -5.902      4.513     13.046
REMARK INTER + INTRA:         -13.820
REMARK INTER:                 -11.584
REMARK INTRA:                  -2.236
REMARK UNBOUND:                -2.569
REMARK  Name = lig_assembled_18.pdb
REMARK  19 active torsions:
REMARK  status: ('A' for Active; 'I' for Inactive)
REMARK    1  A    between atoms: _2  and  _10
REMARK    2  A    between atoms: _3  and  _12
REMARK    3  A    between atoms: _5  and  _21
REMARK    4  A    between atoms: _7  and  _8
REMARK    5  A    between atoms: _7  and  _21
REMARK    6  A    between atoms: _10  and  _11
REMARK    7  A    between atoms: _12  and  _13
REMARK    8  A    between atoms: _17  and  _37
REMARK    9  A    between atoms: _19  and  _25
REMARK   10  A    between atoms: _20  and  _24
REMARK   11  A    between atoms: _24  and  _25
REMARK   12  A    between atoms: _27  and  _28
REMARK   13  A    between atoms: _29  and  _30
REMARK   14  A    between atoms: _31  and  _33
REMARK   15  A    between atoms: _33  and  _34
REMARK   16  A    between atoms: _33  and  _35
REMARK   17  A    between atoms: _35  and  _36
REMARK   18  A    between atoms: _35  and  _37
REMARK   19  A    between atoms: _38  and  _40
REMARK                            x       y       z     vdW  Elec       q    Type
REMARK                         _______ _______ _______ _____ _____    ______ ____
ROOT
ATOM      1  C   UNL     1       2.629   2.691  29.963  0.00  0.00    +0.163 C 
ENDROOT
BRANCH   1   2
ATOM      2  O   UNL     1       2.487   1.550  29.101  0.00  0.00    -0.388 OA
ATOM      3  H   UNL     1       2.629   0.747  29.607  0.00  0.00    +0.210 HD
ENDBRANCH   1   2
BRANCH   1   4
ATOM      4  C   UNL     1       1.255   3.284  30.322  0.00  0.00    +0.175 C 
BRANCH   4   5
ATOM      5  C   UNL     1       0.297   3.289  29.121  0.00  0.00    +0.176 C 
ATOM      6  O   UNL     1       0.995   3.888  27.995  0.00  0.00    -0.332 OA
ATOM      7  C   UNL     1       0.267   3.882  26.722  0.00  0.00    +0.277 C 
ATOM      8  C   UNL     1      -1.121   4.547  26.890  0.00  0.00    +0.110 C 
ATOM      9  C   UNL     1      -1.889   3.965  28.096  0.00  0.00    +0.143 C 
ATOM     10  C   UNL     1      -1.038   4.018  29.365  0.00  0.00    +0.133 C 
BRANCH  10  11
ATOM     11  N   UNL     1      -1.746   3.382  30.487  0.00  0.00    -0.308 N 
ATOM     12  H   UNL     1      -1.904   2.385  30.441  0.00  0.00    +0.149 HD
ATOM     13  C   UNL     1      -2.194   4.036  31.562  0.00  0.00    +0.210 C 
ATOM     14  C   UNL     1      -1.960   5.558  31.590  0.00  0.00    +0.109 C 
ATOM     15  O   UNL     1      -2.771   3.475  32.494  0.00  0.00    -0.276 OA
ENDBRANCH  10  11
BRANCH   7  16
ATOM     16  C   UNL     1       0.089   2.441  26.200  0.00  0.00    +0.414 C 
ATOM     17  O   UNL     1      -0.961   2.104  25.654  0.00  0.00    -0.240 OA
ATOM     18  O   UNL     1       0.995   1.616  26.325  0.00  0.00    -0.240 OA
ENDBRANCH   7  16
BRANCH   7  19
ATOM     19  O   UNL     1       1.033   4.657  25.764  0.00  0.00    -0.343 OA
ATOM     20  C   UNL     1       0.321   5.005  24.549  0.00  0.00    +0.198 C 
ENDBRANCH   7  19
BRANCH   9  21
ATOM     21  O   UNL     1      -3.091   4.706  28.304  0.00  0.00    -0.390 OA
ATOM     22  H   UNL     1      -3.848   4.163  28.071  0.00  0.00    +0.210 HD
ENDBRANCH   9  21
ENDBRANCH   4   5
BRANCH   4  23
ATOM     23  O   UNL     1       1.411   4.621  30.839  0.00  0.00    -0.387 OA
ATOM     24  H   UNL     1       0.736   4.788  31.501  0.00  0.00    +0.210 HD
ENDBRANCH   4  23
ENDBRANCH   1   4
BRANCH   1  25
ATOM     25  C   UNL     1       3.360   2.292  31.241  0.00  0.00    +0.141 C 
BRANCH  25  28
ATOM     26  C   UNL     1       3.650   3.999  33.004  0.00  0.00    +0.401 C 
ATOM     27  O   UNL     1       2.671   3.628  33.655  0.00  0.00    -0.226 OA
ATOM     28  N   UNL     1       4.042   3.435  31.861  0.00  0.00    -0.279 N 
ATOM     29  H   UNL     1       4.853   3.816  31.395  0.00  0.00    +0.152 HD
BRANCH  26  30
ATOM     30  O   UNL     1       4.426   5.100  33.484  0.00  0.00    -0.444 OA
BRANCH  30  31
ATOM     31  C   UNL     1       5.585   4.609  34.162  0.00  0.00    +0.292 C 
BRANCH  31  33
ATOM     32  N   UNL     1       6.454   6.927  34.041  0.00  0.00    -0.131 NA
ATOM     33  C   UNL     1       6.378   5.730  34.701  0.00  0.00    +0.120 A 
ATOM     34  C   UNL     1       7.127   5.805  35.853  0.00  0.00    +0.137 A 
ATOM     35  N   UNL     1       7.610   7.080  35.853  0.00  0.00    -0.242 N 
ATOM     36  N   UNL     1       7.221   7.745  34.750  0.00  0.00    -0.065 NA
BRANCH  35  37
ATOM     37  C   UNL     1       8.528   7.696  36.781  0.00  0.00    +0.240 C 
BRANCH  37  38
ATOM     38  C   UNL     1       8.383   7.146  38.181  0.00  0.00    +0.235 C 
ATOM     39  O   UNL     1       9.228   6.408  38.685  0.00  0.00    -0.274 OA
ATOM     40  N   UNL     1       7.267   7.578  38.869  0.00  0.00    -0.309 N 
ATOM     41  H   UNL     1       6.516   8.043  38.379  0.00  0.00    +0.149 HD
BRANCH  40  42
ATOM     42  C   UNL     1       7.002   7.148  40.227  0.00  0.00    +0.146 C 
BRANCH  42  43
ATOM     43  C   UNL     1       7.483   8.188  41.186  0.00  0.00    +0.007 A 
ATOM     44  S   UNL     1       6.442   9.447  41.705  0.00  0.00    -0.100 S 
ATOM     45  C   UNL     1       7.677  10.170  42.642  0.00  0.00    +0.045 A 
ATOM     46  C   UNL     1       8.857   9.463  42.578  0.00  0.00    +0.008 A 
ATOM     47  C   UNL     1       8.742   8.314  41.743  0.00  0.00    +0.013 A 
ENDBRANCH  42  43
ENDBRANCH  40  42
ENDBRANCH  37  38
ENDBRANCH  35  37
ENDBRANCH  31  33
ENDBRANCH  30  31
ENDBRANCH  26  30
ENDBRANCH  25  28
ENDBRANCH   1  25
TORSDOF 17
