REMARK VINA RESULT:    -6.004      5.374      7.508
REMARK INTER + INTRA:         -14.282
REMARK INTER:                 -11.548
REMARK INTRA:                  -2.735
REMARK UNBOUND:                -3.014
REMARK  Name = lig_assembled_75.pdb
REMARK  19 active torsions:
REMARK  status: ('A' for Active; 'I' for Inactive)
REMARK    1  A    between atoms: _2  and  _9
REMARK    2  A    between atoms: _4  and  _23
REMARK    3  A    between atoms: _6  and  _7
REMARK    4  A    between atoms: _6  and  _23
REMARK    5  A    between atoms: _11  and  _12
REMARK    6  A    between atoms: _13  and  _14
REMARK    7  A    between atoms: _14  and  _17
REMARK    8  A    between atoms: _19  and  _39
REMARK    9  A    between atoms: _21  and  _27
REMARK   10  A    between atoms: _22  and  _26
REMARK   11  A    between atoms: _26  and  _27
REMARK   12  A    between atoms: _29  and  _30
REMARK   13  A    between atoms: _31  and  _32
REMARK   14  A    between atoms: _33  and  _35
REMARK   15  A    between atoms: _35  and  _36
REMARK   16  A    between atoms: _35  and  _37
REMARK   17  A    between atoms: _37  and  _38
REMARK   18  A    between atoms: _37  and  _39
REMARK   19  A    between atoms: _40  and  _42
REMARK                            x       y       z     vdW  Elec       q    Type
REMARK                         _______ _______ _______ _____ _____    ______ ____
ROOT
ATOM      1  C   UNL     1       8.655   1.940  35.309  0.00  0.00    +0.141 C 
ENDROOT
BRANCH   1   4
ATOM      2  C   UNL     1       8.567  -0.528  35.221  0.00  0.00    +0.401 C 
ATOM      3  O   UNL     1       9.760  -0.674  35.498  0.00  0.00    -0.226 OA
ATOM      4  N   UNL     1       7.968   0.658  35.106  0.00  0.00    -0.279 N 
ATOM      5  H   UNL     1       6.987   0.676  34.865  0.00  0.00    +0.152 HD
BRANCH   2   6
ATOM      6  O   UNL     1       7.759  -1.686  35.000  0.00  0.00    -0.444 OA
BRANCH   6   7
ATOM      7  C   UNL     1       8.164  -2.329  33.789  0.00  0.00    +0.292 C 
BRANCH   7   9
ATOM      8  N   UNL     1       6.913  -0.510  32.674  0.00  0.00    -0.131 NA
ATOM      9  C   UNL     1       7.422  -1.776  32.641  0.00  0.00    +0.121 A 
ATOM     10  C   UNL     1       7.116  -2.353  31.430  0.00  0.00    +0.143 A 
ATOM     11  N   UNL     1       6.409  -1.392  30.746  0.00  0.00    -0.220 N 
ATOM     12  N   UNL     1       6.297  -0.284  31.522  0.00  0.00    -0.060 NA
BRANCH  11  13
ATOM     13  C   UNL     1       5.825  -1.465  29.455  0.00  0.00    +0.068 A 
ATOM     14  C   UNL     1       6.572  -2.001  28.391  0.00  0.00    +0.035 A 
ATOM     15  C   UNL     1       6.051  -2.027  27.090  0.00  0.00    -0.023 A 
ATOM     16  C   UNL     1       4.745  -1.568  26.879  0.00  0.00    +0.008 A 
ATOM     17  C   UNL     1       3.990  -1.055  27.936  0.00  0.00    +0.003 A 
ATOM     18  C   UNL     1       4.529  -0.995  29.221  0.00  0.00    +0.028 A 
BRANCH  15  19
ATOM     19  C   UNL     1       6.817  -2.537  25.942  0.00  0.00    +0.015 C 
ATOM     20  C   UNL     1       7.020  -3.843  25.701  0.00  0.00    +0.092 C 
BRANCH  20  21
ATOM     21  C   UNL     1       7.848  -4.254  24.553  0.00  0.00    +0.330 C 
ATOM     22  O   UNL     1       8.089  -5.408  24.248  0.00  0.00    -0.246 OA
BRANCH  21  23
ATOM     23  O   UNL     1       8.307  -3.194  23.857  0.00  0.00    -0.478 OA
ATOM     24  H   UNL     1       8.355  -2.355  24.349  0.00  0.00    +0.295 HD
ENDBRANCH  21  23
ENDBRANCH  20  21
ENDBRANCH  15  19
ENDBRANCH  11  13
ENDBRANCH   7   9
ENDBRANCH   6   7
ENDBRANCH   2   6
ENDBRANCH   1   4
BRANCH   1  25
ATOM     25  C   UNL     1       8.778   2.732  34.012  0.00  0.00    +0.163 C 
BRANCH  25  26
ATOM     26  O   UNL     1       8.330   1.933  32.904  0.00  0.00    -0.388 OA
ATOM     27  H   UNL     1       7.755   1.234  33.225  0.00  0.00    +0.210 HD
ENDBRANCH  25  26
BRANCH  25  28
ATOM     28  C   UNL     1       7.958   4.029  34.121  0.00  0.00    +0.175 C 
BRANCH  28  29
ATOM     29  C   UNL     1       6.567   3.785  34.724  0.00  0.00    +0.176 C 
ATOM     30  O   UNL     1       5.816   2.956  33.795  0.00  0.00    -0.332 OA
ATOM     31  C   UNL     1       4.491   2.529  34.254  0.00  0.00    +0.277 C 
ATOM     32  C   UNL     1       3.640   3.756  34.667  0.00  0.00    +0.110 C 
ATOM     33  C   UNL     1       4.409   4.684  35.630  0.00  0.00    +0.143 C 
ATOM     34  C   UNL     1       5.774   5.063  35.055  0.00  0.00    +0.133 C 
BRANCH  34  35
ATOM     35  N   UNL     1       6.532   5.875  36.020  0.00  0.00    -0.308 N 
ATOM     36  H   UNL     1       6.692   5.489  36.939  0.00  0.00    +0.149 HD
ATOM     37  C   UNL     1       7.023   7.090  35.759  0.00  0.00    +0.210 C 
ATOM     38  C   UNL     1       6.740   7.662  34.357  0.00  0.00    +0.109 C 
ATOM     39  O   UNL     1       7.667   7.742  36.582  0.00  0.00    -0.276 OA
ENDBRANCH  34  35
BRANCH  31  40
ATOM     40  C   UNL     1       4.612   1.560  35.449  0.00  0.00    +0.414 C 
ATOM     41  O   UNL     1       4.215   1.898  36.563  0.00  0.00    -0.240 OA
ATOM     42  O   UNL     1       5.105   0.442  35.298  0.00  0.00    -0.240 OA
ENDBRANCH  31  40
BRANCH  31  43
ATOM     43  O   UNL     1       3.826   1.863  33.150  0.00  0.00    -0.343 OA
ATOM     44  C   UNL     1       3.284   2.747  32.137  0.00  0.00    +0.198 C 
ENDBRANCH  31  43
BRANCH  33  45
ATOM     45  O   UNL     1       3.651   5.871  35.864  0.00  0.00    -0.390 OA
ATOM     46  H   UNL     1       3.329   6.215  35.027  0.00  0.00    +0.210 HD
ENDBRANCH  33  45
ENDBRANCH  28  29
BRANCH  28  47
ATOM     47  O   UNL     1       7.836   4.650  32.826  0.00  0.00    -0.387 OA
ATOM     48  H   UNL     1       7.435   5.517  32.923  0.00  0.00    +0.210 HD
ENDBRANCH  28  47
ENDBRANCH  25  28
ENDBRANCH   1  25
TORSDOF 17
