REMARK VINA RESULT:    -5.818     14.462     15.984
REMARK INTER + INTRA:         -16.366
REMARK INTER:                 -12.475
REMARK INTRA:                  -3.891
REMARK UNBOUND:                -2.725
REMARK  Name = lig_assembled_30.pdb
REMARK  27 active torsions:
REMARK  status: ('A' for Active; 'I' for Inactive)
REMARK    1  A    between atoms: _2  and  _9
REMARK    2  A    between atoms: _4  and  _25
REMARK    3  A    between atoms: _5  and  _18
REMARK    4  A    between atoms: _5  and  _19
REMARK    5  A    between atoms: _6  and  _7
REMARK    6  A    between atoms: _6  and  _25
REMARK    7  A    between atoms: _9  and  _10
REMARK    8  A    between atoms: _10  and  _11
REMARK    9  A    between atoms: _11  and  _12
REMARK   10  A    between atoms: _12  and  _13
REMARK   11  A    between atoms: _13  and  _14
REMARK   12  A    between atoms: _14  and  _15
REMARK   13  A    between atoms: _15  and  _16
REMARK   14  A    between atoms: _16  and  _17
REMARK   15  A    between atoms: _17  and  _18
REMARK   16  A    between atoms: _21  and  _41
REMARK   17  A    between atoms: _23  and  _29
REMARK   18  A    between atoms: _24  and  _28
REMARK   19  A    between atoms: _28  and  _29
REMARK   20  A    between atoms: _31  and  _32
REMARK   21  A    between atoms: _33  and  _34
REMARK   22  A    between atoms: _35  and  _37
REMARK   23  A    between atoms: _37  and  _38
REMARK   24  A    between atoms: _37  and  _39
REMARK   25  A    between atoms: _39  and  _40
REMARK   26  A    between atoms: _39  and  _41
REMARK   27  A    between atoms: _42  and  _44
REMARK                            x       y       z     vdW  Elec       q    Type
REMARK                         _______ _______ _______ _____ _____    ______ ____
ROOT
ATOM      1  C   UNL     1       2.380   0.674  30.045  0.00  0.00    +0.401 C 
ATOM      2  O   UNL     1       1.697  -0.166  30.636  0.00  0.00    -0.226 OA
ATOM      3  N   UNL     1       2.777   1.827  30.585  0.00  0.00    -0.279 N 
ATOM      4  H   UNL     1       3.343   2.447  30.022  0.00  0.00    +0.152 HD
ENDROOT
BRANCH   1   5
ATOM      5  O   UNL     1       2.785   0.415  28.698  0.00  0.00    -0.444 OA
BRANCH   5   6
ATOM      6  C   UNL     1       1.666   0.582  27.822  0.00  0.00    +0.292 C 
BRANCH   6   8
ATOM      7  N   UNL     1       1.589   3.055  27.740  0.00  0.00    -0.131 NA
ATOM      8  C   UNL     1       1.772   1.860  27.095  0.00  0.00    +0.120 A 
ATOM      9  C   UNL     1       2.042   2.101  25.766  0.00  0.00    +0.137 A 
ATOM     10  N   UNL     1       2.007   3.459  25.669  0.00  0.00    -0.251 N 
ATOM     11  N   UNL     1       1.734   4.031  26.853  0.00  0.00    -0.065 NA
BRANCH  10  12
ATOM     12  C   UNL     1       2.181   4.270  24.484  0.00  0.00    +0.145 C 
BRANCH  12  13
ATOM     13  C   UNL     1       1.762   3.512  23.229  0.00  0.00    +0.023 C 
BRANCH  13  14
ATOM     14  C   UNL     1       1.790   4.400  21.988  0.00  0.00    +0.002 C 
BRANCH  14  15
ATOM     15  C   UNL     1       1.759   3.542  20.724  0.00  0.00    +0.000 C 
BRANCH  15  16
ATOM     16  C   UNL     1       0.771   4.084  19.694  0.00  0.00    +0.000 C 
BRANCH  16  17
ATOM     17  C   UNL     1      -0.513   4.562  20.373  0.00  0.00    +0.000 C 
BRANCH  17  18
ATOM     18  C   UNL     1      -1.453   3.391  20.647  0.00  0.00    +0.000 C 
BRANCH  18  19
ATOM     19  C   UNL     1      -1.831   3.305  22.125  0.00  0.00    +0.001 C 
BRANCH  19  20
ATOM     20  C   UNL     1      -1.840   4.697  22.756  0.00  0.00    +0.011 C 
BRANCH  20  21
ATOM     21  C   UNL     1      -2.457   4.685  24.152  0.00  0.00    +0.120 C 
BRANCH  21  22
ATOM     22  C   UNL     1      -1.414   4.922  25.220  0.00  0.00    +0.305 C 
ATOM     23  O   UNL     1      -0.823   5.974  25.412  0.00  0.00    -0.251 OA
BRANCH  22  24
ATOM     24  O   UNL     1      -1.186   3.821  25.971  0.00  0.00    -0.481 OA
ATOM     25  H   UNL     1      -1.295   2.984  25.482  0.00  0.00    +0.295 HD
ENDBRANCH  22  24
ENDBRANCH  21  22
ENDBRANCH  20  21
ENDBRANCH  19  20
ENDBRANCH  18  19
ENDBRANCH  17  18
ENDBRANCH  16  17
ENDBRANCH  15  16
ENDBRANCH  14  15
ENDBRANCH  13  14
ENDBRANCH  12  13
ENDBRANCH  10  12
ENDBRANCH   6   8
ENDBRANCH   5   6
ENDBRANCH   1   5
BRANCH   3  26
ATOM     26  C   UNL     1       2.438   2.246  31.950  0.00  0.00    +0.141 C 
BRANCH  26  27
ATOM     27  C   UNL     1       3.358   3.356  32.449  0.00  0.00    +0.163 C 
BRANCH  27  28
ATOM     28  O   UNL     1       2.753   4.031  33.564  0.00  0.00    -0.388 OA
ATOM     29  H   UNL     1       3.095   4.926  33.620  0.00  0.00    +0.210 HD
ENDBRANCH  27  28
BRANCH  27  30
ATOM     30  C   UNL     1       4.720   2.758  32.841  0.00  0.00    +0.175 C 
BRANCH  30  31
ATOM     31  C   UNL     1       5.355   3.496  34.028  0.00  0.00    +0.176 C 
ATOM     32  O   UNL     1       5.361   4.917  33.720  0.00  0.00    -0.332 OA
ATOM     33  C   UNL     1       5.839   5.796  34.791  0.00  0.00    +0.277 C 
ATOM     34  C   UNL     1       7.246   5.357  35.264  0.00  0.00    +0.110 C 
ATOM     35  C   UNL     1       7.298   3.846  35.573  0.00  0.00    +0.143 C 
ATOM     36  C   UNL     1       6.776   3.026  34.393  0.00  0.00    +0.133 C 
BRANCH  36  37
ATOM     37  N   UNL     1       6.749   1.595  34.732  0.00  0.00    -0.308 N 
ATOM     38  H   UNL     1       6.090   1.289  35.435  0.00  0.00    +0.149 HD
ATOM     39  C   UNL     1       7.537   0.674  34.172  0.00  0.00    +0.210 C 
ATOM     40  C   UNL     1       8.548   1.176  33.124  0.00  0.00    +0.109 C 
ATOM     41  O   UNL     1       7.482  -0.521  34.465  0.00  0.00    -0.276 OA
ENDBRANCH  36  37
BRANCH  33  42
ATOM     42  C   UNL     1       4.865   5.779  35.988  0.00  0.00    +0.414 C 
ATOM     43  O   UNL     1       5.291   5.895  37.136  0.00  0.00    -0.240 OA
ATOM     44  O   UNL     1       3.653   5.650  35.805  0.00  0.00    -0.240 OA
ENDBRANCH  33  42
BRANCH  35  45
ATOM     45  O   UNL     1       8.643   3.459  35.858  0.00  0.00    -0.390 OA
ATOM     46  H   UNL     1       8.816   2.596  35.473  0.00  0.00    +0.210 HD
ENDBRANCH  35  45
BRANCH  33  47
ATOM     47  O   UNL     1       5.934   7.142  34.258  0.00  0.00    -0.343 OA
ATOM     48  C   UNL     1       7.160   7.845  34.585  0.00  0.00    +0.198 C 
ENDBRANCH  33  47
ENDBRANCH  30  31
BRANCH  30  49
ATOM     49  O   UNL     1       5.614   2.774  31.710  0.00  0.00    -0.387 OA
ATOM     50  H   UNL     1       5.934   1.885  31.541  0.00  0.00    +0.210 HD
ENDBRANCH  30  49
ENDBRANCH  27  30
ENDBRANCH  26  27
ENDBRANCH   3  26
TORSDOF 25
