REMARK VINA RESULT:    -5.478     14.752     16.907
REMARK INTER + INTRA:         -13.669
REMARK INTER:                 -11.338
REMARK INTRA:                  -2.332
REMARK UNBOUND:                -3.868
REMARK  Name = lig_assembled_85.pdb
REMARK  19 active torsions:
REMARK  status: ('A' for Active; 'I' for Inactive)
REMARK    1  A    between atoms: _2  and  _10
REMARK    2  A    between atoms: _3  and  _6
REMARK    3  A    between atoms: _3  and  _17
REMARK    4  A    between atoms: _5  and  _23
REMARK    5  A    between atoms: _7  and  _8
REMARK    6  A    between atoms: _7  and  _23
REMARK    7  A    between atoms: _15  and  _16
REMARK    8  A    between atoms: _19  and  _39
REMARK    9  A    between atoms: _21  and  _27
REMARK   10  A    between atoms: _22  and  _26
REMARK   11  A    between atoms: _26  and  _27
REMARK   12  A    between atoms: _29  and  _30
REMARK   13  A    between atoms: _31  and  _32
REMARK   14  A    between atoms: _33  and  _35
REMARK   15  A    between atoms: _35  and  _36
REMARK   16  A    between atoms: _35  and  _37
REMARK   17  A    between atoms: _37  and  _38
REMARK   18  A    between atoms: _37  and  _39
REMARK   19  A    between atoms: _40  and  _42
REMARK                            x       y       z     vdW  Elec       q    Type
REMARK                         _______ _______ _______ _____ _____    ______ ____
ROOT
ATOM      1  C   UNL     1       3.063   2.887  32.206  0.00  0.00    +0.141 C 
ENDROOT
BRANCH   1   4
ATOM      2  C   UNL     1       1.091   4.085  31.324  0.00  0.00    +0.401 C 
ATOM      3  O   UNL     1       0.526   4.154  32.418  0.00  0.00    -0.226 OA
ATOM      4  N   UNL     1       2.276   3.505  31.132  0.00  0.00    -0.279 N 
ATOM      5  H   UNL     1       2.654   3.490  30.195  0.00  0.00    +0.152 HD
BRANCH   2   6
ATOM      6  O   UNL     1       0.452   4.651  30.176  0.00  0.00    -0.444 OA
BRANCH   6   7
ATOM      7  C   UNL     1      -0.134   3.608  29.393  0.00  0.00    +0.292 C 
BRANCH   7   9
ATOM      8  N   UNL     1       1.855   3.893  27.959  0.00  0.00    -0.131 NA
ATOM      9  C   UNL     1       0.556   3.495  28.096  0.00  0.00    +0.121 A 
ATOM     10  C   UNL     1       0.112   2.969  26.904  0.00  0.00    +0.143 A 
ATOM     11  N   UNL     1       1.190   3.065  26.060  0.00  0.00    -0.219 N 
ATOM     12  N   UNL     1       2.241   3.602  26.725  0.00  0.00    -0.060 NA
BRANCH  11  13
ATOM     13  C   UNL     1       1.335   2.613  24.730  0.00  0.00    +0.080 A 
ATOM     14  C   UNL     1       1.646   1.291  24.376  0.00  0.00    +0.062 A 
ATOM     15  C   UNL     1       2.006   1.038  23.031  0.00  0.00    +0.016 A 
ATOM     16  C   UNL     1       2.031   2.053  22.069  0.00  0.00    +0.021 A 
ATOM     17  C   UNL     1       1.649   3.338  22.423  0.00  0.00    +0.043 A 
ATOM     18 CL   UNL     1       1.708   4.605  21.262  0.00  0.00    -0.083 Cl
ATOM     19  C   UNL     1       1.276   3.616  23.735  0.00  0.00    +0.048 A 
BRANCH  14  20
ATOM     20  C   UNL     1       1.731   0.086  25.255  0.00  0.00    +0.248 C 
ATOM     21  O   UNL     1       2.874  -0.234  25.592  0.00  0.00    -0.270 OA
ATOM     22  N   UNL     1       0.625  -0.684  25.631  0.00  0.00    -0.304 N 
ATOM     23  C   UNL     1      -0.785  -0.381  25.431  0.00  0.00    +0.132 C 
ATOM     24  C   UNL     1       0.898  -1.834  26.487  0.00  0.00    +0.132 C 
ENDBRANCH  14  20
ENDBRANCH  11  13
ENDBRANCH   7   9
ENDBRANCH   6   7
ENDBRANCH   2   6
ENDBRANCH   1   4
BRANCH   1  25
ATOM     25  C   UNL     1       4.091   3.853  32.786  0.00  0.00    +0.163 C 
BRANCH  25  26
ATOM     26  O   UNL     1       3.592   4.427  34.006  0.00  0.00    -0.388 OA
ATOM     27  H   UNL     1       2.917   5.079  33.801  0.00  0.00    +0.210 HD
ENDBRANCH  25  26
BRANCH  25  28
ATOM     28  C   UNL     1       5.416   3.110  33.029  0.00  0.00    +0.175 C 
BRANCH  28  29
ATOM     29  C   UNL     1       6.077   3.525  34.352  0.00  0.00    +0.176 C 
ATOM     30  O   UNL     1       6.577   4.881  34.195  0.00  0.00    -0.332 OA
ATOM     31  C   UNL     1       7.152   5.488  35.400  0.00  0.00    +0.277 C 
ATOM     32  C   UNL     1       8.265   4.583  35.983  0.00  0.00    +0.110 C 
ATOM     33  C   UNL     1       7.790   3.123  36.138  0.00  0.00    +0.143 C 
ATOM     34  C   UNL     1       7.208   2.594  34.827  0.00  0.00    +0.133 C 
BRANCH  34  35
ATOM     35  N   UNL     1       6.679   1.233  35.010  0.00  0.00    -0.308 N 
ATOM     36  H   UNL     1       5.994   1.087  35.739  0.00  0.00    +0.149 HD
ATOM     37  C   UNL     1       7.045   0.178  34.278  0.00  0.00    +0.210 C 
ATOM     38  C   UNL     1       8.111   0.428  33.193  0.00  0.00    +0.109 C 
ATOM     39  O   UNL     1       6.575  -0.948  34.444  0.00  0.00    -0.276 OA
ENDBRANCH  34  35
BRANCH  31  40
ATOM     40  C   UNL     1       6.063   5.719  36.468  0.00  0.00    +0.414 C 
ATOM     41  O   UNL     1       4.874   5.705  36.155  0.00  0.00    -0.240 OA
ATOM     42  O   UNL     1       6.374   5.920  37.643  0.00  0.00    -0.240 OA
ENDBRANCH  31  40
BRANCH  33  43
ATOM     43  O   UNL     1       8.887   2.298  36.533  0.00  0.00    -0.390 OA
ATOM     44  H   UNL     1       9.209   1.808  35.773  0.00  0.00    +0.210 HD
ENDBRANCH  33  43
BRANCH  31  45
ATOM     45  O   UNL     1       7.745   6.758  35.024  0.00  0.00    -0.343 OA
ATOM     46  C   UNL     1       6.820   7.722  34.461  0.00  0.00    +0.198 C 
ENDBRANCH  31  45
ENDBRANCH  28  29
BRANCH  28  47
ATOM     47  O   UNL     1       6.320   3.335  31.930  0.00  0.00    -0.387 OA
ATOM     48  H   UNL     1       6.921   4.051  32.150  0.00  0.00    +0.210 HD
ENDBRANCH  28  47
ENDBRANCH  25  28
ENDBRANCH   1  25
TORSDOF 15
