REMARK VINA RESULT:    -6.379     15.125     17.289
REMARK INTER + INTRA:         -13.347
REMARK INTER:                 -11.428
REMARK INTRA:                  -1.919
REMARK UNBOUND:                -1.933
REMARK  Name = lig_assembled_39.pdb
REMARK  17 active torsions:
REMARK  status: ('A' for Active; 'I' for Inactive)
REMARK    1  A    between atoms: _2  and  _9
REMARK    2  A    between atoms: _4  and  _19
REMARK    3  A    between atoms: _6  and  _7
REMARK    4  A    between atoms: _6  and  _19
REMARK    5  A    between atoms: _9  and  _10
REMARK    6  A    between atoms: _15  and  _35
REMARK    7  A    between atoms: _17  and  _23
REMARK    8  A    between atoms: _18  and  _22
REMARK    9  A    between atoms: _22  and  _23
REMARK   10  A    between atoms: _25  and  _26
REMARK   11  A    between atoms: _27  and  _28
REMARK   12  A    between atoms: _29  and  _31
REMARK   13  A    between atoms: _31  and  _32
REMARK   14  A    between atoms: _31  and  _33
REMARK   15  A    between atoms: _33  and  _34
REMARK   16  A    between atoms: _33  and  _35
REMARK   17  A    between atoms: _36  and  _38
REMARK                            x       y       z     vdW  Elec       q    Type
REMARK                         _______ _______ _______ _____ _____    ______ ____
ROOT
ATOM      1  C   UNL     1       2.994   2.873  32.861  0.00  0.00    +0.163 C 
ENDROOT
BRANCH   1   2
ATOM      2  O   UNL     1       3.666   2.105  31.850  0.00  0.00    -0.388 OA
ATOM      3  H   UNL     1       3.062   1.450  31.491  0.00  0.00    +0.210 HD
ENDBRANCH   1   2
BRANCH   1   4
ATOM      4  C   UNL     1       1.781   3.578  32.261  0.00  0.00    +0.141 C 
BRANCH   4   7
ATOM      5  C   UNL     1       1.630   3.171  29.829  0.00  0.00    +0.401 C 
ATOM      6  O   UNL     1       1.080   2.074  29.951  0.00  0.00    -0.226 OA
ATOM      7  N   UNL     1       1.998   3.939  30.855  0.00  0.00    -0.279 N 
ATOM      8  H   UNL     1       2.452   4.819  30.653  0.00  0.00    +0.152 HD
BRANCH   5   9
ATOM      9  O   UNL     1       1.904   3.668  28.516  0.00  0.00    -0.444 OA
BRANCH   9  10
ATOM     10  C   UNL     1       0.861   3.265  27.625  0.00  0.00    +0.292 C 
BRANCH  10  12
ATOM     11  N   UNL     1       2.312   3.908  25.726  0.00  0.00    -0.131 NA
ATOM     12  C   UNL     1       1.065   3.859  26.291  0.00  0.00    +0.120 A 
ATOM     13  C   UNL     1       0.152   4.406  25.418  0.00  0.00    +0.137 A 
ATOM     14  N   UNL     1       0.893   4.693  24.309  0.00  0.00    -0.247 N 
ATOM     15  N   UNL     1       2.200   4.449  24.521  0.00  0.00    -0.065 NA
BRANCH  14  16
ATOM     16  C   UNL     1       0.420   5.130  23.004  0.00  0.00    +0.181 C 
BRANCH  16  17
ATOM     17  C   UNL     1       0.689   4.122  21.901  0.00  0.00    -0.012 A 
ATOM     18  C   UNL     1       1.832   4.228  21.083  0.00  0.00    +0.006 A 
ATOM     19  C   UNL     1       2.088   3.310  20.061  0.00  0.00    +0.000 A 
ATOM     20  C   UNL     1       1.195   2.277  19.815  0.00  0.00    +0.001 A 
ATOM     21  C   UNL     1       0.034   2.172  20.579  0.00  0.00    +0.015 A 
ATOM     22  C   UNL     1      -0.225   3.092  21.605  0.00  0.00    +0.023 A 
ATOM     23 BR   UNL     1      -1.867   2.884  22.541  0.00  0.00    -0.050 Br
ENDBRANCH  16  17
ENDBRANCH  14  16
ENDBRANCH  10  12
ENDBRANCH   9  10
ENDBRANCH   5   9
ENDBRANCH   4   7
ENDBRANCH   1   4
BRANCH   1  24
ATOM     24  C   UNL     1       3.940   3.916  33.479  0.00  0.00    +0.175 C 
BRANCH  24  25
ATOM     25  C   UNL     1       5.364   3.369  33.659  0.00  0.00    +0.176 C 
ATOM     26  O   UNL     1       5.260   2.003  34.148  0.00  0.00    -0.332 OA
ATOM     27  C   UNL     1       6.528   1.279  34.279  0.00  0.00    +0.277 C 
ATOM     28  C   UNL     1       7.517   2.077  35.164  0.00  0.00    +0.110 C 
ATOM     29  C   UNL     1       7.637   3.544  34.702  0.00  0.00    +0.143 C 
ATOM     30  C   UNL     1       6.260   4.200  34.596  0.00  0.00    +0.133 C 
BRANCH  30  31
ATOM     31  N   UNL     1       6.381   5.570  34.073  0.00  0.00    -0.308 N 
ATOM     32  H   UNL     1       6.654   5.684  33.107  0.00  0.00    +0.149 HD
ATOM     33  C   UNL     1       6.154   6.673  34.792  0.00  0.00    +0.210 C 
ATOM     34  C   UNL     1       5.765   6.467  36.268  0.00  0.00    +0.109 C 
ATOM     35  O   UNL     1       6.248   7.808  34.323  0.00  0.00    -0.276 OA
ENDBRANCH  30  31
BRANCH  27  36
ATOM     36  C   UNL     1       7.161   1.027  32.895  0.00  0.00    +0.414 C 
ATOM     37  O   UNL     1       6.447   0.804  31.918  0.00  0.00    -0.240 OA
ATOM     38  O   UNL     1       8.384   1.048  32.755  0.00  0.00    -0.240 OA
ENDBRANCH  27  36
BRANCH  27  39
ATOM     39  O   UNL     1       6.254   0.011  34.929  0.00  0.00    -0.343 OA
ATOM     40  C   UNL     1       4.880  -0.442  34.834  0.00  0.00    +0.198 C 
ENDBRANCH  27  39
BRANCH  29  41
ATOM     41  O   UNL     1       8.437   4.277  35.631  0.00  0.00    -0.390 OA
ATOM     42  H   UNL     1       8.606   3.736  36.406  0.00  0.00    +0.210 HD
ENDBRANCH  29  41
ENDBRANCH  24  25
BRANCH  24  43
ATOM     43  O   UNL     1       3.420   4.372  34.744  0.00  0.00    -0.387 OA
ATOM     44  H   UNL     1       3.160   5.293  34.670  0.00  0.00    +0.210 HD
ENDBRANCH  24  43
ENDBRANCH   1  24
TORSDOF 15
