REMARK VINA RESULT:    -6.726     14.045     17.463
REMARK INTER + INTRA:         -15.123
REMARK INTER:                 -11.903
REMARK INTRA:                  -3.219
REMARK UNBOUND:                -2.499
REMARK  Name = lig_assembled_64.pdb
REMARK  19 active torsions:
REMARK  status: ('A' for Active; 'I' for Inactive)
REMARK    1  A    between atoms: _2  and  _10
REMARK    2  A    between atoms: _5  and  _27
REMARK    3  A    between atoms: _7  and  _8
REMARK    4  A    between atoms: _7  and  _27
REMARK    5  A    between atoms: _12  and  _13
REMARK    6  A    between atoms: _13  and  _21
REMARK    7  A    between atoms: _14  and  _15
REMARK    8  A    between atoms: _23  and  _43
REMARK    9  A    between atoms: _25  and  _31
REMARK   10  A    between atoms: _26  and  _30
REMARK   11  A    between atoms: _30  and  _31
REMARK   12  A    between atoms: _33  and  _34
REMARK   13  A    between atoms: _35  and  _36
REMARK   14  A    between atoms: _37  and  _39
REMARK   15  A    between atoms: _39  and  _40
REMARK   16  A    between atoms: _39  and  _41
REMARK   17  A    between atoms: _41  and  _42
REMARK   18  A    between atoms: _41  and  _43
REMARK   19  A    between atoms: _44  and  _46
REMARK                            x       y       z     vdW  Elec       q    Type
REMARK                         _______ _______ _______ _____ _____    ______ ____
ROOT
ATOM      1  C   UNL     1      17.552   5.415  23.015  0.00  0.00    +0.401 C 
ATOM      2  O   UNL     1      16.796   5.433  22.041  0.00  0.00    -0.226 OA
ATOM      3  N   UNL     1      17.953   4.300  23.627  0.00  0.00    -0.279 N 
ATOM      4  H   UNL     1      18.582   4.388  24.413  0.00  0.00    +0.152 HD
ENDROOT
BRANCH   3   5
ATOM      5  C   UNL     1      17.531   2.953  23.225  0.00  0.00    +0.141 C 
BRANCH   5   6
ATOM      6  C   UNL     1      18.723   2.037  22.968  0.00  0.00    +0.163 C 
BRANCH   6   7
ATOM      7  O   UNL     1      19.919   2.623  23.507  0.00  0.00    -0.388 OA
ATOM      8  H   UNL     1      19.740   2.964  24.387  0.00  0.00    +0.210 HD
ENDBRANCH   6   7
BRANCH   6   9
ATOM      9  C   UNL     1      18.455   0.658  23.595  0.00  0.00    +0.175 C 
BRANCH   9  10
ATOM     10  C   UNL     1      18.128   0.757  25.092  0.00  0.00    +0.176 C 
ATOM     11  O   UNL     1      19.322   1.218  25.781  0.00  0.00    -0.332 OA
ATOM     12  C   UNL     1      19.167   1.475  27.216  0.00  0.00    +0.277 C 
ATOM     13  C   UNL     1      18.600   0.224  27.931  0.00  0.00    +0.110 C 
ATOM     14  C   UNL     1      17.346  -0.322  27.216  0.00  0.00    +0.143 C 
ATOM     15  C   UNL     1      17.619  -0.549  25.728  0.00  0.00    +0.133 C 
BRANCH  15  16
ATOM     16  N   UNL     1      16.393  -0.986  25.041  0.00  0.00    -0.308 N 
ATOM     17  H   UNL     1      15.590  -0.374  25.075  0.00  0.00    +0.149 HD
ATOM     18  C   UNL     1      16.273  -2.138  24.375  0.00  0.00    +0.210 C 
ATOM     19  C   UNL     1      17.507  -3.060  24.365  0.00  0.00    +0.109 C 
ATOM     20  O   UNL     1      15.239  -2.471  23.796  0.00  0.00    -0.276 OA
ENDBRANCH  15  16
BRANCH  12  21
ATOM     21  C   UNL     1      18.230   2.676  27.459  0.00  0.00    +0.414 C 
ATOM     22  O   UNL     1      17.897   3.402  26.522  0.00  0.00    -0.240 OA
ATOM     23  O   UNL     1      17.808   2.920  28.590  0.00  0.00    -0.240 OA
ENDBRANCH  12  21
BRANCH  12  24
ATOM     24  O   UNL     1      20.479   1.760  27.766  0.00  0.00    -0.343 OA
ATOM     25  C   UNL     1      21.514   2.009  26.781  0.00  0.00    +0.198 C 
ENDBRANCH  12  24
BRANCH  14  26
ATOM     26  O   UNL     1      16.947  -1.555  27.815  0.00  0.00    -0.390 OA
ATOM     27  H   UNL     1      16.910  -1.451  28.769  0.00  0.00    +0.210 HD
ENDBRANCH  14  26
ENDBRANCH   9  10
BRANCH   9  28
ATOM     28  O   UNL     1      19.589  -0.209  23.391  0.00  0.00    -0.387 OA
ATOM     29  H   UNL     1      19.818  -0.638  24.219  0.00  0.00    +0.210 HD
ENDBRANCH   9  28
ENDBRANCH   6   9
ENDBRANCH   5   6
ENDBRANCH   3   5
BRANCH   1  30
ATOM     30  O   UNL     1      18.045   6.653  23.533  0.00  0.00    -0.444 OA
BRANCH  30  31
ATOM     31  C   UNL     1      19.347   6.453  24.090  0.00  0.00    +0.292 C 
BRANCH  31  33
ATOM     32  N   UNL     1      19.987   8.195  25.737  0.00  0.00    -0.131 NA
ATOM     33  C   UNL     1      19.411   6.988  25.463  0.00  0.00    +0.121 A 
ATOM     34  C   UNL     1      18.948   6.437  26.635  0.00  0.00    +0.143 A 
ATOM     35  N   UNL     1      19.275   7.349  27.610  0.00  0.00    -0.220 N 
ATOM     36  N   UNL     1      19.899   8.409  27.044  0.00  0.00    -0.060 NA
BRANCH  35  37
ATOM     37  C   UNL     1      19.031   7.272  29.003  0.00  0.00    +0.071 A 
ATOM     38  C   UNL     1      19.112   6.052  29.665  0.00  0.00    +0.063 A 
ATOM     39  CA  UNL     1      18.863   6.046  31.023  0.00  0.00    +0.150 A 
ATOM     40  N   UNL     1      18.537   7.145  31.761  0.00  0.00    -0.240 NA
ATOM     41  C   UNL     1      18.446   8.333  31.104  0.00  0.00    +0.074 A 
ATOM     42  C   UNL     1      18.700   8.426  29.732  0.00  0.00    +0.056 A 
BRANCH  41  43
ATOM     43  C   UNL     1      18.039   9.494  31.932  0.00  0.00    +0.000 A 
ATOM     44  C   UNL     1      18.859  10.628  32.084  0.00  0.00    +0.010 A 
ATOM     45  C   UNL     1      18.447  11.734  32.839  0.00  0.00    +0.001 A 
ATOM     46  C   UNL     1      17.203  11.733  33.460  0.00  0.00    +0.000 A 
ATOM     47  C   UNL     1      16.373  10.623  33.334  0.00  0.00    +0.001 A 
ATOM     48  C   UNL     1      16.788   9.519  32.580  0.00  0.00    +0.010 A 
ENDBRANCH  41  43
BRANCH  39  49
ATOM     49  C   UNL     1      18.938   4.758  31.773  0.00  0.00    +0.355 C 
ATOM     50  OXT UNL     1      18.883   4.662  32.986  0.00  0.00    -0.243 OA
BRANCH  49  51
ATOM     51  O   UNL     1      19.077   3.716  30.922  0.00  0.00    -0.476 OA
ATOM     52  H   UNL     1      18.302   3.115  31.022  0.00  0.00    +0.295 HD
ENDBRANCH  49  51
ENDBRANCH  39  49
ENDBRANCH  35  37
ENDBRANCH  31  33
ENDBRANCH  30  31
ENDBRANCH   1  30
TORSDOF 17
