REMARK VINA RESULT:    -5.669     22.406     25.494
REMARK INTER + INTRA:         -12.002
REMARK INTER:                  -9.811
REMARK INTRA:                  -2.191
REMARK UNBOUND:                -2.191
REMARK  Name = lig_assembled_48.pdb
REMARK  16 active torsions:
REMARK  status: ('A' for Active; 'I' for Inactive)
REMARK    1  A    between atoms: _2  and  _9
REMARK    2  A    between atoms: _4  and  _18
REMARK    3  A    between atoms: _6  and  _7
REMARK    4  A    between atoms: _6  and  _18
REMARK    5  A    between atoms: _14  and  _34
REMARK    6  A    between atoms: _16  and  _22
REMARK    7  A    between atoms: _17  and  _21
REMARK    8  A    between atoms: _21  and  _22
REMARK    9  A    between atoms: _24  and  _25
REMARK   10  A    between atoms: _26  and  _27
REMARK   11  A    between atoms: _28  and  _30
REMARK   12  A    between atoms: _30  and  _31
REMARK   13  A    between atoms: _30  and  _32
REMARK   14  A    between atoms: _32  and  _33
REMARK   15  A    between atoms: _32  and  _34
REMARK   16  A    between atoms: _35  and  _37
REMARK                            x       y       z     vdW  Elec       q    Type
REMARK                         _______ _______ _______ _____ _____    ______ ____
ROOT
ATOM      1  C   UNL     1       2.402  16.303   8.531  0.00  0.00    +0.163 C 
ENDROOT
BRANCH   1   2
ATOM      2  O   UNL     1       2.030  15.800   7.237  0.00  0.00    -0.388 OA
ATOM      3  H   UNL     1       1.073  15.758   7.173  0.00  0.00    +0.210 HD
ENDBRANCH   1   2
BRANCH   1   4
ATOM      4  C   UNL     1       3.764  16.986   8.453  0.00  0.00    +0.141 C 
BRANCH   4   7
ATOM      5  C   UNL     1       5.282  17.060   6.504  0.00  0.00    +0.401 C 
ATOM      6  O   UNL     1       5.221  18.285   6.385  0.00  0.00    -0.226 OA
ATOM      7  N   UNL     1       4.629  16.368   7.439  0.00  0.00    -0.279 N 
ATOM      8  H   UNL     1       4.734  15.364   7.451  0.00  0.00    +0.152 HD
BRANCH   5   9
ATOM      9  O   UNL     1       6.093  16.312   5.594  0.00  0.00    -0.444 OA
BRANCH   9  10
ATOM     10  C   UNL     1       5.326  15.981   4.433  0.00  0.00    +0.292 C 
BRANCH  10  12
ATOM     11  N   UNL     1       3.802  14.186   5.180  0.00  0.00    -0.131 NA
ATOM     12  C   UNL     1       4.914  14.566   4.485  0.00  0.00    +0.120 A 
ATOM     13  C   UNL     1       5.478  13.457   3.894  0.00  0.00    +0.137 A 
ATOM     14  N   UNL     1       4.611  12.446   4.186  0.00  0.00    -0.248 N 
ATOM     15  N   UNL     1       3.644  12.880   5.023  0.00  0.00    -0.065 NA
BRANCH  14  16
ATOM     16  C   UNL     1       4.555  11.071   3.703  0.00  0.00    +0.109 C 
ATOM     17  C   UNL     1       5.813  10.286   4.122  0.00  0.00    +0.027 C 
ATOM     18  C   UNL     1       5.807   9.978   5.618  0.00  0.00    +0.002 C 
ATOM     19  C   UNL     1       4.585   9.150   5.997  0.00  0.00    +0.000 C 
ATOM     20  C   UNL     1       3.278   9.803   5.556  0.00  0.00    +0.002 C 
ATOM     21  C   UNL     1       3.297  10.272   4.097  0.00  0.00    +0.027 C 
ENDBRANCH  14  16
ENDBRANCH  10  12
ENDBRANCH   9  10
ENDBRANCH   5   9
ENDBRANCH   4   7
ENDBRANCH   1   4
BRANCH   1  22
ATOM     22  C   UNL     1       2.455  15.168   9.568  0.00  0.00    +0.175 C 
BRANCH  22  23
ATOM     23  C   UNL     1       1.222  15.166  10.484  0.00  0.00    +0.176 C 
ATOM     24  O   UNL     1       0.077  14.747   9.692  0.00  0.00    -0.332 OA
ATOM     25  C   UNL     1      -1.179  14.583  10.430  0.00  0.00    +0.277 C 
ATOM     26  C   UNL     1      -1.524  15.878  11.205  0.00  0.00    +0.110 C 
ATOM     27  C   UNL     1      -0.326  16.380  12.038  0.00  0.00    +0.143 C 
ATOM     28  C   UNL     1       0.927  16.512  11.172  0.00  0.00    +0.133 C 
BRANCH  28  29
ATOM     29  N   UNL     1       2.082  16.907  11.994  0.00  0.00    -0.308 N 
ATOM     30  H   UNL     1       2.457  16.225  12.639  0.00  0.00    +0.149 HD
ATOM     31  C   UNL     1       2.667  18.107  11.943  0.00  0.00    +0.210 C 
ATOM     32  C   UNL     1       2.055  19.131  10.969  0.00  0.00    +0.109 C 
ATOM     33  O   UNL     1       3.642  18.405  12.633  0.00  0.00    -0.276 OA
ENDBRANCH  28  29
BRANCH  25  34
ATOM     34  C   UNL     1      -1.082  13.401  11.417  0.00  0.00    +0.414 C 
ATOM     35  O   UNL     1      -0.848  12.266  11.005  0.00  0.00    -0.240 OA
ATOM     36  O   UNL     1      -1.239  13.583  12.625  0.00  0.00    -0.240 OA
ENDBRANCH  25  34
BRANCH  27  37
ATOM     37  O   UNL     1      -0.637  17.650  12.612  0.00  0.00    -0.390 OA
ATOM     38  H   UNL     1      -0.005  18.304  12.305  0.00  0.00    +0.210 HD
ENDBRANCH  27  37
BRANCH  25  39
ATOM     39  O   UNL     1      -2.235  14.330   9.468  0.00  0.00    -0.343 OA
ATOM     40  C   UNL     1      -3.582  14.447   9.992  0.00  0.00    +0.198 C 
ENDBRANCH  25  39
ENDBRANCH  22  23
BRANCH  22  41
ATOM     41  O   UNL     1       3.658  15.270  10.355  0.00  0.00    -0.387 OA
ATOM     42  H   UNL     1       4.424  15.198   9.780  0.00  0.00    +0.210 HD
ENDBRANCH  22  41
ENDBRANCH   1  22
TORSDOF 14
