REMARK VINA RESULT:    -5.715     14.441     16.111
REMARK INTER + INTRA:         -14.146
REMARK INTER:                 -11.986
REMARK INTRA:                  -2.160
REMARK UNBOUND:                -3.588
REMARK  Name = lig_assembled_58.pdb
REMARK  18 active torsions:
REMARK  status: ('A' for Active; 'I' for Inactive)
REMARK    1  A    between atoms: _2  and  _9
REMARK    2  A    between atoms: _4  and  _25
REMARK    3  A    between atoms: _6  and  _7
REMARK    4  A    between atoms: _6  and  _25
REMARK    5  A    between atoms: _9  and  _10
REMARK    6  A    between atoms: _9  and  _16
REMARK    7  A    between atoms: _21  and  _41
REMARK    8  A    between atoms: _23  and  _29
REMARK    9  A    between atoms: _24  and  _28
REMARK   10  A    between atoms: _28  and  _29
REMARK   11  A    between atoms: _31  and  _32
REMARK   12  A    between atoms: _33  and  _34
REMARK   13  A    between atoms: _35  and  _37
REMARK   14  A    between atoms: _37  and  _38
REMARK   15  A    between atoms: _37  and  _39
REMARK   16  A    between atoms: _39  and  _40
REMARK   17  A    between atoms: _39  and  _41
REMARK   18  A    between atoms: _42  and  _44
REMARK                            x       y       z     vdW  Elec       q    Type
REMARK                         _______ _______ _______ _____ _____    ______ ____
ROOT
ATOM      1  C   UNL     1       1.201   3.276  33.348  0.00  0.00    +0.141 C 
ENDROOT
BRANCH   1   4
ATOM      2  C   UNL     1      -0.359   4.115  31.625  0.00  0.00    +0.401 C 
ATOM      3  O   UNL     1      -1.356   4.014  32.345  0.00  0.00    -0.226 OA
ATOM      4  N   UNL     1       0.875   3.787  32.011  0.00  0.00    -0.279 N 
ATOM      5  H   UNL     1       1.627   3.895  31.346  0.00  0.00    +0.152 HD
BRANCH   2   6
ATOM      6  O   UNL     1      -0.512   4.607  30.292  0.00  0.00    -0.444 OA
BRANCH   6   7
ATOM      7  C   UNL     1      -0.642   3.506  29.388  0.00  0.00    +0.292 C 
BRANCH   7   9
ATOM      8  N   UNL     1       1.712   3.793  28.644  0.00  0.00    -0.131 NA
ATOM      9  C   UNL     1       0.394   3.579  28.341  0.00  0.00    +0.120 A 
ATOM     10  C   UNL     1       0.269   3.423  26.981  0.00  0.00    +0.138 A 
ATOM     11  N   UNL     1       1.558   3.395  26.523  0.00  0.00    -0.240 N 
ATOM     12  N   UNL     1       2.416   3.700  27.523  0.00  0.00    -0.064 NA
BRANCH  11  13
ATOM     13  C   UNL     1       2.068   3.056  25.182  0.00  0.00    +0.169 C 
BRANCH  13  14
ATOM     14  C   UNL     1       2.141   1.531  25.019  0.00  0.00    -0.019 A 
ATOM     15  C   UNL     1       2.270   0.705  26.148  0.00  0.00    +0.006 A 
ATOM     16  C   UNL     1       2.395  -0.679  26.007  0.00  0.00    +0.000 A 
ATOM     17  C   UNL     1       2.380  -1.262  24.741  0.00  0.00    +0.000 A 
ATOM     18  C   UNL     1       2.256  -0.462  23.611  0.00  0.00    +0.000 A 
ATOM     19  C   UNL     1       2.149   0.922  23.749  0.00  0.00    +0.006 A 
ENDBRANCH  13  14
BRANCH  13  20
ATOM     20  C   UNL     1       1.322   3.792  24.060  0.00  0.00    -0.019 A 
ATOM     21  C   UNL     1      -0.002   3.457  23.724  0.00  0.00    +0.006 A 
ATOM     22  C   UNL     1      -0.676   4.129  22.700  0.00  0.00    +0.000 A 
ATOM     23  C   UNL     1      -0.049   5.162  22.010  0.00  0.00    +0.000 A 
ATOM     24  C   UNL     1       1.238   5.547  22.362  0.00  0.00    +0.000 A 
ATOM     25  C   UNL     1       1.908   4.882  23.388  0.00  0.00    +0.006 A 
ENDBRANCH  13  20
ENDBRANCH  11  13
ENDBRANCH   7   9
ENDBRANCH   6   7
ENDBRANCH   2   6
ENDBRANCH   1   4
BRANCH   1  26
ATOM     26  C   UNL     1       2.611   2.697  33.407  0.00  0.00    +0.163 C 
BRANCH  26  27
ATOM     27  O   UNL     1       2.946   2.090  32.149  0.00  0.00    -0.388 OA
ATOM     28  H   UNL     1       3.895   2.137  32.012  0.00  0.00    +0.210 HD
ENDBRANCH  26  27
BRANCH  26  29
ATOM     29  C   UNL     1       3.610   3.812  33.763  0.00  0.00    +0.175 C 
BRANCH  29  30
ATOM     30  C   UNL     1       5.062   3.311  33.753  0.00  0.00    +0.176 C 
ATOM     31  O   UNL     1       5.066   1.941  34.240  0.00  0.00    -0.332 OA
ATOM     32  C   UNL     1       6.362   1.258  34.202  0.00  0.00    +0.277 C 
ATOM     33  C   UNL     1       7.432   2.085  34.956  0.00  0.00    +0.110 C 
ATOM     34  C   UNL     1       7.444   3.557  34.495  0.00  0.00    +0.143 C 
ATOM     35  C   UNL     1       6.045   4.168  34.573  0.00  0.00    +0.133 C 
BRANCH  35  36
ATOM     36  N   UNL     1       6.053   5.543  34.049  0.00  0.00    -0.308 N 
ATOM     37  H   UNL     1       6.148   5.667  33.051  0.00  0.00    +0.149 HD
ATOM     38  C   UNL     1       5.942   6.638  34.806  0.00  0.00    +0.210 C 
ATOM     39  C   UNL     1       5.824   6.416  36.326  0.00  0.00    +0.109 C 
ATOM     40  O   UNL     1       5.937   7.777  34.338  0.00  0.00    -0.276 OA
ENDBRANCH  35  36
BRANCH  32  41
ATOM     41  C   UNL     1       6.818   1.032  32.745  0.00  0.00    +0.414 C 
ATOM     42  O   UNL     1       5.994   1.020  31.832  0.00  0.00    -0.240 OA
ATOM     43  O   UNL     1       8.010   0.862  32.483  0.00  0.00    -0.240 OA
ENDBRANCH  32  41
BRANCH  34  44
ATOM     44  O   UNL     1       8.334   4.313  35.318  0.00  0.00    -0.390 OA
ATOM     45  H   UNL     1       9.168   3.845  35.401  0.00  0.00    +0.210 HD
ENDBRANCH  34  44
BRANCH  32  46
ATOM     46  O   UNL     1       6.216  -0.021  34.871  0.00  0.00    -0.343 OA
ATOM     47  C   UNL     1       6.732  -0.065  36.226  0.00  0.00    +0.198 C 
ENDBRANCH  32  46
ENDBRANCH  29  30
BRANCH  29  48
ATOM     48  O   UNL     1       3.288   4.375  35.050  0.00  0.00    -0.387 OA
ATOM     49  H   UNL     1       3.880   4.015  35.715  0.00  0.00    +0.210 HD
ENDBRANCH  29  48
ENDBRANCH  26  29
ENDBRANCH   1  26
TORSDOF 16
