REMARK VINA RESULT:    -6.004      2.383      3.778
REMARK INTER + INTRA:         -14.014
REMARK INTER:                 -12.056
REMARK INTRA:                  -1.958
REMARK UNBOUND:                -2.569
REMARK  Name = lig_assembled_18.pdb
REMARK  19 active torsions:
REMARK  status: ('A' for Active; 'I' for Inactive)
REMARK    1  A    between atoms: _2  and  _10
REMARK    2  A    between atoms: _3  and  _12
REMARK    3  A    between atoms: _5  and  _21
REMARK    4  A    between atoms: _7  and  _8
REMARK    5  A    between atoms: _7  and  _21
REMARK    6  A    between atoms: _10  and  _11
REMARK    7  A    between atoms: _12  and  _13
REMARK    8  A    between atoms: _17  and  _37
REMARK    9  A    between atoms: _19  and  _25
REMARK   10  A    between atoms: _20  and  _24
REMARK   11  A    between atoms: _24  and  _25
REMARK   12  A    between atoms: _27  and  _28
REMARK   13  A    between atoms: _29  and  _30
REMARK   14  A    between atoms: _31  and  _33
REMARK   15  A    between atoms: _33  and  _34
REMARK   16  A    between atoms: _33  and  _35
REMARK   17  A    between atoms: _35  and  _36
REMARK   18  A    between atoms: _35  and  _37
REMARK   19  A    between atoms: _38  and  _40
REMARK                            x       y       z     vdW  Elec       q    Type
REMARK                         _______ _______ _______ _____ _____    ______ ____
ROOT
ATOM      1  C   UNL     1       7.463   2.405  34.291  0.00  0.00    +0.163 C 
ENDROOT
BRANCH   1   2
ATOM      2  O   UNL     1       8.401   2.123  35.342  0.00  0.00    -0.388 OA
ATOM      3  H   UNL     1       7.947   2.131  36.188  0.00  0.00    +0.210 HD
ENDBRANCH   1   2
BRANCH   1   4
ATOM      4  C   UNL     1       7.771   3.759  33.628  0.00  0.00    +0.175 C 
BRANCH   4   5
ATOM      5  C   UNL     1       7.143   4.933  34.394  0.00  0.00    +0.176 C 
ATOM      6  O   UNL     1       7.863   5.086  35.648  0.00  0.00    -0.332 OA
ATOM      7  C   UNL     1       7.468   6.233  36.470  0.00  0.00    +0.277 C 
ATOM      8  C   UNL     1       5.944   6.204  36.743  0.00  0.00    +0.110 C 
ATOM      9  C   UNL     1       5.137   6.011  35.442  0.00  0.00    +0.143 C 
ATOM     10  C   UNL     1       5.633   4.792  34.664  0.00  0.00    +0.133 C 
BRANCH  10  11
ATOM     11  N   UNL     1       4.915   4.669  33.386  0.00  0.00    -0.308 N 
ATOM     12  H   UNL     1       5.131   5.336  32.658  0.00  0.00    +0.149 HD
ATOM     13  C   UNL     1       3.996   3.736  33.125  0.00  0.00    +0.210 C 
ATOM     14  C   UNL     1       3.670   2.752  34.265  0.00  0.00    +0.109 C 
ATOM     15  O   UNL     1       3.421   3.648  32.040  0.00  0.00    -0.276 OA
ENDBRANCH  10  11
BRANCH   7  16
ATOM     16  C   UNL     1       7.843   7.559  35.776  0.00  0.00    +0.414 C 
ATOM     17  O   UNL     1       8.163   8.540  36.445  0.00  0.00    -0.240 OA
ATOM     18  O   UNL     1       7.824   7.647  34.548  0.00  0.00    -0.240 OA
ENDBRANCH   7  16
BRANCH   7  19
ATOM     19  O   UNL     1       8.162   6.134  37.741  0.00  0.00    -0.343 OA
ATOM     20  C   UNL     1       7.327   6.324  38.911  0.00  0.00    +0.198 C 
ENDBRANCH   7  19
BRANCH   9  21
ATOM     21  O   UNL     1       3.754   5.839  35.755  0.00  0.00    -0.390 OA
ATOM     22  H   UNL     1       3.220   6.342  35.136  0.00  0.00    +0.210 HD
ENDBRANCH   9  21
ENDBRANCH   4   5
BRANCH   4  23
ATOM     23  O   UNL     1       7.315   3.758  32.261  0.00  0.00    -0.387 OA
ATOM     24  H   UNL     1       7.844   4.371  31.746  0.00  0.00    +0.210 HD
ENDBRANCH   4  23
ENDBRANCH   1   4
BRANCH   1  25
ATOM     25  C   UNL     1       7.510   1.301  33.240  0.00  0.00    +0.141 C 
BRANCH  25  28
ATOM     26  C   UNL     1       5.624  -0.230  32.791  0.00  0.00    +0.401 C 
ATOM     27  O   UNL     1       6.180  -1.212  33.288  0.00  0.00    -0.226 OA
ATOM     28  N   UNL     1       6.175   0.982  32.720  0.00  0.00    -0.279 N 
ATOM     29  H   UNL     1       5.643   1.723  32.286  0.00  0.00    +0.152 HD
BRANCH  26  30
ATOM     30  O   UNL     1       4.309  -0.378  32.247  0.00  0.00    -0.444 OA
BRANCH  30  31
ATOM     31  C   UNL     1       4.389  -0.471  30.823  0.00  0.00    +0.292 C 
BRANCH  31  33
ATOM     32  N   UNL     1       2.183   0.651  30.964  0.00  0.00    -0.131 NA
ATOM     33  C   UNL     1       3.197   0.137  30.201  0.00  0.00    +0.120 A 
ATOM     34  C   UNL     1       2.883   0.299  28.871  0.00  0.00    +0.137 A 
ATOM     35  N   UNL     1       1.681   0.943  28.889  0.00  0.00    -0.242 N 
ATOM     36  N   UNL     1       1.253   1.133  30.151  0.00  0.00    -0.065 NA
BRANCH  35  37
ATOM     37  C   UNL     1       0.832   1.298  27.777  0.00  0.00    +0.240 C 
BRANCH  37  38
ATOM     38  C   UNL     1       1.089   2.704  27.286  0.00  0.00    +0.235 C 
ATOM     39  O   UNL     1       0.943   3.686  28.011  0.00  0.00    -0.274 OA
ATOM     40  N   UNL     1       1.553   2.797  25.990  0.00  0.00    -0.309 N 
ATOM     41  H   UNL     1       1.504   1.998  25.373  0.00  0.00    +0.149 HD
BRANCH  40  42
ATOM     42  C   UNL     1       1.859   4.078  25.387  0.00  0.00    +0.146 C 
BRANCH  42  43
ATOM     43  C   UNL     1       1.789   3.962  23.898  0.00  0.00    +0.007 A 
ATOM     44  S   UNL     1       1.773   2.425  23.140  0.00  0.00    -0.100 S 
ATOM     45  C   UNL     1       1.755   3.123  21.579  0.00  0.00    +0.045 A 
ATOM     46  C   UNL     1       1.745   4.500  21.627  0.00  0.00    +0.008 A 
ATOM     47  C   UNL     1       1.757   4.983  22.967  0.00  0.00    +0.013 A 
ENDBRANCH  42  43
ENDBRANCH  40  42
ENDBRANCH  37  38
ENDBRANCH  35  37
ENDBRANCH  31  33
ENDBRANCH  30  31
ENDBRANCH  26  30
ENDBRANCH  25  28
ENDBRANCH   1  25
TORSDOF 17
