REMARK VINA RESULT:    -6.952      5.714     10.404
REMARK INTER + INTRA:         -14.024
REMARK INTER:                 -10.836
REMARK INTRA:                  -3.189
REMARK UNBOUND:                -1.992
REMARK  Name = lig_assembled_25.pdb
REMARK  16 active torsions:
REMARK  status: ('A' for Active; 'I' for Inactive)
REMARK    1  A    between atoms: _2  and  _9
REMARK    2  A    between atoms: _4  and  _25
REMARK    3  A    between atoms: _6  and  _7
REMARK    4  A    between atoms: _6  and  _25
REMARK    5  A    between atoms: _21  and  _41
REMARK    6  A    between atoms: _23  and  _29
REMARK    7  A    between atoms: _24  and  _28
REMARK    8  A    between atoms: _28  and  _29
REMARK    9  A    between atoms: _31  and  _32
REMARK   10  A    between atoms: _33  and  _34
REMARK   11  A    between atoms: _35  and  _37
REMARK   12  A    between atoms: _37  and  _38
REMARK   13  A    between atoms: _37  and  _39
REMARK   14  A    between atoms: _39  and  _40
REMARK   15  A    between atoms: _39  and  _41
REMARK   16  A    between atoms: _42  and  _44
REMARK                            x       y       z     vdW  Elec       q    Type
REMARK                         _______ _______ _______ _____ _____    ______ ____
ROOT
ATOM      1  C   UNL     1      -1.331  -1.070  23.695  0.00  0.00    +0.141 C 
ENDROOT
BRANCH   1   4
ATOM      2  C   UNL     1      -0.716  -3.212  24.763  0.00  0.00    +0.401 C 
ATOM      3  O   UNL     1      -1.871  -3.483  25.101  0.00  0.00    -0.226 OA
ATOM      4  N   UNL     1      -0.372  -2.102  24.108  0.00  0.00    -0.279 N 
ATOM      5  H   UNL     1       0.603  -1.964  23.883  0.00  0.00    +0.152 HD
BRANCH   2   6
ATOM      6  O   UNL     1       0.335  -4.126  25.086  0.00  0.00    -0.444 OA
BRANCH   6   7
ATOM      7  C   UNL     1       0.651  -4.018  26.476  0.00  0.00    +0.292 C 
BRANCH   7   9
ATOM      8  N   UNL     1       1.268  -1.638  26.712  0.00  0.00    -0.131 NA
ATOM      9  C   UNL     1       1.648  -2.953  26.697  0.00  0.00    +0.120 A 
ATOM     10  C   UNL     1       3.009  -3.031  26.889  0.00  0.00    +0.138 A 
ATOM     11  N   UNL     1       3.407  -1.728  26.997  0.00  0.00    -0.240 N 
ATOM     12  N   UNL     1       2.348  -0.895  26.900  0.00  0.00    -0.064 NA
BRANCH  11  13
ATOM     13  C   UNL     1       4.743  -1.166  27.106  0.00  0.00    +0.170 C 
ATOM     14  C   UNL     1       5.737  -1.839  26.168  0.00  0.00    -0.011 A 
ATOM     15  C   UNL     1       6.837  -2.332  26.904  0.00  0.00    -0.012 A 
ATOM     16  C   UNL     1       6.631  -2.043  28.310  0.00  0.00    -0.012 A 
ATOM     17  C   UNL     1       7.441  -2.295  29.404  0.00  0.00    +0.009 A 
ATOM     18  C   UNL     1       7.005  -1.874  30.664  0.00  0.00    +0.001 A 
ATOM     19  C   UNL     1       5.773  -1.217  30.818  0.00  0.00    +0.000 A 
ATOM     20  C   UNL     1       4.954  -0.962  29.716  0.00  0.00    +0.006 A 
ATOM     21  C   UNL     1       7.884  -2.967  26.259  0.00  0.00    +0.009 A 
ATOM     22  C   UNL     1       7.825  -3.104  24.869  0.00  0.00    +0.001 A 
ATOM     23  C   UNL     1       6.731  -2.609  24.141  0.00  0.00    +0.000 A 
ATOM     24  C   UNL     1       5.674  -1.966  24.787  0.00  0.00    +0.006 A 
ATOM     25  C   UNL     1       5.391  -1.381  28.468  0.00  0.00    -0.011 A 
ENDBRANCH  11  13
ENDBRANCH   7   9
ENDBRANCH   6   7
ENDBRANCH   2   6
ENDBRANCH   1   4
BRANCH   1  26
ATOM     26  C   UNL     1      -0.651   0.069  22.943  0.00  0.00    +0.163 C 
BRANCH  26  27
ATOM     27  O   UNL     1      -1.547   0.613  21.960  0.00  0.00    -0.388 OA
ATOM     28  H   UNL     1      -2.414   0.213  22.061  0.00  0.00    +0.210 HD
ENDBRANCH  26  27
BRANCH  26  29
ATOM     29  C   UNL     1      -0.208   1.152  23.942  0.00  0.00    +0.175 C 
BRANCH  29  30
ATOM     30  C   UNL     1      -0.013   2.517  23.266  0.00  0.00    +0.176 C 
ATOM     31  O   UNL     1       0.778   2.312  22.063  0.00  0.00    -0.332 OA
ATOM     32  C   UNL     1       0.978   3.498  21.225  0.00  0.00    +0.277 C 
ATOM     33  C   UNL     1       1.583   4.654  22.059  0.00  0.00    +0.110 C 
ATOM     34  C   UNL     1       0.794   4.889  23.364  0.00  0.00    +0.143 C 
ATOM     35  C   UNL     1       0.643   3.589  24.156  0.00  0.00    +0.133 C 
BRANCH  35  36
ATOM     36  N   UNL     1      -0.184   3.808  25.353  0.00  0.00    -0.308 N 
ATOM     37  H   UNL     1      -1.163   4.016  25.218  0.00  0.00    +0.149 HD
ATOM     38  C   UNL     1       0.275   3.750  26.606  0.00  0.00    +0.210 C 
ATOM     39  C   UNL     1       1.778   3.458  26.777  0.00  0.00    +0.109 C 
ATOM     40  O   UNL     1      -0.444   3.923  27.590  0.00  0.00    -0.276 OA
ENDBRANCH  35  36
BRANCH  32  41
ATOM     41  C   UNL     1      -0.356   3.957  20.601  0.00  0.00    +0.414 C 
ATOM     42  O   UNL     1      -1.313   3.186  20.545  0.00  0.00    -0.240 OA
ATOM     43  O   UNL     1      -0.476   5.098  20.153  0.00  0.00    -0.240 OA
ENDBRANCH  32  41
BRANCH  34  44
ATOM     44  O   UNL     1       1.472   5.854  24.169  0.00  0.00    -0.390 OA
ATOM     45  H   UNL     1       1.903   5.413  24.905  0.00  0.00    +0.210 HD
ENDBRANCH  34  44
BRANCH  32  46
ATOM     46  O   UNL     1       1.916   3.152  20.174  0.00  0.00    -0.343 OA
ATOM     47  C   UNL     1       1.813   1.791  19.685  0.00  0.00    +0.198 C 
ENDBRANCH  32  46
ENDBRANCH  29  30
BRANCH  29  48
ATOM     48  O   UNL     1       1.007   0.748  24.605  0.00  0.00    -0.387 OA
ATOM     49  H   UNL     1       0.812   0.516  25.516  0.00  0.00    +0.210 HD
ENDBRANCH  29  48
ENDBRANCH  26  29
ENDBRANCH   1  26
TORSDOF 14
