REMARK VINA RESULT:    -6.386      5.277      6.794
REMARK INTER + INTRA:         -13.243
REMARK INTER:                 -11.177
REMARK INTRA:                  -2.065
REMARK UNBOUND:                -2.191
REMARK  Name = lig_assembled_48.pdb
REMARK  16 active torsions:
REMARK  status: ('A' for Active; 'I' for Inactive)
REMARK    1  A    between atoms: _2  and  _9
REMARK    2  A    between atoms: _4  and  _18
REMARK    3  A    between atoms: _6  and  _7
REMARK    4  A    between atoms: _6  and  _18
REMARK    5  A    between atoms: _14  and  _34
REMARK    6  A    between atoms: _16  and  _22
REMARK    7  A    between atoms: _17  and  _21
REMARK    8  A    between atoms: _21  and  _22
REMARK    9  A    between atoms: _24  and  _25
REMARK   10  A    between atoms: _26  and  _27
REMARK   11  A    between atoms: _28  and  _30
REMARK   12  A    between atoms: _30  and  _31
REMARK   13  A    between atoms: _30  and  _32
REMARK   14  A    between atoms: _32  and  _33
REMARK   15  A    between atoms: _32  and  _34
REMARK   16  A    between atoms: _35  and  _37
REMARK                            x       y       z     vdW  Elec       q    Type
REMARK                         _______ _______ _______ _____ _____    ______ ____
ROOT
ATOM      1  C   UNL     1       7.756   2.336  34.139  0.00  0.00    +0.163 C 
ENDROOT
BRANCH   1   2
ATOM      2  O   UNL     1       8.609   2.470  35.288  0.00  0.00    -0.388 OA
ATOM      3  H   UNL     1       9.318   3.086  35.090  0.00  0.00    +0.210 HD
ENDBRANCH   1   2
BRANCH   1   4
ATOM      4  C   UNL     1       8.211   1.156  33.287  0.00  0.00    +0.141 C 
BRANCH   4   7
ATOM      5  C   UNL     1       6.625  -0.724  33.048  0.00  0.00    +0.401 C 
ATOM      6  O   UNL     1       7.114  -1.377  33.973  0.00  0.00    -0.226 OA
ATOM      7  N   UNL     1       7.078   0.467  32.656  0.00  0.00    -0.279 N 
ATOM      8  H   UNL     1       6.617   0.921  31.880  0.00  0.00    +0.152 HD
BRANCH   5   9
ATOM      9  O   UNL     1       5.505  -1.258  32.337  0.00  0.00    -0.444 OA
BRANCH   9  10
ATOM     10  C   UNL     1       5.328  -0.538  31.114  0.00  0.00    +0.292 C 
BRANCH  10  12
ATOM     11  N   UNL     1       7.265  -1.563  29.972  0.00  0.00    -0.131 NA
ATOM     12  C   UNL     1       5.928  -1.287  29.994  0.00  0.00    +0.120 A 
ATOM     13  C   UNL     1       5.337  -1.829  28.874  0.00  0.00    +0.137 A 
ATOM     14  N   UNL     1       6.348  -2.504  28.257  0.00  0.00    -0.248 N 
ATOM     15  N   UNL     1       7.521  -2.276  28.886  0.00  0.00    -0.065 NA
BRANCH  14  16
ATOM     16  C   UNL     1       6.326  -3.423  27.124  0.00  0.00    +0.109 C 
ATOM     17  C   UNL     1       5.118  -3.144  26.209  0.00  0.00    +0.027 C 
ATOM     18  C   UNL     1       5.301  -1.850  25.420  0.00  0.00    +0.002 C 
ATOM     19  C   UNL     1       6.549  -1.919  24.548  0.00  0.00    +0.000 C 
ATOM     20  C   UNL     1       7.802  -2.268  25.346  0.00  0.00    +0.002 C 
ATOM     21  C   UNL     1       7.612  -3.472  26.276  0.00  0.00    +0.027 C 
ENDBRANCH  14  16
ENDBRANCH  10  12
ENDBRANCH   9  10
ENDBRANCH   5   9
ENDBRANCH   4   7
ENDBRANCH   1   4
BRANCH   1  22
ATOM     22  C   UNL     1       7.770   3.618  33.290  0.00  0.00    +0.175 C 
BRANCH  22  23
ATOM     23  C   UNL     1       6.937   4.741  33.925  0.00  0.00    +0.176 C 
ATOM     24  O   UNL     1       7.710   5.307  35.019  0.00  0.00    -0.332 OA
ATOM     25  C   UNL     1       7.113   6.471  35.682  0.00  0.00    +0.277 C 
ATOM     26  C   UNL     1       5.681   6.141  36.169  0.00  0.00    +0.110 C 
ATOM     27  C   UNL     1       4.830   5.507  35.049  0.00  0.00    +0.143 C 
ATOM     28  C   UNL     1       5.547   4.307  34.427  0.00  0.00    +0.133 C 
BRANCH  28  29
ATOM     29  N   UNL     1       4.766   3.766  33.304  0.00  0.00    -0.308 N 
ATOM     30  H   UNL     1       4.701   4.322  32.463  0.00  0.00    +0.149 HD
ATOM     31  C   UNL     1       4.138   2.587  33.323  0.00  0.00    +0.210 C 
ATOM     32  C   UNL     1       4.235   1.775  34.628  0.00  0.00    +0.109 C 
ATOM     33  O   UNL     1       3.503   2.152  32.362  0.00  0.00    -0.276 OA
ENDBRANCH  28  29
BRANCH  25  34
ATOM     34  C   UNL     1       7.066   7.680  34.725  0.00  0.00    +0.414 C 
ATOM     35  O   UNL     1       5.985   8.144  34.364  0.00  0.00    -0.240 OA
ATOM     36  O   UNL     1       8.108   8.192  34.314  0.00  0.00    -0.240 OA
ENDBRANCH  25  34
BRANCH  27  37
ATOM     37  O   UNL     1       3.575   5.081  35.579  0.00  0.00    -0.390 OA
ATOM     38  H   UNL     1       3.127   4.525  34.938  0.00  0.00    +0.210 HD
ENDBRANCH  27  37
BRANCH  25  39
ATOM     39  O   UNL     1       7.927   6.795  36.838  0.00  0.00    -0.343 OA
ATOM     40  C   UNL     1       9.021   5.878  37.094  0.00  0.00    +0.198 C 
ENDBRANCH  25  39
ENDBRANCH  22  23
BRANCH  22  41
ATOM     41  O   UNL     1       7.293   3.338  31.959  0.00  0.00    -0.387 OA
ATOM     42  H   UNL     1       7.076   4.162  31.516  0.00  0.00    +0.210 HD
ENDBRANCH  22  41
ENDBRANCH   1  22
TORSDOF 14
