REMARK VINA RESULT:    -6.196      4.907     12.053
REMARK INTER + INTRA:         -12.991
REMARK INTER:                 -11.088
REMARK INTRA:                  -1.902
REMARK UNBOUND:                -1.905
REMARK  Name = lig_assembled_38.pdb
REMARK  17 active torsions:
REMARK  status: ('A' for Active; 'I' for Inactive)
REMARK    1  A    between atoms: _2  and  _9
REMARK    2  A    between atoms: _4  and  _19
REMARK    3  A    between atoms: _6  and  _7
REMARK    4  A    between atoms: _6  and  _19
REMARK    5  A    between atoms: _9  and  _10
REMARK    6  A    between atoms: _15  and  _35
REMARK    7  A    between atoms: _17  and  _23
REMARK    8  A    between atoms: _18  and  _22
REMARK    9  A    between atoms: _22  and  _23
REMARK   10  A    between atoms: _25  and  _26
REMARK   11  A    between atoms: _27  and  _28
REMARK   12  A    between atoms: _29  and  _31
REMARK   13  A    between atoms: _31  and  _32
REMARK   14  A    between atoms: _31  and  _33
REMARK   15  A    between atoms: _33  and  _34
REMARK   16  A    between atoms: _33  and  _35
REMARK   17  A    between atoms: _36  and  _38
REMARK                            x       y       z     vdW  Elec       q    Type
REMARK                         _______ _______ _______ _____ _____    ______ ____
ROOT
ATOM      1  C   UNL     1       2.600   2.503  29.994  0.00  0.00    +0.163 C 
ENDROOT
BRANCH   1   2
ATOM      2  O   UNL     1       2.376   1.493  28.997  0.00  0.00    -0.388 OA
ATOM      3  H   UNL     1       2.656   0.640  29.336  0.00  0.00    +0.210 HD
ENDBRANCH   1   2
BRANCH   1   4
ATOM      4  C   UNL     1       3.099   1.861  31.284  0.00  0.00    +0.141 C 
BRANCH   4   7
ATOM      5  C   UNL     1       5.315   2.418  32.224  0.00  0.00    +0.401 C 
ATOM      6  O   UNL     1       5.839   1.362  31.862  0.00  0.00    -0.226 OA
ATOM      7  N   UNL     1       4.038   2.732  32.002  0.00  0.00    -0.279 N 
ATOM      8  H   UNL     1       3.697   3.618  32.347  0.00  0.00    +0.152 HD
BRANCH   5   9
ATOM      9  O   UNL     1       6.105   3.378  32.931  0.00  0.00    -0.444 OA
BRANCH   9  10
ATOM     10  C   UNL     1       5.283   4.070  33.875  0.00  0.00    +0.292 C 
BRANCH  10  12
ATOM     11  N   UNL     1       5.241   6.528  34.183  0.00  0.00    -0.131 NA
ATOM     12  C   UNL     1       5.919   5.341  34.276  0.00  0.00    +0.120 A 
ATOM     13  C   UNL     1       7.168   5.577  34.805  0.00  0.00    +0.137 A 
ATOM     14  N   UNL     1       7.169   6.917  35.065  0.00  0.00    -0.247 N 
ATOM     15  N   UNL     1       6.013   7.486  34.676  0.00  0.00    -0.065 NA
BRANCH  14  16
ATOM     16  C   UNL     1       8.115   7.661  35.877  0.00  0.00    +0.180 C 
BRANCH  16  17
ATOM     17  C   UNL     1       8.301   7.087  37.261  0.00  0.00    -0.025 A 
ATOM     18  C   UNL     1       9.374   6.228  37.546  0.00  0.00    +0.005 A 
ATOM     19  C   UNL     1       9.592   5.772  38.850  0.00  0.00    +0.001 A 
ATOM     20  C   UNL     1       8.743   6.168  39.882  0.00  0.00    +0.015 A 
ATOM     21  C   UNL     1       7.672   7.011  39.604  0.00  0.00    +0.018 A 
ATOM     22 BR   UNL     1       6.523   7.559  41.003  0.00  0.00    -0.050 Br
ATOM     23  C   UNL     1       7.446   7.472  38.306  0.00  0.00    +0.020 A 
ENDBRANCH  16  17
ENDBRANCH  14  16
ENDBRANCH  10  12
ENDBRANCH   9  10
ENDBRANCH   5   9
ENDBRANCH   4   7
ENDBRANCH   1   4
BRANCH   1  24
ATOM     24  C   UNL     1       1.310   3.292  30.278  0.00  0.00    +0.175 C 
BRANCH  24  25
ATOM     25  C   UNL     1       0.362   3.302  29.070  0.00  0.00    +0.176 C 
ATOM     26  O   UNL     1       1.062   3.924  27.957  0.00  0.00    -0.332 OA
ATOM     27  C   UNL     1       0.344   3.927  26.679  0.00  0.00    +0.277 C 
ATOM     28  C   UNL     1      -1.054   4.572  26.844  0.00  0.00    +0.110 C 
ATOM     29  C   UNL     1      -1.824   3.965  28.036  0.00  0.00    +0.143 C 
ATOM     30  C   UNL     1      -0.984   4.011  29.313  0.00  0.00    +0.133 C 
BRANCH  30  31
ATOM     31  N   UNL     1      -1.693   3.352  30.420  0.00  0.00    -0.308 N 
ATOM     32  H   UNL     1      -1.841   2.354  30.358  0.00  0.00    +0.149 HD
ATOM     33  C   UNL     1      -2.154   3.985  31.502  0.00  0.00    +0.210 C 
ATOM     34  C   UNL     1      -1.936   5.509  31.555  0.00  0.00    +0.109 C 
ATOM     35  O   UNL     1      -2.732   3.404  32.422  0.00  0.00    -0.276 OA
ENDBRANCH  30  31
BRANCH  27  36
ATOM     36  C   UNL     1       0.187   2.491  26.136  0.00  0.00    +0.414 C 
ATOM     37  O   UNL     1      -0.875   2.131  25.631  0.00  0.00    -0.240 OA
ATOM     38  O   UNL     1       1.123   1.694  26.203  0.00  0.00    -0.240 OA
ENDBRANCH  27  36
BRANCH  27  39
ATOM     39  O   UNL     1       1.107   4.725  25.737  0.00  0.00    -0.343 OA
ATOM     40  C   UNL     1       0.461   4.946  24.458  0.00  0.00    +0.198 C 
ENDBRANCH  27  39
BRANCH  29  41
ATOM     41  O   UNL     1      -3.037   4.689  28.245  0.00  0.00    -0.390 OA
ATOM     42  H   UNL     1      -3.731   4.317  27.695  0.00  0.00    +0.210 HD
ENDBRANCH  29  41
ENDBRANCH  24  25
BRANCH  24  43
ATOM     43  O   UNL     1       1.630   4.642  30.670  0.00  0.00    -0.387 OA
ATOM     44  H   UNL     1       2.288   5.003  30.070  0.00  0.00    +0.210 HD
ENDBRANCH  24  43
ENDBRANCH   1  24
TORSDOF 15
