REMARK VINA RESULT:    -5.709      1.883      4.312
REMARK INTER + INTRA:         -13.636
REMARK INTER:                 -12.294
REMARK INTRA:                  -1.341
REMARK UNBOUND:                -2.754
REMARK  Name = lig_assembled_12.pdb
REMARK  19 active torsions:
REMARK  status: ('A' for Active; 'I' for Inactive)
REMARK    1  A    between atoms: _2  and  _9
REMARK    2  A    between atoms: _4  and  _21
REMARK    3  A    between atoms: _6  and  _7
REMARK    4  A    between atoms: _6  and  _21
REMARK    5  A    between atoms: _9  and  _16
REMARK    6  A    between atoms: _10  and  _11
REMARK    7  A    between atoms: _10  and  _16
REMARK    8  A    between atoms: _17  and  _37
REMARK    9  A    between atoms: _19  and  _25
REMARK   10  A    between atoms: _20  and  _24
REMARK   11  A    between atoms: _24  and  _25
REMARK   12  A    between atoms: _27  and  _28
REMARK   13  A    between atoms: _29  and  _30
REMARK   14  A    between atoms: _31  and  _33
REMARK   15  A    between atoms: _33  and  _34
REMARK   16  A    between atoms: _33  and  _35
REMARK   17  A    between atoms: _35  and  _36
REMARK   18  A    between atoms: _35  and  _37
REMARK   19  A    between atoms: _38  and  _40
REMARK                            x       y       z     vdW  Elec       q    Type
REMARK                         _______ _______ _______ _____ _____    ______ ____
ROOT
ATOM      1  C   UNL     1       4.078   3.223  32.014  0.00  0.00    +0.163 C 
ENDROOT
BRANCH   1   2
ATOM      2  O   UNL     1       3.454   4.430  32.481  0.00  0.00    -0.388 OA
ATOM      3  H   UNL     1       2.761   4.212  33.108  0.00  0.00    +0.210 HD
ENDBRANCH   1   2
BRANCH   1   4
ATOM      4  C   UNL     1       4.566   2.365  33.194  0.00  0.00    +0.175 C 
BRANCH   4   5
ATOM      5  C   UNL     1       5.851   1.595  32.856  0.00  0.00    +0.176 C 
ATOM      6  O   UNL     1       5.649   0.203  33.227  0.00  0.00    -0.332 OA
ATOM      7  C   UNL     1       6.741  -0.711  32.878  0.00  0.00    +0.277 C 
ATOM      8  C   UNL     1       8.081  -0.202  33.464  0.00  0.00    +0.110 C 
ATOM      9  C   UNL     1       8.324   1.283  33.122  0.00  0.00    +0.143 C 
ATOM     10  C   UNL     1       7.125   2.142  33.525  0.00  0.00    +0.133 C 
BRANCH  10  11
ATOM     11  N   UNL     1       7.333   3.540  33.116  0.00  0.00    -0.308 N 
ATOM     12  H   UNL     1       7.491   3.726  32.135  0.00  0.00    +0.149 HD
ATOM     13  C   UNL     1       7.326   4.579  33.955  0.00  0.00    +0.210 C 
ATOM     14  C   UNL     1       7.108   4.260  35.446  0.00  0.00    +0.109 C 
ATOM     15  O   UNL     1       7.488   5.742  33.582  0.00  0.00    -0.276 OA
ENDBRANCH  10  11
BRANCH   7  16
ATOM     16  C   UNL     1       6.868  -0.851  31.347  0.00  0.00    +0.414 C 
ATOM     17  O   UNL     1       5.906  -0.606  30.620  0.00  0.00    -0.240 OA
ATOM     18  O   UNL     1       7.931  -1.210  30.839  0.00  0.00    -0.240 OA
ENDBRANCH   7  16
BRANCH   9  19
ATOM     19  O   UNL     1       9.488   1.750  33.805  0.00  0.00    -0.390 OA
ATOM     20  H   UNL     1      10.266   1.317  33.446  0.00  0.00    +0.210 HD
ENDBRANCH   9  19
BRANCH   7  21
ATOM     21  O   UNL     1       6.447  -2.005  33.464  0.00  0.00    -0.343 OA
ATOM     22  C   UNL     1       6.696  -2.102  34.890  0.00  0.00    +0.198 C 
ENDBRANCH   7  21
ENDBRANCH   4   5
BRANCH   4  23
ATOM     23  O   UNL     1       3.531   1.449  33.604  0.00  0.00    -0.387 OA
ATOM     24  H   UNL     1       3.204   0.972  32.837  0.00  0.00    +0.210 HD
ENDBRANCH   4  23
ENDBRANCH   1   4
BRANCH   1  25
ATOM     25  C   UNL     1       3.093   2.418  31.172  0.00  0.00    +0.141 C 
BRANCH  25  28
ATOM     26  C   UNL     1       1.082   3.132  29.927  0.00  0.00    +0.401 C 
ATOM     27  O   UNL     1       0.349   2.281  30.437  0.00  0.00    -0.226 OA
ATOM     28  N   UNL     1       2.378   3.264  30.208  0.00  0.00    -0.279 N 
ATOM     29  H   UNL     1       2.899   3.987  29.731  0.00  0.00    +0.152 HD
BRANCH  26  30
ATOM     30  O   UNL     1       0.530   4.041  28.971  0.00  0.00    -0.444 OA
BRANCH  30  31
ATOM     31  C   UNL     1       0.109   3.317  27.811  0.00  0.00    +0.292 C 
BRANCH  31  33
ATOM     32  N   UNL     1       2.210   3.587  26.524  0.00  0.00    -0.131 NA
ATOM     33  C   UNL     1       0.854   3.768  26.622  0.00  0.00    +0.120 A 
ATOM     34  C   UNL     1       0.402   4.399  25.487  0.00  0.00    +0.139 A 
ATOM     35  N   UNL     1       1.531   4.601  24.749  0.00  0.00    -0.226 N 
ATOM     36  N   UNL     1       2.614   4.090  25.365  0.00  0.00    -0.063 NA
BRANCH  35  37
ATOM     37  C   UNL     1       1.659   5.219  23.441  0.00  0.00    +0.305 C 
BRANCH  37  38
ATOM     38  O   UNL     1       1.701   4.201  22.444  0.00  0.00    -0.353 OA
BRANCH  38  39
ATOM     39  C   UNL     1       0.435   4.022  21.822  0.00  0.00    +0.197 C 
BRANCH  39  40
ATOM     40  C   UNL     1       0.651   4.073  20.334  0.00  0.00    -0.022 A 
ATOM     41  C   UNL     1      -0.376   4.494  19.478  0.00  0.00    +0.006 A 
ATOM     42  C   UNL     1      -0.188   4.504  18.096  0.00  0.00    +0.000 A 
ATOM     43  C   UNL     1       1.026   4.085  17.554  0.00  0.00    +0.000 A 
ATOM     44  C   UNL     1       2.051   3.654  18.393  0.00  0.00    +0.000 A 
ATOM     45  C   UNL     1       1.864   3.644  19.776  0.00  0.00    +0.006 A 
ENDBRANCH  39  40
ENDBRANCH  38  39
ENDBRANCH  37  38
ENDBRANCH  35  37
ENDBRANCH  31  33
ENDBRANCH  30  31
ENDBRANCH  26  30
ENDBRANCH  25  28
ENDBRANCH   1  25
TORSDOF 17
