REMARK VINA RESULT:    -6.427     15.444     17.376
REMARK INTER + INTRA:         -13.433
REMARK INTER:                 -11.567
REMARK INTRA:                  -1.865
REMARK UNBOUND:                -1.933
REMARK  Name = lig_assembled_39.pdb
REMARK  17 active torsions:
REMARK  status: ('A' for Active; 'I' for Inactive)
REMARK    1  A    between atoms: _2  and  _9
REMARK    2  A    between atoms: _4  and  _19
REMARK    3  A    between atoms: _6  and  _7
REMARK    4  A    between atoms: _6  and  _19
REMARK    5  A    between atoms: _9  and  _10
REMARK    6  A    between atoms: _15  and  _35
REMARK    7  A    between atoms: _17  and  _23
REMARK    8  A    between atoms: _18  and  _22
REMARK    9  A    between atoms: _22  and  _23
REMARK   10  A    between atoms: _25  and  _26
REMARK   11  A    between atoms: _27  and  _28
REMARK   12  A    between atoms: _29  and  _31
REMARK   13  A    between atoms: _31  and  _32
REMARK   14  A    between atoms: _31  and  _33
REMARK   15  A    between atoms: _33  and  _34
REMARK   16  A    between atoms: _33  and  _35
REMARK   17  A    between atoms: _36  and  _38
REMARK                            x       y       z     vdW  Elec       q    Type
REMARK                         _______ _______ _______ _____ _____    ______ ____
ROOT
ATOM      1  C   UNL     1       2.664   3.344  32.674  0.00  0.00    +0.163 C 
ENDROOT
BRANCH   1   2
ATOM      2  O   UNL     1       3.125   4.587  32.119  0.00  0.00    -0.388 OA
ATOM      3  H   UNL     1       3.132   5.261  32.803  0.00  0.00    +0.210 HD
ENDBRANCH   1   2
BRANCH   1   4
ATOM      4  C   UNL     1       1.143   3.270  32.597  0.00  0.00    +0.141 C 
BRANCH   4   7
ATOM      5  C   UNL     1       0.367   3.573  30.270  0.00  0.00    +0.401 C 
ATOM      6  O   UNL     1       0.412   4.805  30.316  0.00  0.00    -0.226 OA
ATOM      7  N   UNL     1       0.685   2.777  31.292  0.00  0.00    -0.279 N 
ATOM      8  H   UNL     1       0.606   1.778  31.161  0.00  0.00    +0.152 HD
BRANCH   5   9
ATOM      9  O   UNL     1      -0.054   2.938  29.060  0.00  0.00    -0.444 OA
BRANCH   9  10
ATOM     10  C   UNL     1      -0.883   3.834  28.314  0.00  0.00    +0.292 C 
BRANCH  10  12
ATOM     11  N   UNL     1      -0.790   5.124  26.203  0.00  0.00    -0.131 NA
ATOM     12  C   UNL     1      -0.245   4.176  27.030  0.00  0.00    +0.120 A 
ATOM     13  C   UNL     1       0.913   3.693  26.462  0.00  0.00    +0.137 A 
ATOM     14  N   UNL     1       1.059   4.445  25.333  0.00  0.00    -0.247 N 
ATOM     15  N   UNL     1       0.003   5.259  25.150  0.00  0.00    -0.065 NA
BRANCH  14  16
ATOM     16  C   UNL     1       2.199   4.491  24.429  0.00  0.00    +0.181 C 
BRANCH  16  17
ATOM     17  C   UNL     1       1.911   3.878  23.070  0.00  0.00    -0.012 A 
ATOM     18  C   UNL     1       1.446   4.670  22.000  0.00  0.00    +0.006 A 
ATOM     19  C   UNL     1       1.172   4.118  20.746  0.00  0.00    +0.000 A 
ATOM     20  C   UNL     1       1.334   2.755  20.537  0.00  0.00    +0.001 A 
ATOM     21  C   UNL     1       1.751   1.941  21.587  0.00  0.00    +0.015 A 
ATOM     22  C   UNL     1       2.026   2.493  22.846  0.00  0.00    +0.023 A 
ATOM     23 BR   UNL     1       2.532   1.276  24.218  0.00  0.00    -0.050 Br
ENDBRANCH  16  17
ENDBRANCH  14  16
ENDBRANCH  10  12
ENDBRANCH   9  10
ENDBRANCH   5   9
ENDBRANCH   4   7
ENDBRANCH   1   4
BRANCH   1  24
ATOM     24  C   UNL     1       3.112   3.196  34.139  0.00  0.00    +0.175 C 
BRANCH  24  25
ATOM     25  C   UNL     1       4.641   3.132  34.272  0.00  0.00    +0.176 C 
ATOM     26  O   UNL     1       5.160   4.481  34.116  0.00  0.00    -0.332 OA
ATOM     27  C   UNL     1       6.604   4.632  34.319  0.00  0.00    +0.277 C 
ATOM     28  C   UNL     1       7.384   3.661  33.399  0.00  0.00    +0.110 C 
ATOM     29  C   UNL     1       6.846   2.219  33.506  0.00  0.00    +0.143 C 
ATOM     30  C   UNL     1       5.334   2.179  33.281  0.00  0.00    +0.133 C 
BRANCH  30  31
ATOM     31  N   UNL     1       4.821   0.813  33.472  0.00  0.00    -0.308 N 
ATOM     32  H   UNL     1       4.825   0.434  34.409  0.00  0.00    +0.149 HD
ATOM     33  C   UNL     1       4.350   0.041  32.489  0.00  0.00    +0.210 C 
ATOM     34  C   UNL     1       4.381   0.638  31.069  0.00  0.00    +0.109 C 
ATOM     35  O   UNL     1       3.912  -1.094  32.681  0.00  0.00    -0.276 OA
ENDBRANCH  30  31
BRANCH  27  36
ATOM     36  C   UNL     1       6.981   4.362  35.790  0.00  0.00    +0.414 C 
ATOM     37  O   UNL     1       8.103   3.946  36.077  0.00  0.00    -0.240 OA
ATOM     38  O   UNL     1       6.164   4.561  36.690  0.00  0.00    -0.240 OA
ENDBRANCH  27  36
BRANCH  27  39
ATOM     39  O   UNL     1       6.968   5.991  33.963  0.00  0.00    -0.343 OA
ATOM     40  C   UNL     1       5.991   7.000  34.322  0.00  0.00    +0.198 C 
ENDBRANCH  27  39
BRANCH  29  41
ATOM     41  O   UNL     1       7.488   1.391  32.536  0.00  0.00    -0.390 OA
ATOM     42  H   UNL     1       7.894   1.942  31.863  0.00  0.00    +0.210 HD
ENDBRANCH  29  41
ENDBRANCH  24  25
BRANCH  24  43
ATOM     43  O   UNL     1       2.512   2.024  34.725  0.00  0.00    -0.387 OA
ATOM     44  H   UNL     1       3.196   1.380  34.924  0.00  0.00    +0.210 HD
ENDBRANCH  24  43
ENDBRANCH   1  24
TORSDOF 15
