REMARK VINA RESULT:    -7.350     11.123     19.442
REMARK INTER + INTRA:         -15.648
REMARK INTER:                 -13.703
REMARK INTRA:                  -1.945
REMARK UNBOUND:                -2.067
REMARK  Name = lig_assembled_79.pdb
REMARK  20 active torsions:
REMARK  status: ('A' for Active; 'I' for Inactive)
REMARK    1  A    between atoms: _2  and  _10
REMARK    2  A    between atoms: _5  and  _26
REMARK    3  A    between atoms: _7  and  _8
REMARK    4  A    between atoms: _7  and  _26
REMARK    5  A    between atoms: _10  and  _11
REMARK    6  A    between atoms: _10  and  _12
REMARK    7  A    between atoms: _10  and  _13
REMARK    8  A    between atoms: _13  and  _14
REMARK    9  A    between atoms: _22  and  _42
REMARK   10  A    between atoms: _24  and  _30
REMARK   11  A    between atoms: _25  and  _29
REMARK   12  A    between atoms: _29  and  _30
REMARK   13  A    between atoms: _32  and  _33
REMARK   14  A    between atoms: _34  and  _35
REMARK   15  A    between atoms: _36  and  _38
REMARK   16  A    between atoms: _38  and  _39
REMARK   17  A    between atoms: _38  and  _40
REMARK   18  A    between atoms: _40  and  _41
REMARK   19  A    between atoms: _40  and  _42
REMARK   20  A    between atoms: _43  and  _45
REMARK                            x       y       z     vdW  Elec       q    Type
REMARK                         _______ _______ _______ _____ _____    ______ ____
ROOT
ATOM      1  C   UNL     1       3.148   2.377  32.405  0.00  0.00    +0.401 C 
ATOM      2  O   UNL     1       2.818   2.192  33.579  0.00  0.00    -0.226 OA
ATOM      3  N   UNL     1       4.245   3.039  32.035  0.00  0.00    -0.279 N 
ATOM      4  H   UNL     1       4.436   3.130  31.047  0.00  0.00    +0.152 HD
ENDROOT
BRANCH   3   5
ATOM      5  C   UNL     1       5.189   3.645  32.982  0.00  0.00    +0.141 C 
BRANCH   5   6
ATOM      6  C   UNL     1       6.379   2.732  33.260  0.00  0.00    +0.163 C 
BRANCH   6   7
ATOM      7  O   UNL     1       6.616   1.876  32.130  0.00  0.00    -0.388 OA
ATOM      8  H   UNL     1       7.360   2.211  31.624  0.00  0.00    +0.210 HD
ENDBRANCH   6   7
BRANCH   6   9
ATOM      9  C   UNL     1       7.620   3.586  33.573  0.00  0.00    +0.175 C 
BRANCH   9  10
ATOM     10  C   UNL     1       7.544   4.225  34.967  0.00  0.00    +0.176 C 
ATOM     11  O   UNL     1       7.349   5.655  34.794  0.00  0.00    -0.332 OA
ATOM     12  C   UNL     1       7.148   6.422  36.027  0.00  0.00    +0.277 C 
ATOM     13  C   UNL     1       8.311   6.169  37.018  0.00  0.00    +0.110 C 
ATOM     14  C   UNL     1       8.577   4.661  37.210  0.00  0.00    +0.143 C 
ATOM     15  C   UNL     1       8.769   3.961  35.864  0.00  0.00    +0.133 C 
BRANCH  15  16
ATOM     16  N   UNL     1       8.934   2.512  36.055  0.00  0.00    -0.308 N 
ATOM     17  H   UNL     1       8.176   2.004  36.489  0.00  0.00    +0.149 HD
ATOM     18  C   UNL     1      10.021   1.824  35.694  0.00  0.00    +0.210 C 
ATOM     19  C   UNL     1      11.169   2.632  35.061  0.00  0.00    +0.109 C 
ATOM     20  O   UNL     1      10.127   0.608  35.854  0.00  0.00    -0.276 OA
ENDBRANCH  15  16
BRANCH  12  21
ATOM     21  C   UNL     1       5.810   6.042  36.695  0.00  0.00    +0.414 C 
ATOM     22  O   UNL     1       5.755   5.851  37.909  0.00  0.00    -0.240 OA
ATOM     23  O   UNL     1       4.786   5.927  36.020  0.00  0.00    -0.240 OA
ENDBRANCH  12  21
BRANCH  14  24
ATOM     24  O   UNL     1       9.747   4.476  38.007  0.00  0.00    -0.390 OA
ATOM     25  H   UNL     1      10.468   4.169  37.453  0.00  0.00    +0.210 HD
ENDBRANCH  14  24
BRANCH  12  26
ATOM     26  O   UNL     1       7.139   7.831  35.683  0.00  0.00    -0.343 OA
ATOM     27  C   UNL     1       7.619   8.139  34.350  0.00  0.00    +0.198 C 
ENDBRANCH  12  26
ENDBRANCH   9  10
BRANCH   9  28
ATOM     28  O   UNL     1       7.787   4.605  32.568  0.00  0.00    -0.387 OA
ATOM     29  H   UNL     1       8.258   4.239  31.815  0.00  0.00    +0.210 HD
ENDBRANCH   9  28
ENDBRANCH   6   9
ENDBRANCH   5   6
ENDBRANCH   3   5
BRANCH   1  30
ATOM     30  O   UNL     1       2.323   1.854  31.361  0.00  0.00    -0.444 OA
BRANCH  30  31
ATOM     31  C   UNL     1       1.130   2.635  31.258  0.00  0.00    +0.292 C 
BRANCH  31  33
ATOM     32  N   UNL     1       0.041   3.991  29.508  0.00  0.00    -0.131 NA
ATOM     33  C   UNL     1       0.845   2.941  29.844  0.00  0.00    +0.120 A 
ATOM     34  C   UNL     1       1.266   2.310  28.696  0.00  0.00    +0.138 A 
ATOM     35  N   UNL     1       0.762   3.073  27.679  0.00  0.00    -0.238 N 
ATOM     36  N   UNL     1      -0.043   4.038  28.189  0.00  0.00    -0.064 NA
BRANCH  35  37
ATOM     37  C   UNL     1       0.803   2.880  26.200  0.00  0.00    +0.122 C 
ATOM     38  C   UNL     1      -0.550   3.395  25.653  0.00  0.00    +0.044 C 
ATOM     39  C   UNL     1       1.047   1.371  26.003  0.00  0.00    +0.044 C 
BRANCH  37  40
ATOM     40  C   UNL     1       1.918   3.688  25.505  0.00  0.00    +0.192 C 
ATOM     41  O   UNL     1       2.913   4.051  26.140  0.00  0.00    -0.289 OA
BRANCH  40  42
ATOM     42  C   UNL     1       1.847   4.085  24.068  0.00  0.00    +0.045 A 
ATOM     43  C   UNL     1       1.742   5.429  23.726  0.00  0.00    +0.095 A 
ATOM     44  N   UNL     1       1.664   5.554  22.373  0.00  0.00    -0.360 N 
ATOM     45  H   UNL     1       1.572   6.427  21.870  0.00  0.00    +0.165 HD
ATOM     46  C   UNL     1       1.718   4.317  21.784  0.00  0.00    +0.047 A 
ATOM     47  C   UNL     1       1.659   3.989  20.421  0.00  0.00    +0.026 A 
ATOM     48  C   UNL     1       1.728   2.644  20.063  0.00  0.00    +0.002 A 
ATOM     49  C   UNL     1       1.853   1.664  21.035  0.00  0.00    +0.001 A 
ATOM     50  C   UNL     1       1.911   2.012  22.390  0.00  0.00    +0.011 A 
ATOM     51  C   UNL     1       1.840   3.366  22.806  0.00  0.00    +0.010 A 
ENDBRANCH  40  42
ENDBRANCH  37  40
ENDBRANCH  35  37
ENDBRANCH  31  33
ENDBRANCH  30  31
ENDBRANCH   1  30
TORSDOF 16
