REMARK VINA RESULT:    -6.603      9.638     16.519
REMARK INTER + INTRA:         -13.579
REMARK INTER:                 -11.429
REMARK INTRA:                  -2.150
REMARK UNBOUND:                -2.150
REMARK  Name = lig_assembled_80.pdb
REMARK  16 active torsions:
REMARK  status: ('A' for Active; 'I' for Inactive)
REMARK    1  A    between atoms: _2  and  _10
REMARK    2  A    between atoms: _5  and  _24
REMARK    3  A    between atoms: _7  and  _8
REMARK    4  A    between atoms: _7  and  _24
REMARK    5  A    between atoms: _20  and  _40
REMARK    6  A    between atoms: _22  and  _28
REMARK    7  A    between atoms: _23  and  _27
REMARK    8  A    between atoms: _27  and  _28
REMARK    9  A    between atoms: _30  and  _31
REMARK   10  A    between atoms: _32  and  _33
REMARK   11  A    between atoms: _34  and  _36
REMARK   12  A    between atoms: _36  and  _37
REMARK   13  A    between atoms: _36  and  _38
REMARK   14  A    between atoms: _38  and  _39
REMARK   15  A    between atoms: _38  and  _40
REMARK   16  A    between atoms: _41  and  _43
REMARK                            x       y       z     vdW  Elec       q    Type
REMARK                         _______ _______ _______ _____ _____    ______ ____
ROOT
ATOM      1  C   UNL     1      -6.483   7.877  18.422  0.00  0.00    +0.141 C 
ENDROOT
BRANCH   1   4
ATOM      2  C   UNL     1      -6.200   5.501  19.038  0.00  0.00    +0.401 C 
ATOM      3  O   UNL     1      -7.365   5.195  18.771  0.00  0.00    -0.226 OA
ATOM      4  N   UNL     1      -5.705   6.732  18.910  0.00  0.00    -0.279 N 
ATOM      5  H   UNL     1      -4.739   6.887  19.163  0.00  0.00    +0.152 HD
BRANCH   2   6
ATOM      6  O   UNL     1      -5.310   4.491  19.519  0.00  0.00    -0.444 OA
BRANCH   6   7
ATOM      7  C   UNL     1      -4.508   4.006  18.438  0.00  0.00    +0.292 C 
BRANCH   7   9
ATOM      8  N   UNL     1      -2.355   5.057  17.864  0.00  0.00    -0.131 NA
ATOM      9  C   UNL     1      -3.078   4.256  18.705  0.00  0.00    +0.120 A 
ATOM     10  C   UNL     1      -2.266   3.809  19.724  0.00  0.00    +0.138 A 
ATOM     11  N   UNL     1      -1.038   4.329  19.413  0.00  0.00    -0.239 N 
ATOM     12  N   UNL     1      -1.108   5.109  18.312  0.00  0.00    -0.065 NA
BRANCH  11  13
ATOM     13  C   UNL     1       0.216   4.296  20.176  0.00  0.00    +0.195 C 
ATOM     14  C   UNL     1       0.012   5.071  21.471  0.00  0.00    +0.041 C 
ATOM     15  C   UNL     1       1.333   5.325  22.166  0.00  0.00    +0.039 C 
ATOM     16  C   UNL     1       1.698   4.144  23.010  0.00  0.00    -0.026 A 
ATOM     17  C   UNL     1       1.975   2.889  22.466  0.00  0.00    +0.037 A 
ATOM     18  C   UNL     1       2.429   1.861  23.310  0.00  0.00    +0.023 A 
ATOM     19  C   UNL     1       2.495   2.039  24.691  0.00  0.00    +0.002 A 
ATOM     20  C   UNL     1       2.149   3.264  25.241  0.00  0.00    +0.000 A 
ATOM     21  N   UNL     1       1.762   2.509  21.130  0.00  0.00    -0.284 N 
ATOM     22  H   UNL     1       2.047   1.560  20.907  0.00  0.00    +0.155 HD
ATOM     23  C   UNL     1       1.779   4.316  24.405  0.00  0.00    +0.005 A 
ATOM     24  C   UNL     1       0.776   2.881  20.261  0.00  0.00    +0.242 C 
ATOM     25  O   UNL     1       0.440   2.004  19.457  0.00  0.00    -0.273 OA
ENDBRANCH  11  13
ENDBRANCH   7   9
ENDBRANCH   6   7
ENDBRANCH   2   6
ENDBRANCH   1   4
BRANCH   1  26
ATOM     26  C   UNL     1      -5.586   9.028  17.978  0.00  0.00    +0.163 C 
BRANCH  26  27
ATOM     27  O   UNL     1      -4.893   9.575  19.111  0.00  0.00    -0.388 OA
ATOM     28  H   UNL     1      -3.995   9.235  19.133  0.00  0.00    +0.210 HD
ENDBRANCH  26  27
BRANCH  26  29
ATOM     29  C   UNL     1      -4.593   8.525  16.916  0.00  0.00    +0.175 C 
BRANCH  29  30
ATOM     30  C   UNL     1      -4.086   9.661  16.015  0.00  0.00    +0.176 C 
ATOM     31  O   UNL     1      -5.240  10.416  15.555  0.00  0.00    -0.332 OA
ATOM     32  C   UNL     1      -4.940  11.612  14.762  0.00  0.00    +0.277 C 
ATOM     33  C   UNL     1      -4.038  11.250  13.557  0.00  0.00    +0.110 C 
ATOM     34  C   UNL     1      -2.813  10.419  13.993  0.00  0.00    +0.143 C 
ATOM     35  C   UNL     1      -3.240   9.201  14.813  0.00  0.00    +0.133 C 
BRANCH  35  36
ATOM     36  N   UNL     1      -2.060   8.466  15.296  0.00  0.00    -0.308 N 
ATOM     37  H   UNL     1      -1.472   8.916  15.983  0.00  0.00    +0.149 HD
ATOM     38  C   UNL     1      -1.716   7.242  14.884  0.00  0.00    +0.210 C 
ATOM     39  C   UNL     1      -2.617   6.594  13.817  0.00  0.00    +0.109 C 
ATOM     40  O   UNL     1      -0.730   6.644  15.317  0.00  0.00    -0.276 OA
ENDBRANCH  35  36
BRANCH  32  41
ATOM     41  C   UNL     1      -4.241  12.681  15.628  0.00  0.00    +0.414 C 
ATOM     42  O   UNL     1      -3.686  13.642  15.097  0.00  0.00    -0.240 OA
ATOM     43  O   UNL     1      -4.232  12.582  16.855  0.00  0.00    -0.240 OA
ENDBRANCH  32  41
BRANCH  34  44
ATOM     44  O   UNL     1      -2.093   9.981  12.840  0.00  0.00    -0.390 OA
ATOM     45  H   UNL     1      -1.249  10.436  12.796  0.00  0.00    +0.210 HD
ENDBRANCH  34  44
BRANCH  32  46
ATOM     46  O   UNL     1      -6.193  12.139  14.254  0.00  0.00    -0.343 OA
ATOM     47  C   UNL     1      -6.402  11.954  12.831  0.00  0.00    +0.198 C 
ENDBRANCH  32  46
ENDBRANCH  29  30
BRANCH  29  48
ATOM     48  O   UNL     1      -5.202   7.491  16.116  0.00  0.00    -0.387 OA
ATOM     49  H   UNL     1      -5.119   7.715  15.186  0.00  0.00    +0.210 HD
ENDBRANCH  29  48
ENDBRANCH  26  29
ENDBRANCH   1  26
TORSDOF 14
