REMARK VINA RESULT:    -5.003      5.599      8.000
REMARK INTER + INTRA:         -12.838
REMARK INTER:                 -10.536
REMARK INTRA:                  -2.302
REMARK UNBOUND:                -3.888
REMARK  Name = lig_assembled_46.pdb
REMARK  17 active torsions:
REMARK  status: ('A' for Active; 'I' for Inactive)
REMARK    1  A    between atoms: _2  and  _9
REMARK    2  A    between atoms: _4  and  _19
REMARK    3  A    between atoms: _6  and  _7
REMARK    4  A    between atoms: _6  and  _19
REMARK    5  A    between atoms: _9  and  _10
REMARK    6  A    between atoms: _15  and  _35
REMARK    7  A    between atoms: _17  and  _23
REMARK    8  A    between atoms: _18  and  _22
REMARK    9  A    between atoms: _22  and  _23
REMARK   10  A    between atoms: _25  and  _26
REMARK   11  A    between atoms: _27  and  _28
REMARK   12  A    between atoms: _29  and  _31
REMARK   13  A    between atoms: _31  and  _32
REMARK   14  A    between atoms: _31  and  _33
REMARK   15  A    between atoms: _33  and  _34
REMARK   16  A    between atoms: _33  and  _35
REMARK   17  A    between atoms: _36  and  _38
REMARK                            x       y       z     vdW  Elec       q    Type
REMARK                         _______ _______ _______ _____ _____    ______ ____
ROOT
ATOM      1  C   UNL     1      -1.240   3.456  31.780  0.00  0.00    +0.163 C 
ENDROOT
BRANCH   1   2
ATOM      2  O   UNL     1      -1.399   2.965  33.122  0.00  0.00    -0.388 OA
ATOM      3  H   UNL     1      -2.334   2.889  33.326  0.00  0.00    +0.210 HD
ENDBRANCH   1   2
BRANCH   1   4
ATOM      4  C   UNL     1       0.068   2.940  31.188  0.00  0.00    +0.141 C 
BRANCH   4   7
ATOM      5  C   UNL     1       0.958   2.846  28.885  0.00  0.00    +0.401 C 
ATOM      6  O   UNL     1       2.084   3.235  29.204  0.00  0.00    -0.226 OA
ATOM      7  N   UNL     1      -0.047   2.686  29.747  0.00  0.00    -0.279 N 
ATOM      8  H   UNL     1      -0.938   2.372  29.388  0.00  0.00    +0.152 HD
BRANCH   5   9
ATOM      9  O   UNL     1       0.689   2.548  27.513  0.00  0.00    -0.444 OA
BRANCH   9  10
ATOM     10  C   UNL     1       1.852   2.825  26.727  0.00  0.00    +0.292 C 
BRANCH  10  12
ATOM     11  N   UNL     1       0.671   4.773  25.761  0.00  0.00    -0.131 NA
ATOM     12  C   UNL     1       1.508   3.704  25.593  0.00  0.00    +0.120 A 
ATOM     13  C   UNL     1       1.939   3.669  24.284  0.00  0.00    +0.137 A 
ATOM     14  N   UNL     1       1.375   4.778  23.721  0.00  0.00    -0.247 N 
ATOM     15  N   UNL     1       0.601   5.432  24.609  0.00  0.00    -0.065 NA
BRANCH  14  16
ATOM     16  C   UNL     1       1.720   5.401  22.455  0.00  0.00    +0.180 C 
BRANCH  16  17
ATOM     17  C   UNL     1       1.134   4.700  21.254  0.00  0.00    -0.026 A 
ATOM     18  C   UNL     1       1.928   3.877  20.440  0.00  0.00    +0.005 A 
ATOM     19  C   UNL     1       1.356   3.157  19.388  0.00  0.00    +0.000 A 
ATOM     20  C   UNL     1      -0.011   3.249  19.140  0.00  0.00    +0.000 A 
ATOM     21  C   UNL     1      -0.809   4.069  19.934  0.00  0.00    +0.000 A 
ATOM     22  C   UNL     1      -0.240   4.791  20.986  0.00  0.00    +0.005 A 
ENDBRANCH  16  17
ENDBRANCH  14  16
ENDBRANCH  10  12
ENDBRANCH   9  10
ENDBRANCH   5   9
ENDBRANCH   4   7
ENDBRANCH   1   4
BRANCH   1  23
ATOM     23  C   UNL     1      -1.245   4.994  31.753  0.00  0.00    +0.175 C 
BRANCH  23  24
ATOM     24  C   UNL     1      -2.669   5.567  31.767  0.00  0.00    +0.176 C 
ATOM     25  O   UNL     1      -3.202   5.411  33.111  0.00  0.00    -0.332 OA
ATOM     26  C   UNL     1      -4.523   6.001  33.342  0.00  0.00    +0.277 C 
ATOM     27  C   UNL     1      -5.544   5.464  32.309  0.00  0.00    +0.110 C 
ATOM     28  C   UNL     1      -5.009   5.580  30.866  0.00  0.00    +0.143 C 
ATOM     29  C   UNL     1      -3.628   4.936  30.740  0.00  0.00    +0.133 C 
BRANCH  29  30
ATOM     30  N   UNL     1      -3.091   5.129  29.383  0.00  0.00    -0.308 N 
ATOM     31  H   UNL     1      -2.788   6.057  29.124  0.00  0.00    +0.149 HD
ATOM     32  C   UNL     1      -2.979   4.158  28.473  0.00  0.00    +0.210 C 
ATOM     33  C   UNL     1      -3.475   2.761  28.890  0.00  0.00    +0.109 C 
ATOM     34  O   UNL     1      -2.512   4.346  27.349  0.00  0.00    -0.276 OA
ENDBRANCH  29  30
BRANCH  26  35
ATOM     35  C   UNL     1      -4.459   7.540  33.250  0.00  0.00    +0.414 C 
ATOM     36  O   UNL     1      -5.444   8.181  32.886  0.00  0.00    -0.240 OA
ATOM     37  O   UNL     1      -3.423   8.140  33.540  0.00  0.00    -0.240 OA
ENDBRANCH  26  35
BRANCH  26  38
ATOM     38  O   UNL     1      -4.964   5.609  34.667  0.00  0.00    -0.343 OA
ATOM     39  C   UNL     1      -5.504   4.267  34.761  0.00  0.00    +0.198 C 
ENDBRANCH  26  38
BRANCH  28  40
ATOM     40  O   UNL     1      -5.912   4.938  29.964  0.00  0.00    -0.390 OA
ATOM     41  H   UNL     1      -6.707   4.680  30.436  0.00  0.00    +0.210 HD
ENDBRANCH  28  40
ENDBRANCH  23  24
BRANCH  23  42
ATOM     42  O   UNL     1      -0.527   5.472  30.598  0.00  0.00    -0.387 OA
ATOM     43  H   UNL     1      -0.296   4.730  30.034  0.00  0.00    +0.210 HD
ENDBRANCH  23  42
ENDBRANCH   1  23
TORSDOF 15
