REMARK VINA RESULT:    -6.801      1.816      3.405
REMARK INTER + INTRA:         -13.906
REMARK INTER:                 -12.150
REMARK INTRA:                  -1.756
REMARK UNBOUND:                -2.135
REMARK  Name = lig_assembled_51.pdb
REMARK  16 active torsions:
REMARK  status: ('A' for Active; 'I' for Inactive)
REMARK    1  A    between atoms: _2  and  _9
REMARK    2  A    between atoms: _4  and  _22
REMARK    3  A    between atoms: _6  and  _7
REMARK    4  A    between atoms: _6  and  _22
REMARK    5  A    between atoms: _18  and  _38
REMARK    6  A    between atoms: _20  and  _26
REMARK    7  A    between atoms: _21  and  _25
REMARK    8  A    between atoms: _25  and  _26
REMARK    9  A    between atoms: _28  and  _29
REMARK   10  A    between atoms: _30  and  _31
REMARK   11  A    between atoms: _32  and  _34
REMARK   12  A    between atoms: _34  and  _35
REMARK   13  A    between atoms: _34  and  _36
REMARK   14  A    between atoms: _36  and  _37
REMARK   15  A    between atoms: _36  and  _38
REMARK   16  A    between atoms: _39  and  _41
REMARK                            x       y       z     vdW  Elec       q    Type
REMARK                         _______ _______ _______ _____ _____    ______ ____
ROOT
ATOM      1  C   UNL     1       3.884   3.307  33.618  0.00  0.00    +0.163 C 
ENDROOT
BRANCH   1   2
ATOM      2  O   UNL     1       4.293   4.469  32.878  0.00  0.00    -0.388 OA
ATOM      3  H   UNL     1       4.545   5.166  33.489  0.00  0.00    +0.210 HD
ENDBRANCH   1   2
BRANCH   1   4
ATOM      4  C   UNL     1       2.721   2.620  32.911  0.00  0.00    +0.141 C 
BRANCH   4   7
ATOM      5  C   UNL     1       1.219   3.556  31.187  0.00  0.00    +0.401 C 
ATOM      6  O   UNL     1       0.194   3.380  31.850  0.00  0.00    -0.226 OA
ATOM      7  N   UNL     1       2.442   3.224  31.602  0.00  0.00    -0.279 N 
ATOM      8  H   UNL     1       3.220   3.400  30.983  0.00  0.00    +0.152 HD
BRANCH   5   9
ATOM      9  O   UNL     1       1.113   4.146  29.888  0.00  0.00    -0.444 OA
BRANCH   9  10
ATOM     10  C   UNL     1       0.488   3.222  28.993  0.00  0.00    +0.292 C 
BRANCH  10  12
ATOM     11  N   UNL     1       2.244   3.770  27.336  0.00  0.00    -0.131 NA
ATOM     12  C   UNL     1       0.940   3.460  27.610  0.00  0.00    +0.120 A 
ATOM     13  C   UNL     1       0.230   3.428  26.432  0.00  0.00    +0.137 A 
ATOM     14  N   UNL     1       1.154   3.732  25.471  0.00  0.00    -0.245 N 
ATOM     15  N   UNL     1       2.364   3.933  26.026  0.00  0.00    -0.065 NA
BRANCH  14  16
ATOM     16  C   UNL     1       0.940   3.850  24.027  0.00  0.00    +0.066 C 
ATOM     17  C   UNL     1      -0.581   3.905  23.717  0.00  0.00    +0.034 C 
ATOM     18  C   UNL     1      -0.828   4.076  22.208  0.00  0.00    -0.008 C 
ATOM     19  C   UNL     1      -0.160   5.377  21.730  0.00  0.00    +0.007 C 
ATOM     20  C   UNL     1       1.354   5.319  21.989  0.00  0.00    -0.008 C 
ATOM     21  C   UNL     1       1.954   4.121  21.237  0.00  0.00    +0.007 C 
ATOM     22  C   UNL     1       1.296   2.819  21.719  0.00  0.00    -0.008 C 
ATOM     23  C   UNL     1      -0.216   2.885  21.455  0.00  0.00    +0.007 C 
ATOM     24  C   UNL     1       1.605   5.151  23.497  0.00  0.00    +0.034 C 
ATOM     25  C   UNL     1       1.542   2.654  23.229  0.00  0.00    +0.034 C 
ENDBRANCH  14  16
ENDBRANCH  10  12
ENDBRANCH   9  10
ENDBRANCH   5   9
ENDBRANCH   4   7
ENDBRANCH   1   4
BRANCH   1  26
ATOM     26  C   UNL     1       3.464   3.685  35.049  0.00  0.00    +0.175 C 
BRANCH  26  27
ATOM     27  C   UNL     1       4.253   4.890  35.583  0.00  0.00    +0.176 C 
ATOM     28  O   UNL     1       5.648   4.710  35.215  0.00  0.00    -0.332 OA
ATOM     29  C   UNL     1       6.541   5.823  35.553  0.00  0.00    +0.277 C 
ATOM     30  C   UNL     1       6.437   6.162  37.060  0.00  0.00    +0.110 C 
ATOM     31  C   UNL     1       4.969   6.332  37.505  0.00  0.00    +0.143 C 
ATOM     32  C   UNL     1       4.129   5.119  37.101  0.00  0.00    +0.133 C 
BRANCH  32  33
ATOM     33  N   UNL     1       2.716   5.330  37.453  0.00  0.00    -0.308 N 
ATOM     34  H   UNL     1       2.203   6.034  36.941  0.00  0.00    +0.149 HD
ATOM     35  C   UNL     1       2.069   4.653  38.405  0.00  0.00    +0.210 C 
ATOM     36  C   UNL     1       2.886   3.606  39.184  0.00  0.00    +0.109 C 
ATOM     37  O   UNL     1       0.880   4.840  38.668  0.00  0.00    -0.276 OA
ENDBRANCH  32  33
BRANCH  29  38
ATOM     38  C   UNL     1       6.197   7.073  34.718  0.00  0.00    +0.414 C 
ATOM     39  O   UNL     1       6.903   8.078  34.785  0.00  0.00    -0.240 OA
ATOM     40  O   UNL     1       5.213   7.077  33.976  0.00  0.00    -0.240 OA
ENDBRANCH  29  38
BRANCH  31  41
ATOM     41  O   UNL     1       4.911   6.492  38.923  0.00  0.00    -0.390 OA
ATOM     42  H   UNL     1       3.994   6.525  39.205  0.00  0.00    +0.210 HD
ENDBRANCH  31  41
BRANCH  29  43
ATOM     43  O   UNL     1       7.902   5.407  35.271  0.00  0.00    -0.343 OA
ATOM     44  C   UNL     1       8.023   4.152  34.554  0.00  0.00    +0.198 C 
ENDBRANCH  29  43
ENDBRANCH  26  27
BRANCH  26  45
ATOM     45  O   UNL     1       3.627   2.555  35.930  0.00  0.00    -0.387 OA
ATOM     46  H   UNL     1       3.939   1.799  35.426  0.00  0.00    +0.210 HD
ENDBRANCH  26  45
ENDBRANCH   1  26
TORSDOF 14
