REMARK VINA RESULT:    -6.693      1.689      3.139
REMARK INTER + INTRA:         -13.532
REMARK INTER:                 -11.487
REMARK INTRA:                  -2.045
REMARK UNBOUND:                -1.557
REMARK  Name = lig_assembled_28.pdb
REMARK  17 active torsions:
REMARK  status: ('A' for Active; 'I' for Inactive)
REMARK    1  A    between atoms: _2  and  _9
REMARK    2  A    between atoms: _4  and  _22
REMARK    3  A    between atoms: _6  and  _7
REMARK    4  A    between atoms: _6  and  _22
REMARK    5  A    between atoms: _9  and  _10
REMARK    6  A    between atoms: _18  and  _38
REMARK    7  A    between atoms: _20  and  _26
REMARK    8  A    between atoms: _21  and  _25
REMARK    9  A    between atoms: _25  and  _26
REMARK   10  A    between atoms: _28  and  _29
REMARK   11  A    between atoms: _30  and  _31
REMARK   12  A    between atoms: _32  and  _34
REMARK   13  A    between atoms: _34  and  _35
REMARK   14  A    between atoms: _34  and  _36
REMARK   15  A    between atoms: _36  and  _37
REMARK   16  A    between atoms: _36  and  _38
REMARK   17  A    between atoms: _39  and  _41
REMARK                            x       y       z     vdW  Elec       q    Type
REMARK                         _______ _______ _______ _____ _____    ______ ____
ROOT
ATOM      1  C   UNL     1       2.781   1.416  31.869  0.00  0.00    +0.163 C 
ENDROOT
BRANCH   1   2
ATOM      2  O   UNL     1       2.816   0.133  32.515  0.00  0.00    -0.388 OA
ATOM      3  H   UNL     1       2.327  -0.504  31.989  0.00  0.00    +0.210 HD
ENDBRANCH   1   2
BRANCH   1   4
ATOM      4  C   UNL     1       2.413   1.251  30.398  0.00  0.00    +0.141 C 
BRANCH   4   7
ATOM      5  C   UNL     1       1.477   3.152  29.129  0.00  0.00    +0.401 C 
ATOM      6  O   UNL     1       2.543   3.428  28.574  0.00  0.00    -0.226 OA
ATOM      7  N   UNL     1       1.327   2.155  30.001  0.00  0.00    -0.279 N 
ATOM      8  H   UNL     1       0.414   2.012  30.411  0.00  0.00    +0.152 HD
BRANCH   5   9
ATOM      9  O   UNL     1       0.318   3.939  28.838  0.00  0.00    -0.444 OA
BRANCH   9  10
ATOM     10  C   UNL     1      -0.402   3.346  27.754  0.00  0.00    +0.292 C 
BRANCH  10  12
ATOM     11  N   UNL     1      -0.817   5.213  26.177  0.00  0.00    -0.131 NA
ATOM     12  C   UNL     1      -0.132   4.073  26.500  0.00  0.00    +0.120 A 
ATOM     13  C   UNL     1       0.790   3.808  25.513  0.00  0.00    +0.137 A 
ATOM     14  N   UNL     1       0.688   4.875  24.666  0.00  0.00    -0.247 N 
ATOM     15  N   UNL     1      -0.315   5.690  25.045  0.00  0.00    -0.065 NA
BRANCH  14  16
ATOM     16  C   UNL     1       1.525   5.270  23.541  0.00  0.00    +0.180 C 
BRANCH  16  17
ATOM     17  C   UNL     1       1.163   4.585  22.244  0.00  0.00    -0.022 A 
ATOM     18  C   UNL     1       0.177   5.136  21.405  0.00  0.00    +0.055 A 
ATOM     19  C   UNL     1      -0.036   4.539  20.181  0.00  0.00    +0.167 A 
ATOM     20  O   UNL     1      -0.909   4.974  19.230  0.00  0.00    -0.453 OA
ATOM     21  C   UNL     1      -0.607   4.060  18.154  0.00  0.00    +0.466 C 
ATOM     22  O   UNL     1       0.317   3.017  18.531  0.00  0.00    -0.453 OA
ATOM     23  C   UNL     1       0.658   3.425  19.783  0.00  0.00    +0.166 A 
ATOM     24  C   UNL     1       1.607   2.836  20.592  0.00  0.00    +0.050 A 
ATOM     25  C   UNL     1       1.865   3.429  21.831  0.00  0.00    +0.009 A 
ENDBRANCH  16  17
ENDBRANCH  14  16
ENDBRANCH  10  12
ENDBRANCH   9  10
ENDBRANCH   5   9
ENDBRANCH   4   7
ENDBRANCH   1   4
BRANCH   1  26
ATOM     26  C   UNL     1       4.141   2.126  31.981  0.00  0.00    +0.175 C 
BRANCH  26  27
ATOM     27  C   UNL     1       4.463   2.532  33.427  0.00  0.00    +0.176 C 
ATOM     28  O   UNL     1       4.571   3.982  33.471  0.00  0.00    -0.332 OA
ATOM     29  C   UNL     1       4.772   4.563  34.802  0.00  0.00    +0.277 C 
ATOM     30  C   UNL     1       6.005   3.926  35.489  0.00  0.00    +0.110 C 
ATOM     31  C   UNL     1       5.951   2.384  35.439  0.00  0.00    +0.143 C 
ATOM     32  C   UNL     1       5.736   1.889  34.009  0.00  0.00    +0.133 C 
BRANCH  32  33
ATOM     33  N   UNL     1       5.599   0.424  33.987  0.00  0.00    -0.308 N 
ATOM     34  H   UNL     1       4.768   0.021  34.396  0.00  0.00    +0.149 HD
ATOM     35  C   UNL     1       6.502  -0.408  33.461  0.00  0.00    +0.210 C 
ATOM     36  C   UNL     1       7.770   0.235  32.867  0.00  0.00    +0.109 C 
ATOM     37  O   UNL     1       6.354  -1.631  33.443  0.00  0.00    -0.276 OA
ENDBRANCH  32  33
BRANCH  29  38
ATOM     38  C   UNL     1       3.524   4.354  35.684  0.00  0.00    +0.414 C 
ATOM     39  O   UNL     1       2.403   4.339  35.179  0.00  0.00    -0.240 OA
ATOM     40  O   UNL     1       3.639   4.200  36.901  0.00  0.00    -0.240 OA
ENDBRANCH  29  38
BRANCH  29  41
ATOM     41  O   UNL     1       5.023   5.983  34.638  0.00  0.00    -0.343 OA
ATOM     42  C   UNL     1       5.938   6.558  35.605  0.00  0.00    +0.198 C 
ENDBRANCH  29  41
BRANCH  31  43
ATOM     43  O   UNL     1       7.172   1.843  35.946  0.00  0.00    -0.390 OA
ATOM     44  H   UNL     1       7.596   2.488  36.517  0.00  0.00    +0.210 HD
ENDBRANCH  31  43
ENDBRANCH  26  27
BRANCH  26  45
ATOM     45  O   UNL     1       4.170   3.283  31.122  0.00  0.00    -0.387 OA
ATOM     46  H   UNL     1       3.357   3.324  30.613  0.00  0.00    +0.210 HD
ENDBRANCH  26  45
ENDBRANCH   1  26
TORSDOF 15
