REMARK VINA RESULT:    -5.827     22.221     25.175
REMARK INTER + INTRA:         -13.010
REMARK INTER:                  -9.039
REMARK INTRA:                  -3.971
REMARK UNBOUND:                -1.902
REMARK  Name = lig_assembled_13.pdb
REMARK  20 active torsions:
REMARK  status: ('A' for Active; 'I' for Inactive)
REMARK    1  A    between atoms: _2  and  _9
REMARK    2  A    between atoms: _4  and  _18
REMARK    3  A    between atoms: _5  and  _11
REMARK    4  A    between atoms: _6  and  _7
REMARK    5  A    between atoms: _6  and  _18
REMARK    6  A    between atoms: _9  and  _10
REMARK    7  A    between atoms: _10  and  _12
REMARK    8  A    between atoms: _11  and  _12
REMARK    9  A    between atoms: _14  and  _34
REMARK   10  A    between atoms: _16  and  _22
REMARK   11  A    between atoms: _17  and  _21
REMARK   12  A    between atoms: _21  and  _22
REMARK   13  A    between atoms: _24  and  _25
REMARK   14  A    between atoms: _26  and  _27
REMARK   15  A    between atoms: _28  and  _30
REMARK   16  A    between atoms: _30  and  _31
REMARK   17  A    between atoms: _30  and  _32
REMARK   18  A    between atoms: _32  and  _33
REMARK   19  A    between atoms: _32  and  _34
REMARK   20  A    between atoms: _35  and  _37
REMARK                            x       y       z     vdW  Elec       q    Type
REMARK                         _______ _______ _______ _____ _____    ______ ____
ROOT
ATOM      1  C   UNL     1      20.421  18.691  21.367  0.00  0.00    +0.163 C 
ENDROOT
BRANCH   1   2
ATOM      2  O   UNL     1      19.022  18.484  21.625  0.00  0.00    -0.388 OA
ATOM      3  H   UNL     1      18.792  18.872  22.473  0.00  0.00    +0.210 HD
ENDBRANCH   1   2
BRANCH   1   4
ATOM      4  C   UNL     1      20.823  20.148  21.653  0.00  0.00    +0.175 C 
BRANCH   4   5
ATOM      5  C   UNL     1      19.640  20.986  22.161  0.00  0.00    +0.176 C 
ATOM      6  O   UNL     1      19.041  21.653  21.016  0.00  0.00    -0.332 OA
ATOM      7  C   UNL     1      17.823  22.420  21.296  0.00  0.00    +0.277 C 
ATOM      8  C   UNL     1      18.078  23.447  22.425  0.00  0.00    +0.110 C 
ATOM      9  C   UNL     1      18.745  22.791  23.653  0.00  0.00    +0.143 C 
ATOM     10  C   UNL     1      19.999  22.017  23.247  0.00  0.00    +0.133 C 
BRANCH  10  11
ATOM     11  N   UNL     1      20.576  21.324  24.410  0.00  0.00    -0.308 N 
ATOM     12  H   UNL     1      19.982  20.686  24.921  0.00  0.00    +0.149 HD
ATOM     13  C   UNL     1      21.832  21.484  24.835  0.00  0.00    +0.210 C 
ATOM     14  C   UNL     1      22.703  22.484  24.051  0.00  0.00    +0.109 C 
ATOM     15  O   UNL     1      22.292  20.879  25.804  0.00  0.00    -0.276 OA
ENDBRANCH  10  11
BRANCH   7  16
ATOM     16  C   UNL     1      16.667  21.482  21.703  0.00  0.00    +0.414 C 
ATOM     17  O   UNL     1      16.560  20.370  21.187  0.00  0.00    -0.240 OA
ATOM     18  O   UNL     1      15.843  21.838  22.546  0.00  0.00    -0.240 OA
ENDBRANCH   7  16
BRANCH   7  19
ATOM     19  O   UNL     1      17.463  23.144  20.091  0.00  0.00    -0.343 OA
ATOM     20  C   UNL     1      18.558  23.841  19.445  0.00  0.00    +0.198 C 
ENDBRANCH   7  19
BRANCH   9  21
ATOM     21  O   UNL     1      19.098  23.795  24.604  0.00  0.00    -0.390 OA
ATOM     22  H   UNL     1      19.885  24.257  24.305  0.00  0.00    +0.210 HD
ENDBRANCH   9  21
ENDBRANCH   4   5
BRANCH   4  23
ATOM     23  O   UNL     1      21.386  20.750  20.470  0.00  0.00    -0.387 OA
ATOM     24  H   UNL     1      20.724  21.300  20.045  0.00  0.00    +0.210 HD
ENDBRANCH   4  23
ENDBRANCH   1   4
BRANCH   1  25
ATOM     25  C   UNL     1      21.255  17.753  22.232  0.00  0.00    +0.141 C 
BRANCH  25  28
ATOM     26  C   UNL     1      20.970  16.417  24.291  0.00  0.00    +0.401 C 
ATOM     27  O   UNL     1      21.972  15.726  24.094  0.00  0.00    -0.226 OA
ATOM     28  N   UNL     1      20.557  17.383  23.469  0.00  0.00    -0.279 N 
ATOM     29  H   UNL     1      19.717  17.889  23.712  0.00  0.00    +0.152 HD
BRANCH  26  30
ATOM     30  O   UNL     1      20.185  16.183  25.463  0.00  0.00    -0.444 OA
BRANCH  30  31
ATOM     31  C   UNL     1      20.877  16.683  26.610  0.00  0.00    +0.292 C 
BRANCH  31  33
ATOM     32  N   UNL     1      19.418  18.644  26.223  0.00  0.00    -0.131 NA
ATOM     33  C   UNL     1      20.350  18.004  26.994  0.00  0.00    +0.120 A 
ATOM     34  C   UNL     1      20.653  18.789  28.081  0.00  0.00    +0.137 A 
ATOM     35  N   UNL     1      19.923  19.925  27.878  0.00  0.00    -0.241 N 
ATOM     36  N   UNL     1      19.147  19.815  26.788  0.00  0.00    -0.065 NA
BRANCH  35  37
ATOM     37  C   UNL     1      19.836  21.096  28.721  0.00  0.00    +0.265 C 
BRANCH  37  38
ATOM     38  C   UNL     1      19.239  22.268  27.996  0.00  0.00    +0.329 C 
ATOM     39  O   UNL     1      19.814  23.009  27.212  0.00  0.00    -0.249 OA
BRANCH  38  40
ATOM     40  O   UNL     1      17.956  22.453  28.433  0.00  0.00    -0.464 OA
BRANCH  40  41
ATOM     41  C   UNL     1      17.143  23.279  27.586  0.00  0.00    +0.229 C 
ATOM     42  C   UNL     1      16.494  22.383  26.546  0.00  0.00    +0.048 C 
ENDBRANCH  40  41
ENDBRANCH  38  40
ENDBRANCH  37  38
ENDBRANCH  35  37
ENDBRANCH  31  33
ENDBRANCH  30  31
ENDBRANCH  26  30
ENDBRANCH  25  28
ENDBRANCH   1  25
TORSDOF 17
