REMARK VINA RESULT:    -7.318      0.000      0.000
REMARK INTER + INTRA:         -14.907
REMARK INTER:                 -12.548
REMARK INTRA:                  -2.359
REMARK UNBOUND:                -1.813
REMARK  Name = lig_assembled_41.pdb
REMARK  18 active torsions:
REMARK  status: ('A' for Active; 'I' for Inactive)
REMARK    1  A    between atoms: _2  and  _9
REMARK    2  A    between atoms: _4  and  _21
REMARK    3  A    between atoms: _6  and  _7
REMARK    4  A    between atoms: _6  and  _21
REMARK    5  A    between atoms: _10  and  _11
REMARK    6  A    between atoms: _11  and  _12
REMARK    7  A    between atoms: _17  and  _37
REMARK    8  A    between atoms: _19  and  _25
REMARK    9  A    between atoms: _20  and  _24
REMARK   10  A    between atoms: _24  and  _25
REMARK   11  A    between atoms: _27  and  _28
REMARK   12  A    between atoms: _29  and  _30
REMARK   13  A    between atoms: _31  and  _33
REMARK   14  A    between atoms: _33  and  _34
REMARK   15  A    between atoms: _33  and  _35
REMARK   16  A    between atoms: _35  and  _36
REMARK   17  A    between atoms: _35  and  _37
REMARK   18  A    between atoms: _38  and  _40
REMARK                            x       y       z     vdW  Elec       q    Type
REMARK                         _______ _______ _______ _____ _____    ______ ____
ROOT
ATOM      1  C   UNL     1       4.004   3.669  32.575  0.00  0.00    +0.163 C 
ENDROOT
BRANCH   1   2
ATOM      2  O   UNL     1       3.212   3.997  33.728  0.00  0.00    -0.388 OA
ATOM      3  H   UNL     1       3.729   4.541  34.328  0.00  0.00    +0.210 HD
ENDBRANCH   1   2
BRANCH   1   4
ATOM      4  C   UNL     1       3.279   2.632  31.723  0.00  0.00    +0.141 C 
BRANCH   4   7
ATOM      5  C   UNL     1       1.191   3.676  30.915  0.00  0.00    +0.401 C 
ATOM      6  O   UNL     1       0.608   3.570  31.997  0.00  0.00    -0.226 OA
ATOM      7  N   UNL     1       2.438   3.259  30.696  0.00  0.00    -0.279 N 
ATOM      8  H   UNL     1       2.827   3.381  29.771  0.00  0.00    +0.152 HD
BRANCH   5   9
ATOM      9  O   UNL     1       0.505   4.276  29.813  0.00  0.00    -0.444 OA
BRANCH   9  10
ATOM     10  C   UNL     1       0.106   3.260  28.889  0.00  0.00    +0.292 C 
BRANCH  10  12
ATOM     11  N   UNL     1       2.157   3.634  27.571  0.00  0.00    -0.131 NA
ATOM     12  C   UNL     1       0.811   3.427  27.605  0.00  0.00    +0.121 A 
ATOM     13  C   UNL     1       0.329   3.393  26.315  0.00  0.00    +0.143 A 
ATOM     14  N   UNL     1       1.410   3.694  25.519  0.00  0.00    -0.219 N 
ATOM     15  N   UNL     1       2.523   3.741  26.303  0.00  0.00    -0.060 NA
BRANCH  14  16
ATOM     16  C   UNL     1       1.516   3.832  24.105  0.00  0.00    +0.077 A 
ATOM     17  C   UNL     1       1.776   2.771  23.211  0.00  0.00    +0.043 A 
ATOM     18  C   UNL     1       1.905   3.059  21.836  0.00  0.00    +0.013 A 
ATOM     19  C   UNL     1       1.788   4.365  21.354  0.00  0.00    +0.001 A 
ATOM     20  C   UNL     1       1.507   5.403  22.229  0.00  0.00    +0.002 A 
ATOM     21  C   UNL     1       1.361   5.139  23.590  0.00  0.00    +0.028 A 
BRANCH  17  22
ATOM     22  C   UNL     1       1.718   1.328  23.593  0.00  0.00    +0.162 C 
ATOM     23  O   UNL     1       2.675   0.819  24.172  0.00  0.00    -0.292 OA
ATOM     24  C   UNL     1       0.494   0.504  23.271  0.00  0.00    +0.091 C 
ENDBRANCH  17  22
ENDBRANCH  14  16
ENDBRANCH  10  12
ENDBRANCH   9  10
ENDBRANCH   5   9
ENDBRANCH   4   7
ENDBRANCH   1   4
BRANCH   1  25
ATOM     25  C   UNL     1       5.380   3.121  32.991  0.00  0.00    +0.175 C 
BRANCH  25  26
ATOM     26  C   UNL     1       5.922   3.815  34.249  0.00  0.00    +0.176 C 
ATOM     27  O   UNL     1       6.013   5.239  33.970  0.00  0.00    -0.332 OA
ATOM     28  C   UNL     1       6.415   6.082  35.101  0.00  0.00    +0.277 C 
ATOM     29  C   UNL     1       7.751   5.580  35.701  0.00  0.00    +0.110 C 
ATOM     30  C   UNL     1       7.714   4.064  35.985  0.00  0.00    +0.143 C 
ATOM     31  C   UNL     1       7.281   3.284  34.743  0.00  0.00    +0.133 C 
BRANCH  31  32
ATOM     32  N   UNL     1       7.166   1.849  35.049  0.00  0.00    -0.308 N 
ATOM     33  H   UNL     1       6.538   1.575  35.792  0.00  0.00    +0.149 HD
ATOM     34  C   UNL     1       7.836   0.887  34.411  0.00  0.00    +0.210 C 
ATOM     35  C   UNL     1       8.804   1.340  33.302  0.00  0.00    +0.109 C 
ATOM     36  O   UNL     1       7.709  -0.308  34.679  0.00  0.00    -0.276 OA
ENDBRANCH  31  32
BRANCH  28  37
ATOM     37  C   UNL     1       5.327   6.085  36.195  0.00  0.00    +0.414 C 
ATOM     38  O   UNL     1       4.150   5.884  35.899  0.00  0.00    -0.240 OA
ATOM     39  O   UNL     1       5.626   6.288  37.372  0.00  0.00    -0.240 OA
ENDBRANCH  28  37
BRANCH  30  40
ATOM     40  O   UNL     1       9.009   3.618  36.392  0.00  0.00    -0.390 OA
ATOM     41  H   UNL     1       9.590   4.375  36.496  0.00  0.00    +0.210 HD
ENDBRANCH  30  40
BRANCH  28  42
ATOM     42  O   UNL     1       6.614   7.431  34.606  0.00  0.00    -0.343 OA
ATOM     43  C   UNL     1       7.787   8.107  35.125  0.00  0.00    +0.198 C 
ENDBRANCH  28  42
ENDBRANCH  25  26
BRANCH  25  44
ATOM     44  O   UNL     1       6.318   3.259  31.904  0.00  0.00    -0.387 OA
ATOM     45  H   UNL     1       7.067   2.677  32.052  0.00  0.00    +0.210 HD
ENDBRANCH  25  44
ENDBRANCH   1  25
TORSDOF 15
