REMARK VINA RESULT:    -6.810      7.271     11.237
REMARK INTER + INTRA:         -14.650
REMARK INTER:                 -11.271
REMARK INTRA:                  -3.379
REMARK UNBOUND:                -2.067
REMARK  Name = lig_assembled_79.pdb
REMARK  20 active torsions:
REMARK  status: ('A' for Active; 'I' for Inactive)
REMARK    1  A    between atoms: _2  and  _10
REMARK    2  A    between atoms: _5  and  _26
REMARK    3  A    between atoms: _7  and  _8
REMARK    4  A    between atoms: _7  and  _26
REMARK    5  A    between atoms: _10  and  _11
REMARK    6  A    between atoms: _10  and  _12
REMARK    7  A    between atoms: _10  and  _13
REMARK    8  A    between atoms: _13  and  _14
REMARK    9  A    between atoms: _22  and  _42
REMARK   10  A    between atoms: _24  and  _30
REMARK   11  A    between atoms: _25  and  _29
REMARK   12  A    between atoms: _29  and  _30
REMARK   13  A    between atoms: _32  and  _33
REMARK   14  A    between atoms: _34  and  _35
REMARK   15  A    between atoms: _36  and  _38
REMARK   16  A    between atoms: _38  and  _39
REMARK   17  A    between atoms: _38  and  _40
REMARK   18  A    between atoms: _40  and  _41
REMARK   19  A    between atoms: _40  and  _42
REMARK   20  A    between atoms: _43  and  _45
REMARK                            x       y       z     vdW  Elec       q    Type
REMARK                         _______ _______ _______ _____ _____    ______ ____
ROOT
ATOM      1  C   UNL     1      -1.236   5.042  25.662  0.00  0.00    +0.401 C 
ATOM      2  O   UNL     1      -0.609   5.913  25.055  0.00  0.00    -0.226 OA
ATOM      3  N   UNL     1      -2.250   4.352  25.137  0.00  0.00    -0.279 N 
ATOM      4  H   UNL     1      -2.696   3.650  25.711  0.00  0.00    +0.152 HD
ENDROOT
BRANCH   3   5
ATOM      5  C   UNL     1      -2.754   4.555  23.774  0.00  0.00    +0.141 C 
BRANCH   5   6
ATOM      6  C   UNL     1      -1.951   3.764  22.747  0.00  0.00    +0.163 C 
BRANCH   6   7
ATOM      7  O   UNL     1      -2.757   2.705  22.202  0.00  0.00    -0.388 OA
ATOM      8  H   UNL     1      -3.411   2.434  22.851  0.00  0.00    +0.210 HD
ENDBRANCH   6   7
BRANCH   6   9
ATOM      9  C   UNL     1      -1.463   4.710  21.636  0.00  0.00    +0.175 C 
BRANCH   9  10
ATOM     10  C   UNL     1      -0.453   4.030  20.701  0.00  0.00    +0.176 C 
ATOM     11  O   UNL     1      -1.198   3.220  19.751  0.00  0.00    -0.332 OA
ATOM     12  C   UNL     1      -0.399   2.574  18.705  0.00  0.00    +0.277 C 
ATOM     13  C   UNL     1       0.737   1.730  19.334  0.00  0.00    +0.110 C 
ATOM     14  C   UNL     1       1.538   2.540  20.375  0.00  0.00    +0.143 C 
ATOM     15  C   UNL     1       0.608   3.171  21.413  0.00  0.00    +0.133 C 
BRANCH  15  16
ATOM     16  N   UNL     1       1.374   4.010  22.348  0.00  0.00    -0.308 N 
ATOM     17  H   UNL     1       1.723   4.896  22.009  0.00  0.00    +0.149 HD
ATOM     18  C   UNL     1       1.639   3.678  23.614  0.00  0.00    +0.210 C 
ATOM     19  C   UNL     1       1.117   2.310  24.092  0.00  0.00    +0.109 C 
ATOM     20  O   UNL     1       2.271   4.409  24.379  0.00  0.00    -0.276 OA
ENDBRANCH  15  16
BRANCH  12  21
ATOM     21  C   UNL     1       0.207   3.625  17.752  0.00  0.00    +0.414 C 
ATOM     22  O   UNL     1       1.002   3.284  16.877  0.00  0.00    -0.240 OA
ATOM     23  O   UNL     1      -0.099   4.813  17.857  0.00  0.00    -0.240 OA
ENDBRANCH  12  21
BRANCH  14  24
ATOM     24  O   UNL     1       2.471   1.685  21.037  0.00  0.00    -0.390 OA
ATOM     25  H   UNL     1       2.537   1.937  21.961  0.00  0.00    +0.210 HD
ENDBRANCH  14  24
BRANCH  12  26
ATOM     26  O   UNL     1      -1.270   1.684  17.960  0.00  0.00    -0.343 OA
ATOM     27  C   UNL     1      -2.660   2.094  17.904  0.00  0.00    +0.198 C 
ENDBRANCH  12  26
ENDBRANCH   9  10
BRANCH   9  28
ATOM     28  O   UNL     1      -0.884   5.897  22.214  0.00  0.00    -0.387 OA
ATOM     29  H   UNL     1      -1.167   6.667  21.715  0.00  0.00    +0.210 HD
ENDBRANCH   9  28
ENDBRANCH   6   9
ENDBRANCH   5   6
ENDBRANCH   3   5
BRANCH   1  30
ATOM     30  O   UNL     1      -0.869   4.732  27.008  0.00  0.00    -0.444 OA
BRANCH  30  31
ATOM     31  C   UNL     1      -0.690   3.320  27.142  0.00  0.00    +0.292 C 
BRANCH  31  33
ATOM     32  N   UNL     1       1.622   3.576  27.963  0.00  0.00    -0.131 NA
ATOM     33  C   UNL     1       0.379   3.034  28.116  0.00  0.00    +0.120 A 
ATOM     34  C   UNL     1       0.365   2.248  29.246  0.00  0.00    +0.138 A 
ATOM     35  N   UNL     1       1.604   2.419  29.799  0.00  0.00    -0.238 N 
ATOM     36  N   UNL     1       2.377   3.161  28.967  0.00  0.00    -0.064 NA
BRANCH  35  37
ATOM     37  C   UNL     1       2.238   1.783  30.991  0.00  0.00    +0.122 C 
ATOM     38  C   UNL     1       1.301   2.064  32.189  0.00  0.00    +0.044 C 
ATOM     39  C   UNL     1       3.631   2.434  31.095  0.00  0.00    +0.044 C 
BRANCH  37  40
ATOM     40  C   UNL     1       2.381   0.252  30.867  0.00  0.00    +0.192 C 
ATOM     41  O   UNL     1       1.717  -0.497  31.591  0.00  0.00    -0.289 OA
BRANCH  40  42
ATOM     42  C   UNL     1       3.323  -0.393  29.907  0.00  0.00    +0.045 A 
ATOM     43  C   UNL     1       4.480  -1.004  30.377  0.00  0.00    +0.095 A 
ATOM     44  N   UNL     1       5.198  -1.497  29.330  0.00  0.00    -0.360 N 
ATOM     45  H   UNL     1       6.085  -1.977  29.403  0.00  0.00    +0.165 HD
ATOM     46  C   UNL     1       4.548  -1.235  28.152  0.00  0.00    +0.047 A 
ATOM     47  C   UNL     1       4.938  -1.556  26.843  0.00  0.00    +0.026 A 
ATOM     48  C   UNL     1       4.102  -1.175  25.794  0.00  0.00    +0.002 A 
ATOM     49  C   UNL     1       2.918  -0.501  26.048  0.00  0.00    +0.001 A 
ATOM     50  C   UNL     1       2.546  -0.192  27.362  0.00  0.00    +0.011 A 
ATOM     51  C   UNL     1       3.364  -0.552  28.463  0.00  0.00    +0.010 A 
ENDBRANCH  40  42
ENDBRANCH  37  40
ENDBRANCH  35  37
ENDBRANCH  31  33
ENDBRANCH  30  31
ENDBRANCH   1  30
TORSDOF 16
