REMARK VINA RESULT:    -6.169      1.554      1.906
REMARK INTER + INTRA:         -15.793
REMARK INTER:                 -12.761
REMARK INTRA:                  -3.031
REMARK UNBOUND:                -3.133
REMARK  Name = lig_assembled_90.pdb
REMARK  22 active torsions:
REMARK  status: ('A' for Active; 'I' for Inactive)
REMARK    1  A    between atoms: _2  and  _13
REMARK    2  A    between atoms: _3  and  _15
REMARK    3  A    between atoms: _4  and  _17
REMARK    4  A    between atoms: _8  and  _28
REMARK    5  A    between atoms: _10  and  _11
REMARK    6  A    between atoms: _10  and  _28
REMARK    7  A    between atoms: _13  and  _14
REMARK    8  A    between atoms: _15  and  _16
REMARK    9  A    between atoms: _16  and  _17
REMARK   10  A    between atoms: _16  and  _22
REMARK   11  A    between atoms: _24  and  _44
REMARK   12  A    between atoms: _26  and  _32
REMARK   13  A    between atoms: _27  and  _31
REMARK   14  A    between atoms: _31  and  _32
REMARK   15  A    between atoms: _34  and  _35
REMARK   16  A    between atoms: _36  and  _37
REMARK   17  A    between atoms: _38  and  _40
REMARK   18  A    between atoms: _40  and  _41
REMARK   19  A    between atoms: _40  and  _42
REMARK   20  A    between atoms: _42  and  _43
REMARK   21  A    between atoms: _42  and  _44
REMARK   22  A    between atoms: _45  and  _47
REMARK                            x       y       z     vdW  Elec       q    Type
REMARK                         _______ _______ _______ _____ _____    ______ ____
ROOT
ATOM      1  C   UNL     1      18.385   4.383  27.885  0.00  0.00    +0.401 C 
ATOM      2  O   UNL     1      18.591   3.949  29.021  0.00  0.00    -0.226 OA
ATOM      3  N   UNL     1      17.586   3.794  26.995  0.00  0.00    -0.279 N 
ATOM      4  H   UNL     1      17.472   4.232  26.092  0.00  0.00    +0.152 HD
ENDROOT
BRANCH   3   5
ATOM      5  C   UNL     1      16.861   2.543  27.254  0.00  0.00    +0.141 C 
BRANCH   5   6
ATOM      6  C   UNL     1      17.503   1.357  26.542  0.00  0.00    +0.163 C 
BRANCH   6   7
ATOM      7  O   UNL     1      17.444   0.191  27.380  0.00  0.00    -0.388 OA
ATOM      8  H   UNL     1      17.981  -0.507  26.997  0.00  0.00    +0.210 HD
ENDBRANCH   6   7
BRANCH   6   9
ATOM      9  C   UNL     1      16.786   1.110  25.204  0.00  0.00    +0.175 C 
BRANCH   9  10
ATOM     10  C   UNL     1      17.753   0.639  24.108  0.00  0.00    +0.176 C 
ATOM     11  O   UNL     1      17.601   1.527  22.966  0.00  0.00    -0.332 OA
ATOM     12  C   UNL     1      18.527   1.294  21.854  0.00  0.00    +0.277 C 
ATOM     13  C   UNL     1      18.449  -0.180  21.385  0.00  0.00    +0.110 C 
ATOM     14  C   UNL     1      18.574  -1.162  22.569  0.00  0.00    +0.143 C 
ATOM     15  C   UNL     1      17.567  -0.825  23.669  0.00  0.00    +0.133 C 
BRANCH  15  16
ATOM     16  N   UNL     1      17.754  -1.713  24.828  0.00  0.00    -0.308 N 
ATOM     17  H   UNL     1      18.607  -1.619  25.361  0.00  0.00    +0.149 HD
ATOM     18  C   UNL     1      16.871  -2.634  25.221  0.00  0.00    +0.210 C 
ATOM     19  C   UNL     1      15.593  -2.770  24.372  0.00  0.00    +0.109 C 
ATOM     20  O   UNL     1      17.048  -3.354  26.205  0.00  0.00    -0.276 OA
ENDBRANCH  15  16
BRANCH  12  21
ATOM     21  C   UNL     1      19.975   1.627  22.269  0.00  0.00    +0.414 C 
ATOM     22  O   UNL     1      20.191   2.377  23.220  0.00  0.00    -0.240 OA
ATOM     23  O   UNL     1      20.927   1.146  21.653  0.00  0.00    -0.240 OA
ENDBRANCH  12  21
BRANCH  14  24
ATOM     24  O   UNL     1      18.346  -2.496  22.114  0.00  0.00    -0.390 OA
ATOM     25  H   UNL     1      19.125  -2.815  21.652  0.00  0.00    +0.210 HD
ENDBRANCH  14  24
BRANCH  12  26
ATOM     26  O   UNL     1      18.127   2.147  20.751  0.00  0.00    -0.343 OA
ATOM     27  C   UNL     1      17.142   1.569  19.857  0.00  0.00    +0.198 C 
ENDBRANCH  12  26
ENDBRANCH   9  10
BRANCH   9  28
ATOM     28  O   UNL     1      16.099   2.304  24.781  0.00  0.00    -0.387 OA
ATOM     29  H   UNL     1      16.423   2.572  23.918  0.00  0.00    +0.210 HD
ENDBRANCH   9  28
ENDBRANCH   6   9
ENDBRANCH   5   6
ENDBRANCH   3   5
BRANCH   1  30
ATOM     30  O   UNL     1      19.027   5.594  27.478  0.00  0.00    -0.444 OA
BRANCH  30  31
ATOM     31  C   UNL     1      19.865   6.069  28.535  0.00  0.00    +0.292 C 
BRANCH  31  33
ATOM     32  N   UNL     1      18.910   8.256  27.858  0.00  0.00    -0.131 NA
ATOM     33  C   UNL     1      19.778   7.539  28.640  0.00  0.00    +0.120 A 
ATOM     34  C   UNL     1      20.473   8.407  29.451  0.00  0.00    +0.137 A 
ATOM     35  N   UNL     1      19.968   9.632  29.133  0.00  0.00    -0.242 N 
ATOM     36  N   UNL     1      19.042   9.541  28.162  0.00  0.00    -0.065 NA
BRANCH  35  37
ATOM     37  C   UNL     1      20.383  10.925  29.622  0.00  0.00    +0.240 C 
BRANCH  37  38
ATOM     38  C   UNL     1      19.735  11.245  30.949  0.00  0.00    +0.235 C 
ATOM     39  O   UNL     1      20.350  11.767  31.878  0.00  0.00    -0.274 OA
ATOM     40  N   UNL     1      18.385  10.963  31.030  0.00  0.00    -0.311 N 
ATOM     41  H   UNL     1      17.986  10.299  30.370  0.00  0.00    +0.149 HD
BRANCH  40  42
ATOM     42  C   UNL     1      17.665  11.147  32.282  0.00  0.00    +0.137 C 
BRANCH  42  43
ATOM     43  C   UNL     1      16.863   9.891  32.652  0.00  0.00    +0.151 C 
BRANCH  43  44
ATOM     44  O   UNL     1      15.466  10.182  32.515  0.00  0.00    -0.388 OA
ATOM     45  H   UNL     1      15.056  10.191  33.404  0.00  0.00    +0.210 HD
ENDBRANCH  43  44
BRANCH  43  46
ATOM     46  C   UNL     1      17.268   8.686  31.794  0.00  0.00    +0.162 C 
BRANCH  46  47
ATOM     47  N   UNL     1      17.767   7.576  32.594  0.00  0.00    -0.269 N 
ATOM     48  C   UNL     1      19.110   7.335  32.787  0.00  0.00    +0.113 A 
ATOM     49  C   UNL     1      19.179   6.192  33.547  0.00  0.00    +0.137 A 
ATOM     50  N   UNL     1      17.922   5.721  33.825  0.00  0.00    -0.172 NA
ATOM     51  C   UNL     1      17.092   6.577  33.251  0.00  0.00    +0.450 A 
ATOM     52  N   UNL     1      15.658   6.431  33.326  0.00  0.00    +0.120 N 
ATOM     53  O   UNL     1      14.962   7.338  32.851  0.00  0.00    +0.045 OA
ATOM     54  O   UNL     1      15.220   5.399  33.851  0.00  0.00    -0.573 OA
ENDBRANCH  46  47
ENDBRANCH  43  46
ENDBRANCH  42  43
ENDBRANCH  40  42
ENDBRANCH  37  38
ENDBRANCH  35  37
ENDBRANCH  31  33
ENDBRANCH  30  31
ENDBRANCH   1  30
TORSDOF 20
