REMARK VINA RESULT:    -6.436      1.849      2.999
REMARK INTER + INTRA:         -14.112
REMARK INTER:                 -12.386
REMARK INTRA:                  -1.726
REMARK UNBOUND:                -2.597
REMARK  Name = lig_assembled_89.pdb
REMARK  19 active torsions:
REMARK  status: ('A' for Active; 'I' for Inactive)
REMARK    1  A    between atoms: _2  and  _12
REMARK    2  A    between atoms: _5  and  _20
REMARK    3  A    between atoms: _7  and  _29
REMARK    4  A    between atoms: _9  and  _10
REMARK    5  A    between atoms: _9  and  _29
REMARK    6  A    between atoms: _20  and  _21
REMARK    7  A    between atoms: _20  and  _22
REMARK    8  A    between atoms: _25  and  _45
REMARK    9  A    between atoms: _27  and  _33
REMARK   10  A    between atoms: _28  and  _32
REMARK   11  A    between atoms: _32  and  _33
REMARK   12  A    between atoms: _35  and  _36
REMARK   13  A    between atoms: _37  and  _38
REMARK   14  A    between atoms: _39  and  _41
REMARK   15  A    between atoms: _41  and  _42
REMARK   16  A    between atoms: _41  and  _43
REMARK   17  A    between atoms: _43  and  _44
REMARK   18  A    between atoms: _43  and  _45
REMARK   19  A    between atoms: _46  and  _48
REMARK                            x       y       z     vdW  Elec       q    Type
REMARK                         _______ _______ _______ _____ _____    ______ ____
ROOT
ATOM      1  C   UNL     1       2.748   2.180  32.108  0.00  0.00    +0.401 C 
ATOM      2  O   UNL     1       2.216   3.289  32.023  0.00  0.00    -0.226 OA
ATOM      3  N   UNL     1       4.068   1.984  32.111  0.00  0.00    -0.279 N 
ATOM      4  H   UNL     1       4.410   1.037  32.195  0.00  0.00    +0.152 HD
ENDROOT
BRANCH   3   5
ATOM      5  C   UNL     1       5.051   3.069  32.000  0.00  0.00    +0.141 C 
BRANCH   5   6
ATOM      6  C   UNL     1       6.352   2.733  32.723  0.00  0.00    +0.163 C 
BRANCH   6   7
ATOM      7  O   UNL     1       7.391   3.634  32.309  0.00  0.00    -0.388 OA
ATOM      8  H   UNL     1       8.155   3.130  32.018  0.00  0.00    +0.210 HD
ENDBRANCH   6   7
BRANCH   6   9
ATOM      9  C   UNL     1       6.129   2.811  34.244  0.00  0.00    +0.175 C 
BRANCH   9  10
ATOM     10  C   UNL     1       5.866   4.249  34.716  0.00  0.00    +0.176 C 
ATOM     11  O   UNL     1       7.120   4.793  35.212  0.00  0.00    -0.332 OA
ATOM     12  C   UNL     1       7.086   6.203  35.611  0.00  0.00    +0.277 C 
ATOM     13  C   UNL     1       5.963   6.444  36.650  0.00  0.00    +0.110 C 
ATOM     14  C   UNL     1       4.617   5.855  36.180  0.00  0.00    +0.143 C 
ATOM     15  C   UNL     1       4.768   4.385  35.787  0.00  0.00    +0.133 C 
BRANCH  15  16
ATOM     16  N   UNL     1       3.499   3.859  35.260  0.00  0.00    -0.308 N 
ATOM     17  H   UNL     1       3.141   4.261  34.405  0.00  0.00    +0.149 HD
ATOM     18  C   UNL     1       2.790   2.885  35.837  0.00  0.00    +0.210 C 
ATOM     19  C   UNL     1       3.350   2.311  37.152  0.00  0.00    +0.109 C 
ATOM     20  O   UNL     1       1.738   2.454  35.364  0.00  0.00    -0.276 OA
ENDBRANCH  15  16
BRANCH  12  21
ATOM     21  C   UNL     1       6.858   7.113  34.386  0.00  0.00    +0.414 C 
ATOM     22  O   UNL     1       6.208   8.151  34.497  0.00  0.00    -0.240 OA
ATOM     23  O   UNL     1       7.325   6.809  33.287  0.00  0.00    -0.240 OA
ENDBRANCH  12  21
BRANCH  14  24
ATOM     24  O   UNL     1       3.651   5.964  37.227  0.00  0.00    -0.390 OA
ATOM     25  H   UNL     1       2.879   5.439  37.007  0.00  0.00    +0.210 HD
ENDBRANCH  14  24
BRANCH  12  26
ATOM     26  O   UNL     1       8.358   6.526  36.229  0.00  0.00    -0.343 OA
ATOM     27  C   UNL     1       8.276   7.420  37.368  0.00  0.00    +0.198 C 
ENDBRANCH  12  26
ENDBRANCH   9  10
BRANCH   9  28
ATOM     28  O   UNL     1       7.264   2.259  34.941  0.00  0.00    -0.387 OA
ATOM     29  H   UNL     1       8.074   2.600  34.555  0.00  0.00    +0.210 HD
ENDBRANCH   9  28
ENDBRANCH   6   9
ENDBRANCH   5   6
ENDBRANCH   3   5
BRANCH   1  30
ATOM     30  O   UNL     1       1.921   1.018  32.214  0.00  0.00    -0.444 OA
BRANCH  30  31
ATOM     31  C   UNL     1       2.121   0.183  31.071  0.00  0.00    +0.292 C 
BRANCH  31  33
ATOM     32  N   UNL     1       0.265   1.132  29.756  0.00  0.00    -0.131 NA
ATOM     33  C   UNL     1       1.591   0.838  29.863  0.00  0.00    +0.121 A 
ATOM     34  C   UNL     1       2.239   1.266  28.729  0.00  0.00    +0.145 A 
ATOM     35  N   UNL     1       1.258   1.851  27.951  0.00  0.00    -0.199 N 
ATOM     36  N   UNL     1       0.074   1.752  28.599  0.00  0.00    -0.059 NA
BRANCH  35  37
ATOM     37  C   UNL     1       1.470   2.535  26.718  0.00  0.00    +0.186 A 
ATOM     38  C   UNL     1       1.654   2.027  25.448  0.00  0.00    +0.158 A 
ATOM     39  C   UNL     1       1.823   0.702  24.937  0.00  0.00    +0.280 A 
ATOM     40  O   UNL     1       2.176  -0.233  25.644  0.00  0.00    -0.265 OA
ATOM     41  N   UNL     1       1.588   0.555  23.555  0.00  0.00    -0.302 N 
ATOM     42  C   UNL     1       1.643   1.707  22.683  0.00  0.00    +0.069 A 
ATOM     43  C   UNL     1       1.694   1.598  21.286  0.00  0.00    +0.028 A 
ATOM     44  C   UNL     1       1.799   2.735  20.472  0.00  0.00    +0.002 A 
ATOM     45  C   UNL     1       1.843   4.006  21.035  0.00  0.00    +0.002 A 
ATOM     46  C   UNL     1       1.781   4.151  22.417  0.00  0.00    +0.028 A 
ATOM     47  C   UNL     1       1.691   3.010  23.227  0.00  0.00    +0.072 A 
ATOM     48  N   UNL     1       1.635   3.122  24.626  0.00  0.00    -0.291 N 
ATOM     49  C   UNL     1       1.557   4.233  25.425  0.00  0.00    +0.207 A 
ATOM     50  N   UNL     1       1.444   3.917  26.698  0.00  0.00    -0.216 NA
BRANCH  41  51
ATOM     51  C   UNL     1       1.494  -0.819  23.010  0.00  0.00    +0.085 C 
ATOM     52  C   UNL     1       0.132  -1.495  23.263  0.00  0.00    +0.030 C 
ATOM     53  C   UNL     1       2.632  -1.708  23.509  0.00  0.00    +0.030 C 
ENDBRANCH  41  51
ENDBRANCH  35  37
ENDBRANCH  31  33
ENDBRANCH  30  31
ENDBRANCH   1  30
TORSDOF 15
