REMARK VINA RESULT:    -5.724      4.614     10.134
REMARK INTER + INTRA:         -13.215
REMARK INTER:                 -11.161
REMARK INTRA:                  -2.053
REMARK UNBOUND:                -2.805
REMARK  Name = lig_assembled_72.pdb
REMARK  20 active torsions:
REMARK  status: ('A' for Active; 'I' for Inactive)
REMARK    1  A    between atoms: _2  and  _9
REMARK    2  A    between atoms: _4  and  _17
REMARK    3  A    between atoms: _5  and  _9
REMARK    4  A    between atoms: _5  and  _12
REMARK    5  A    between atoms: _6  and  _7
REMARK    6  A    between atoms: _6  and  _17
REMARK    7  A    between atoms: _9  and  _10
REMARK    8  A    between atoms: _9  and  _11
REMARK    9  A    between atoms: _13  and  _33
REMARK   10  A    between atoms: _15  and  _21
REMARK   11  A    between atoms: _16  and  _20
REMARK   12  A    between atoms: _20  and  _21
REMARK   13  A    between atoms: _23  and  _24
REMARK   14  A    between atoms: _25  and  _26
REMARK   15  A    between atoms: _27  and  _29
REMARK   16  A    between atoms: _29  and  _30
REMARK   17  A    between atoms: _29  and  _31
REMARK   18  A    between atoms: _31  and  _32
REMARK   19  A    between atoms: _31  and  _33
REMARK   20  A    between atoms: _34  and  _36
REMARK                            x       y       z     vdW  Elec       q    Type
REMARK                         _______ _______ _______ _____ _____    ______ ____
ROOT
ATOM      1  C   UNL     1      17.367   3.046  27.297  0.00  0.00    +0.163 C 
ENDROOT
BRANCH   1   2
ATOM      2  O   UNL     1      17.951   3.843  26.253  0.00  0.00    -0.388 OA
ATOM      3  H   UNL     1      18.559   3.305  25.741  0.00  0.00    +0.210 HD
ENDBRANCH   1   2
BRANCH   1   4
ATOM      4  C   UNL     1      16.943   1.667  26.764  0.00  0.00    +0.175 C 
BRANCH   4   5
ATOM      5  C   UNL     1      17.658   1.309  25.454  0.00  0.00    +0.176 C 
ATOM      6  O   UNL     1      17.051   2.087  24.386  0.00  0.00    -0.332 OA
ATOM      7  C   UNL     1      17.679   1.953  23.068  0.00  0.00    +0.277 C 
ATOM      8  C   UNL     1      17.754   0.463  22.652  0.00  0.00    +0.110 C 
ATOM      9  C   UNL     1      18.364  -0.409  23.770  0.00  0.00    +0.143 C 
ATOM     10  C   UNL     1      17.637  -0.189  25.096  0.00  0.00    +0.133 C 
BRANCH  10  11
ATOM     11  N   UNL     1      18.282  -0.960  26.171  0.00  0.00    -0.308 N 
ATOM     12  H   UNL     1      19.249  -0.758  26.382  0.00  0.00    +0.149 HD
ATOM     13  C   UNL     1      17.673  -1.909  26.887  0.00  0.00    +0.210 C 
ATOM     14  C   UNL     1      16.207  -2.212  26.524  0.00  0.00    +0.109 C 
ATOM     15  O   UNL     1      18.234  -2.528  27.791  0.00  0.00    -0.276 OA
ENDBRANCH  10  11
BRANCH   7  16
ATOM     16  C   UNL     1      19.099   2.558  23.075  0.00  0.00    +0.414 C 
ATOM     17  O   UNL     1      19.998   2.038  22.416  0.00  0.00    -0.240 OA
ATOM     18  O   UNL     1      19.344   3.566  23.739  0.00  0.00    -0.240 OA
ENDBRANCH   7  16
BRANCH   9  19
ATOM     19  O   UNL     1      18.275  -1.788  23.407  0.00  0.00    -0.390 OA
ATOM     20  H   UNL     1      17.964  -2.298  24.159  0.00  0.00    +0.210 HD
ENDBRANCH   9  19
BRANCH   7  21
ATOM     21  O   UNL     1      16.854   2.656  22.104  0.00  0.00    -0.343 OA
ATOM     22  C   UNL     1      16.888   2.115  20.759  0.00  0.00    +0.198 C 
ENDBRANCH   7  21
ENDBRANCH   4   5
BRANCH   4  23
ATOM     23  O   UNL     1      15.514   1.624  26.578  0.00  0.00    -0.387 OA
ATOM     24  H   UNL     1      15.077   1.786  27.418  0.00  0.00    +0.210 HD
ENDBRANCH   4  23
ENDBRANCH   1   4
BRANCH   1  25
ATOM     25  C   UNL     1      18.365   2.868  28.437  0.00  0.00    +0.141 C 
BRANCH  25  28
ATOM     26  C   UNL     1      18.990   5.106  29.276  0.00  0.00    +0.401 C 
ATOM     27  O   UNL     1      19.765   5.342  28.347  0.00  0.00    -0.226 OA
ATOM     28  N   UNL     1      18.298   3.973  29.401  0.00  0.00    -0.279 N 
ATOM     29  H   UNL     1      17.693   3.869  30.204  0.00  0.00    +0.152 HD
BRANCH  26  30
ATOM     30  O   UNL     1      18.808   6.092  30.296  0.00  0.00    -0.444 OA
BRANCH  30  31
ATOM     31  C   UNL     1      18.899   7.398  29.720  0.00  0.00    +0.292 C 
BRANCH  31  33
ATOM     32  N   UNL     1      17.909   9.628  30.121  0.00  0.00    -0.131 NA
ATOM     33  C   UNL     1      18.247   8.390  30.593  0.00  0.00    +0.120 A 
ATOM     34  C   UNL     1      17.879   8.299  31.919  0.00  0.00    +0.137 A 
ATOM     35  N   UNL     1      17.319   9.516  32.197  0.00  0.00    -0.244 N 
ATOM     36  N   UNL     1      17.344  10.308  31.107  0.00  0.00    -0.065 NA
BRANCH  35  37
ATOM     37  C   UNL     1      16.743   9.983  33.467  0.00  0.00    +0.083 C 
ATOM     38  C   UNL     1      17.493  11.247  33.928  0.00  0.00    +0.038 C 
ATOM     39  C   UNL     1      16.886   8.882  34.536  0.00  0.00    +0.038 C 
BRANCH  37  40
ATOM     40  C   UNL     1      15.242  10.352  33.314  0.00  0.00    +0.185 C 
BRANCH  40  41
ATOM     41  O   UNL     1      15.028  11.419  32.392  0.00  0.00    -0.393 OA
ATOM     42  H   UNL     1      15.861  11.504  31.880  0.00  0.00    +0.209 HD
ENDBRANCH  40  41
ENDBRANCH  37  40
ENDBRANCH  35  37
ENDBRANCH  31  33
ENDBRANCH  30  31
ENDBRANCH  26  30
ENDBRANCH  25  28
ENDBRANCH   1  25
TORSDOF 16
