REMARK VINA RESULT:    -5.275      4.633      8.025
REMARK INTER + INTRA:         -12.397
REMARK INTER:                 -10.554
REMARK INTRA:                  -1.843
REMARK UNBOUND:                -2.805
REMARK  Name = lig_assembled_72.pdb
REMARK  20 active torsions:
REMARK  status: ('A' for Active; 'I' for Inactive)
REMARK    1  A    between atoms: _2  and  _9
REMARK    2  A    between atoms: _4  and  _17
REMARK    3  A    between atoms: _5  and  _9
REMARK    4  A    between atoms: _5  and  _12
REMARK    5  A    between atoms: _6  and  _7
REMARK    6  A    between atoms: _6  and  _17
REMARK    7  A    between atoms: _9  and  _10
REMARK    8  A    between atoms: _9  and  _11
REMARK    9  A    between atoms: _13  and  _33
REMARK   10  A    between atoms: _15  and  _21
REMARK   11  A    between atoms: _16  and  _20
REMARK   12  A    between atoms: _20  and  _21
REMARK   13  A    between atoms: _23  and  _24
REMARK   14  A    between atoms: _25  and  _26
REMARK   15  A    between atoms: _27  and  _29
REMARK   16  A    between atoms: _29  and  _30
REMARK   17  A    between atoms: _29  and  _31
REMARK   18  A    between atoms: _31  and  _32
REMARK   19  A    between atoms: _31  and  _33
REMARK   20  A    between atoms: _34  and  _36
REMARK                            x       y       z     vdW  Elec       q    Type
REMARK                         _______ _______ _______ _____ _____    ______ ____
ROOT
ATOM      1  C   UNL     1      18.925  10.662  29.129  0.00  0.00    +0.163 C 
ENDROOT
BRANCH   1   2
ATOM      2  O   UNL     1      17.511  10.845  29.309  0.00  0.00    -0.388 OA
ATOM      3  H   UNL     1      17.318  10.953  30.243  0.00  0.00    +0.210 HD
ENDBRANCH   1   2
BRANCH   1   4
ATOM      4  C   UNL     1      19.403   9.368  29.810  0.00  0.00    +0.175 C 
BRANCH   4   5
ATOM      5  C   UNL     1      18.391   8.850  30.842  0.00  0.00    +0.176 C 
ATOM      6  O   UNL     1      18.534   9.648  32.049  0.00  0.00    -0.332 OA
ATOM      7  C   UNL     1      17.569   9.364  33.115  0.00  0.00    +0.277 C 
ATOM      8  C   UNL     1      17.592   7.859  33.478  0.00  0.00    +0.110 C 
ATOM      9  C   UNL     1      17.474   6.969  32.223  0.00  0.00    +0.143 C 
ATOM     10  C   UNL     1      18.522   7.353  31.178  0.00  0.00    +0.133 C 
BRANCH  10  11
ATOM     11  N   UNL     1      18.344   6.557  29.953  0.00  0.00    -0.308 N 
ATOM     12  H   UNL     1      17.458   6.624  29.472  0.00  0.00    +0.149 HD
ATOM     13  C   UNL     1      19.276   5.751  29.437  0.00  0.00    +0.210 C 
ATOM     14  C   UNL     1      20.606   5.651  30.208  0.00  0.00    +0.109 C 
ATOM     15  O   UNL     1      19.105   5.108  28.401  0.00  0.00    -0.276 OA
ENDBRANCH  10  11
BRANCH   7  16
ATOM     16  C   UNL     1      16.144   9.770  32.686  0.00  0.00    +0.414 C 
ATOM     17  O   UNL     1      15.195   9.015  32.893  0.00  0.00    -0.240 OA
ATOM     18  O   UNL     1      15.943  10.852  32.133  0.00  0.00    -0.240 OA
ENDBRANCH   7  16
BRANCH   9  19
ATOM     19  O   UNL     1      17.650   5.599  32.586  0.00  0.00    -0.390 OA
ATOM     20  H   UNL     1      17.748   5.529  33.538  0.00  0.00    +0.210 HD
ENDBRANCH   9  19
BRANCH   7  21
ATOM     21  O   UNL     1      17.961  10.123  34.288  0.00  0.00    -0.343 OA
ATOM     22  C   UNL     1      18.809   9.410  35.224  0.00  0.00    +0.198 C 
ENDBRANCH   7  21
ENDBRANCH   4   5
BRANCH   4  23
ATOM     23  O   UNL     1      20.685   9.580  30.434  0.00  0.00    -0.387 OA
ATOM     24  H   UNL     1      21.365   9.633  29.759  0.00  0.00    +0.210 HD
ENDBRANCH   4  23
ENDBRANCH   1   4
BRANCH   1  25
ATOM     25  C   UNL     1      19.259  10.609  27.642  0.00  0.00    +0.141 C 
BRANCH  25  28
ATOM     26  C   UNL     1      19.642   8.466  26.472  0.00  0.00    +0.401 C 
ATOM     27  O   UNL     1      20.865   8.612  26.409  0.00  0.00    -0.226 OA
ATOM     28  N   UNL     1      18.814   9.353  27.025  0.00  0.00    -0.279 N 
ATOM     29  H   UNL     1      17.824   9.149  27.020  0.00  0.00    +0.152 HD
BRANCH  26  30
ATOM     30  O   UNL     1      19.054   7.285  25.921  0.00  0.00    -0.444 OA
BRANCH  30  31
ATOM     31  C   UNL     1      19.525   7.097  24.584  0.00  0.00    +0.292 C 
BRANCH  31  33
ATOM     32  N   UNL     1      17.718   6.331  23.078  0.00  0.00    -0.131 NA
ATOM     33  C   UNL     1      18.756   6.031  23.916  0.00  0.00    +0.120 A 
ATOM     34  C   UNL     1      18.898   4.661  23.980  0.00  0.00    +0.137 A 
ATOM     35  N   UNL     1      17.916   4.181  23.158  0.00  0.00    -0.244 N 
ATOM     36  N   UNL     1      17.212   5.197  22.621  0.00  0.00    -0.065 NA
BRANCH  35  37
ATOM     37  C   UNL     1      17.601   2.781  22.839  0.00  0.00    +0.083 C 
ATOM     38  C   UNL     1      16.725   2.191  23.960  0.00  0.00    +0.038 C 
ATOM     39  C   UNL     1      18.906   1.969  22.726  0.00  0.00    +0.038 C 
BRANCH  37  40
ATOM     40  C   UNL     1      16.810   2.661  21.507  0.00  0.00    +0.185 C 
BRANCH  40  41
ATOM     41  O   UNL     1      17.662   2.530  20.371  0.00  0.00    -0.393 OA
ATOM     42  H   UNL     1      18.564   2.758  20.682  0.00  0.00    +0.209 HD
ENDBRANCH  40  41
ENDBRANCH  37  40
ENDBRANCH  35  37
ENDBRANCH  31  33
ENDBRANCH  30  31
ENDBRANCH  26  30
ENDBRANCH  25  28
ENDBRANCH   1  25
TORSDOF 16
