REMARK VINA RESULT:    -5.465     22.394     25.310
REMARK INTER + INTRA:         -12.511
REMARK INTER:                  -9.940
REMARK INTRA:                  -2.571
REMARK UNBOUND:                -2.094
REMARK  Name = lig_assembled_19.pdb
REMARK  20 active torsions:
REMARK  status: ('A' for Active; 'I' for Inactive)
REMARK    1  A    between atoms: _2  and  _9
REMARK    2  A    between atoms: _4  and  _18
REMARK    3  A    between atoms: _5  and  _11
REMARK    4  A    between atoms: _6  and  _7
REMARK    5  A    between atoms: _6  and  _18
REMARK    6  A    between atoms: _9  and  _10
REMARK    7  A    between atoms: _10  and  _13
REMARK    8  A    between atoms: _11  and  _13
REMARK    9  A    between atoms: _14  and  _34
REMARK   10  A    between atoms: _16  and  _22
REMARK   11  A    between atoms: _17  and  _21
REMARK   12  A    between atoms: _21  and  _22
REMARK   13  A    between atoms: _24  and  _25
REMARK   14  A    between atoms: _26  and  _27
REMARK   15  A    between atoms: _28  and  _30
REMARK   16  A    between atoms: _30  and  _31
REMARK   17  A    between atoms: _30  and  _32
REMARK   18  A    between atoms: _32  and  _33
REMARK   19  A    between atoms: _32  and  _34
REMARK   20  A    between atoms: _35  and  _37
REMARK                            x       y       z     vdW  Elec       q    Type
REMARK                         _______ _______ _______ _____ _____    ______ ____
ROOT
ATOM      1  C   UNL     1       2.587  16.535   8.520  0.00  0.00    +0.163 C 
ENDROOT
BRANCH   1   2
ATOM      2  O   UNL     1       2.069  16.095   7.254  0.00  0.00    -0.388 OA
ATOM      3  H   UNL     1       1.447  15.377   7.394  0.00  0.00    +0.210 HD
ENDBRANCH   1   2
BRANCH   1   4
ATOM      4  C   UNL     1       2.626  15.376   9.532  0.00  0.00    +0.175 C 
BRANCH   4   5
ATOM      5  C   UNL     1       1.394  15.369  10.449  0.00  0.00    +0.176 C 
ATOM      6  O   UNL     1       0.243  14.982   9.649  0.00  0.00    -0.332 OA
ATOM      7  C   UNL     1      -1.014  14.818  10.386  0.00  0.00    +0.277 C 
ATOM      8  C   UNL     1      -1.343  16.100  11.188  0.00  0.00    +0.110 C 
ATOM      9  C   UNL     1      -0.137  16.569  12.030  0.00  0.00    +0.143 C 
ATOM     10  C   UNL     1       1.117  16.704  11.166  0.00  0.00    +0.133 C 
BRANCH  10  11
ATOM     11  N   UNL     1       2.277  17.067  11.995  0.00  0.00    -0.308 N 
ATOM     12  H   UNL     1       2.632  16.373  12.638  0.00  0.00    +0.149 HD
ATOM     13  C   UNL     1       2.891  18.252  11.952  0.00  0.00    +0.210 C 
ATOM     14  C   UNL     1       2.310  19.296  10.980  0.00  0.00    +0.109 C 
ATOM     15  O   UNL     1       3.871  18.523  12.648  0.00  0.00    -0.276 OA
ENDBRANCH  10  11
BRANCH   7  16
ATOM     16  C   UNL     1      -0.932  13.614  11.347  0.00  0.00    +0.414 C 
ATOM     17  O   UNL     1      -1.297  13.729  12.517  0.00  0.00    -0.240 OA
ATOM     18  O   UNL     1      -0.500  12.530  10.955  0.00  0.00    -0.240 OA
ENDBRANCH   7  16
BRANCH   9  19
ATOM     19  O   UNL     1      -0.432  17.831  12.632  0.00  0.00    -0.390 OA
ATOM     20  H   UNL     1      -0.505  18.502  11.950  0.00  0.00    +0.210 HD
ENDBRANCH   9  19
BRANCH   7  21
ATOM     21  O   UNL     1      -2.075  14.599   9.420  0.00  0.00    -0.343 OA
ATOM     22  C   UNL     1      -3.327  15.263   9.724  0.00  0.00    +0.198 C 
ENDBRANCH   7  21
ENDBRANCH   4   5
BRANCH   4  23
ATOM     23  O   UNL     1       3.831  15.444  10.319  0.00  0.00    -0.387 OA
ATOM     24  H   UNL     1       4.427  16.093   9.938  0.00  0.00    +0.210 HD
ENDBRANCH   4  23
ENDBRANCH   1   4
BRANCH   1  25
ATOM     25  C   UNL     1       3.992  17.101   8.341  0.00  0.00    +0.141 C 
BRANCH  25  28
ATOM     26  C   UNL     1       5.446  16.943   6.350  0.00  0.00    +0.401 C 
ATOM     27  O   UNL     1       5.507  18.163   6.181  0.00  0.00    -0.226 OA
ATOM     28  N   UNL     1       4.756  16.359   7.330  0.00  0.00    -0.279 N 
ATOM     29  H   UNL     1       4.760  15.350   7.381  0.00  0.00    +0.152 HD
BRANCH  26  30
ATOM     30  O   UNL     1       6.147  16.081   5.449  0.00  0.00    -0.444 OA
BRANCH  30  31
ATOM     31  C   UNL     1       5.300  15.753   4.345  0.00  0.00    +0.292 C 
BRANCH  31  33
ATOM     32  N   UNL     1       3.618  14.272   5.404  0.00  0.00    -0.131 NA
ATOM     33  C   UNL     1       4.678  14.432   4.549  0.00  0.00    +0.120 A 
ATOM     34  C   UNL     1       4.990  13.214   3.989  0.00  0.00    +0.137 A 
ATOM     35  N   UNL     1       4.094  12.356   4.552  0.00  0.00    -0.248 N 
ATOM     36  N   UNL     1       3.268  12.993   5.397  0.00  0.00    -0.065 NA
BRANCH  35  37
ATOM     37  C   UNL     1       3.961  10.934   4.322  0.00  0.00    +0.186 C 
BRANCH  37  38
ATOM     38  C   UNL     1       4.156  10.133   5.605  0.00  0.00    +0.255 C 
BRANCH  38  39
ATOM     39  O   UNL     1       5.160   9.108   5.460  0.00  0.00    -0.463 OA
BRANCH  39  40
ATOM     40  C   UNL     1       6.423   9.543   5.209  0.00  0.00    +0.304 C 
ATOM     41  O   UNL     1       7.007  10.404   5.853  0.00  0.00    -0.251 OA
ATOM     42  C   UNL     1       7.024   8.803   4.054  0.00  0.00    +0.136 C 
ENDBRANCH  39  40
ENDBRANCH  38  39
ENDBRANCH  37  38
ENDBRANCH  35  37
ENDBRANCH  31  33
ENDBRANCH  30  31
ENDBRANCH  26  30
ENDBRANCH  25  28
ENDBRANCH   1  25
TORSDOF 17
