REMARK VINA RESULT:    -6.545     13.947     15.717
REMARK INTER + INTRA:         -13.524
REMARK INTER:                 -10.773
REMARK INTRA:                  -2.751
REMARK UNBOUND:                -1.813
REMARK  Name = lig_assembled_41.pdb
REMARK  18 active torsions:
REMARK  status: ('A' for Active; 'I' for Inactive)
REMARK    1  A    between atoms: _2  and  _9
REMARK    2  A    between atoms: _4  and  _21
REMARK    3  A    between atoms: _6  and  _7
REMARK    4  A    between atoms: _6  and  _21
REMARK    5  A    between atoms: _10  and  _11
REMARK    6  A    between atoms: _11  and  _12
REMARK    7  A    between atoms: _17  and  _37
REMARK    8  A    between atoms: _19  and  _25
REMARK    9  A    between atoms: _20  and  _24
REMARK   10  A    between atoms: _24  and  _25
REMARK   11  A    between atoms: _27  and  _28
REMARK   12  A    between atoms: _29  and  _30
REMARK   13  A    between atoms: _31  and  _33
REMARK   14  A    between atoms: _33  and  _34
REMARK   15  A    between atoms: _33  and  _35
REMARK   16  A    between atoms: _35  and  _36
REMARK   17  A    between atoms: _35  and  _37
REMARK   18  A    between atoms: _38  and  _40
REMARK                            x       y       z     vdW  Elec       q    Type
REMARK                         _______ _______ _______ _____ _____    ______ ____
ROOT
ATOM      1  C   UNL     1      18.652  10.204  28.991  0.00  0.00    +0.163 C 
ENDROOT
BRANCH   1   2
ATOM      2  O   UNL     1      17.422  10.784  29.457  0.00  0.00    -0.388 OA
ATOM      3  H   UNL     1      17.539  11.104  30.355  0.00  0.00    +0.210 HD
ENDBRANCH   1   2
BRANCH   1   4
ATOM      4  C   UNL     1      18.622  10.070  27.472  0.00  0.00    +0.141 C 
BRANCH   4   7
ATOM      5  C   UNL     1      20.052   8.527  26.177  0.00  0.00    +0.401 C 
ATOM      6  O   UNL     1      20.716   9.428  25.658  0.00  0.00    -0.226 OA
ATOM      7  N   UNL     1      19.050   8.737  27.032  0.00  0.00    -0.279 N 
ATOM      8  H   UNL     1      18.559   7.934  27.397  0.00  0.00    +0.152 HD
BRANCH   5   9
ATOM      9  O   UNL     1      20.355   7.167  25.854  0.00  0.00    -0.444 OA
BRANCH   9  10
ATOM     10  C   UNL     1      19.575   6.296  26.677  0.00  0.00    +0.292 C 
BRANCH  10  12
ATOM     11  N   UNL     1      18.646   4.018  26.498  0.00  0.00    -0.131 NA
ATOM     12  C   UNL     1      19.067   5.160  25.887  0.00  0.00    +0.121 A 
ATOM     13  C   UNL     1      18.904   5.028  24.525  0.00  0.00    +0.143 A 
ATOM     14  N   UNL     1      18.476   3.733  24.339  0.00  0.00    -0.219 N 
ATOM     15  N   UNL     1      18.239   3.177  25.559  0.00  0.00    -0.060 NA
BRANCH  14  16
ATOM     16  C   UNL     1      18.171   3.016  23.146  0.00  0.00    +0.077 A 
ATOM     17  C   UNL     1      18.993   2.025  22.570  0.00  0.00    +0.043 A 
ATOM     18  C   UNL     1      18.590   1.430  21.356  0.00  0.00    +0.013 A 
ATOM     19  C   UNL     1      17.406   1.809  20.720  0.00  0.00    +0.001 A 
ATOM     20  C   UNL     1      16.585   2.765  21.299  0.00  0.00    +0.002 A 
ATOM     21  C   UNL     1      16.957   3.355  22.506  0.00  0.00    +0.028 A 
BRANCH  17  22
ATOM     22  C   UNL     1      20.164   1.408  23.264  0.00  0.00    +0.162 C 
ATOM     23  O   UNL     1      20.006   0.373  23.908  0.00  0.00    -0.292 OA
ATOM     24  C   UNL     1      21.528   2.049  23.172  0.00  0.00    +0.091 C 
ENDBRANCH  17  22
ENDBRANCH  14  16
ENDBRANCH  10  12
ENDBRANCH   9  10
ENDBRANCH   5   9
ENDBRANCH   4   7
ENDBRANCH   1   4
BRANCH   1  25
ATOM     25  C   UNL     1      18.884   8.822  29.624  0.00  0.00    +0.175 C 
BRANCH  25  26
ATOM     26  C   UNL     1      18.174   8.680  30.979  0.00  0.00    +0.176 C 
ATOM     27  O   UNL     1      18.488   9.857  31.773  0.00  0.00    -0.332 OA
ATOM     28  C   UNL     1      17.807   9.948  33.069  0.00  0.00    +0.277 C 
ATOM     29  C   UNL     1      18.062   8.670  33.904  0.00  0.00    +0.110 C 
ATOM     30  C   UNL     1      17.773   7.390  33.091  0.00  0.00    +0.143 C 
ATOM     31  C   UNL     1      18.528   7.402  31.762  0.00  0.00    +0.133 C 
BRANCH  31  32
ATOM     32  N   UNL     1      18.177   6.221  30.958  0.00  0.00    -0.308 N 
ATOM     33  H   UNL     1      17.231   6.151  30.611  0.00  0.00    +0.149 HD
ATOM     34  C   UNL     1      19.026   5.235  30.658  0.00  0.00    +0.210 C 
ATOM     35  C   UNL     1      20.454   5.358  31.224  0.00  0.00    +0.109 C 
ATOM     36  O   UNL     1      18.708   4.264  29.971  0.00  0.00    -0.276 OA
ENDBRANCH  31  32
BRANCH  28  37
ATOM     37  C   UNL     1      16.289  10.144  32.877  0.00  0.00    +0.414 C 
ATOM     38  O   UNL     1      15.490   9.484  33.540  0.00  0.00    -0.240 OA
ATOM     39  O   UNL     1      15.864  10.961  32.059  0.00  0.00    -0.240 OA
ENDBRANCH  28  37
BRANCH  30  40
ATOM     40  O   UNL     1      18.163   6.242  33.844  0.00  0.00    -0.390 OA
ATOM     41  H   UNL     1      19.120   6.223  33.927  0.00  0.00    +0.210 HD
ENDBRANCH  30  40
BRANCH  28  42
ATOM     42  O   UNL     1      18.359  11.081  33.787  0.00  0.00    -0.343 OA
ATOM     43  C   UNL     1      19.089  12.029  32.968  0.00  0.00    +0.198 C 
ENDBRANCH  28  42
ENDBRANCH  25  26
BRANCH  25  44
ATOM     44  O   UNL     1      20.296   8.576  29.775  0.00  0.00    -0.387 OA
ATOM     45  H   UNL     1      20.541   7.796  29.272  0.00  0.00    +0.210 HD
ENDBRANCH  25  44
ENDBRANCH   1  25
TORSDOF 15
