REMARK VINA RESULT:    -7.394     14.288     16.217
REMARK INTER + INTRA:         -14.788
REMARK INTER:                 -12.078
REMARK INTRA:                  -2.710
REMARK UNBOUND:                -1.992
REMARK  Name = lig_assembled_25.pdb
REMARK  16 active torsions:
REMARK  status: ('A' for Active; 'I' for Inactive)
REMARK    1  A    between atoms: _2  and  _9
REMARK    2  A    between atoms: _4  and  _25
REMARK    3  A    between atoms: _6  and  _7
REMARK    4  A    between atoms: _6  and  _25
REMARK    5  A    between atoms: _21  and  _41
REMARK    6  A    between atoms: _23  and  _29
REMARK    7  A    between atoms: _24  and  _28
REMARK    8  A    between atoms: _28  and  _29
REMARK    9  A    between atoms: _31  and  _32
REMARK   10  A    between atoms: _33  and  _34
REMARK   11  A    between atoms: _35  and  _37
REMARK   12  A    between atoms: _37  and  _38
REMARK   13  A    between atoms: _37  and  _39
REMARK   14  A    between atoms: _39  and  _40
REMARK   15  A    between atoms: _39  and  _41
REMARK   16  A    between atoms: _42  and  _44
REMARK                            x       y       z     vdW  Elec       q    Type
REMARK                         _______ _______ _______ _____ _____    ______ ____
ROOT
ATOM      1  C   UNL     1      18.664   9.394  27.653  0.00  0.00    +0.141 C 
ENDROOT
BRANCH   1   4
ATOM      2  C   UNL     1      19.000   7.229  26.512  0.00  0.00    +0.401 C 
ATOM      3  O   UNL     1      18.071   7.395  25.719  0.00  0.00    -0.226 OA
ATOM      4  N   UNL     1      19.344   8.109  27.453  0.00  0.00    -0.279 N 
ATOM      5  H   UNL     1      20.115   7.878  28.064  0.00  0.00    +0.152 HD
BRANCH   2   6
ATOM      6  O   UNL     1      19.767   6.024  26.440  0.00  0.00    -0.444 OA
BRANCH   6   7
ATOM      7  C   UNL     1      19.391   5.153  27.509  0.00  0.00    +0.292 C 
BRANCH   7   9
ATOM      8  N   UNL     1      17.495   3.599  27.815  0.00  0.00    -0.131 NA
ATOM      9  C   UNL     1      18.492   4.091  27.017  0.00  0.00    +0.120 A 
ATOM     10  C   UNL     1      18.471   3.429  25.810  0.00  0.00    +0.138 A 
ATOM     11  N   UNL     1      17.450   2.530  25.939  0.00  0.00    -0.240 N 
ATOM     12  N   UNL     1      16.859   2.647  27.148  0.00  0.00    -0.064 NA
BRANCH  11  13
ATOM     13  C   UNL     1      17.010   1.481  25.034  0.00  0.00    +0.170 C 
ATOM     14  C   UNL     1      17.895   0.244  25.104  0.00  0.00    -0.011 A 
ATOM     15  C   UNL     1      18.390  -0.069  23.818  0.00  0.00    -0.012 A 
ATOM     16  C   UNL     1      17.897   0.913  22.873  0.00  0.00    -0.012 A 
ATOM     17  C   UNL     1      18.077   1.007  21.503  0.00  0.00    +0.009 A 
ATOM     18  C   UNL     1      17.452   2.055  20.821  0.00  0.00    +0.001 A 
ATOM     19  C   UNL     1      16.663   2.993  21.508  0.00  0.00    +0.000 A 
ATOM     20  C   UNL     1      16.481   2.901  22.890  0.00  0.00    +0.006 A 
ATOM     21  C   UNL     1      19.203  -1.173  23.629  0.00  0.00    +0.009 A 
ATOM     22  C   UNL     1      19.519  -1.966  24.737  0.00  0.00    +0.001 A 
ATOM     23  C   UNL     1      19.021  -1.653  26.012  0.00  0.00    +0.000 A 
ATOM     24  C   UNL     1      18.199  -0.543  26.207  0.00  0.00    +0.006 A 
ATOM     25  C   UNL     1      17.103   1.859  23.562  0.00  0.00    -0.011 A 
ENDBRANCH  11  13
ENDBRANCH   7   9
ENDBRANCH   6   7
ENDBRANCH   2   6
ENDBRANCH   1   4
BRANCH   1  26
ATOM     26  C   UNL     1      18.752   9.865  29.101  0.00  0.00    +0.163 C 
BRANCH  26  27
ATOM     27  O   UNL     1      17.552  10.569  29.463  0.00  0.00    -0.388 OA
ATOM     28  H   UNL     1      16.923  10.524  28.739  0.00  0.00    +0.210 HD
ENDBRANCH  26  27
BRANCH  26  29
ATOM     29  C   UNL     1      18.979   8.655  30.022  0.00  0.00    +0.175 C 
BRANCH  29  30
ATOM     30  C   UNL     1      18.118   8.726  31.293  0.00  0.00    +0.176 C 
ATOM     31  O   UNL     1      18.413   9.982  31.963  0.00  0.00    -0.332 OA
ATOM     32  C   UNL     1      17.602  10.274  33.148  0.00  0.00    +0.277 C 
ATOM     33  C   UNL     1      17.688   9.107  34.163  0.00  0.00    +0.110 C 
ATOM     34  C   UNL     1      17.413   7.746  33.490  0.00  0.00    +0.143 C 
ATOM     35  C   UNL     1      18.309   7.548  32.267  0.00  0.00    +0.133 C 
BRANCH  35  36
ATOM     36  N   UNL     1      17.977   6.287  31.584  0.00  0.00    -0.308 N 
ATOM     37  H   UNL     1      17.052   6.194  31.189  0.00  0.00    +0.149 HD
ATOM     38  C   UNL     1      18.819   5.259  31.452  0.00  0.00    +0.210 C 
ATOM     39  C   UNL     1      20.212   5.422  32.088  0.00  0.00    +0.109 C 
ATOM     40  O   UNL     1      18.519   4.220  30.862  0.00  0.00    -0.276 OA
ENDBRANCH  35  36
BRANCH  32  41
ATOM     41  C   UNL     1      16.128  10.511  32.758  0.00  0.00    +0.414 C 
ATOM     42  O   UNL     1      15.222  10.061  33.458  0.00  0.00    -0.240 OA
ATOM     43  O   UNL     1      15.846  11.151  31.745  0.00  0.00    -0.240 OA
ENDBRANCH  32  41
BRANCH  34  44
ATOM     44  O   UNL     1      17.650   6.691  34.423  0.00  0.00    -0.390 OA
ATOM     45  H   UNL     1      17.182   6.874  35.240  0.00  0.00    +0.210 HD
ENDBRANCH  34  44
BRANCH  32  46
ATOM     46  O   UNL     1      18.138  11.467  33.777  0.00  0.00    -0.343 OA
ATOM     47  C   UNL     1      19.136  12.174  32.997  0.00  0.00    +0.198 C 
ENDBRANCH  32  46
ENDBRANCH  29  30
BRANCH  29  48
ATOM     48  O   UNL     1      20.373   8.551  30.372  0.00  0.00    -0.387 OA
ATOM     49  H   UNL     1      20.911   8.851  29.636  0.00  0.00    +0.210 HD
ENDBRANCH  29  48
ENDBRANCH  26  29
ENDBRANCH   1  26
TORSDOF 14
