REMARK VINA RESULT:    -6.594      6.552     12.558
REMARK INTER + INTRA:         -13.572
REMARK INTER:                 -11.692
REMARK INTRA:                  -1.880
REMARK UNBOUND:                -1.775
REMARK  Name = lig_assembled_69.pdb
REMARK  18 active torsions:
REMARK  status: ('A' for Active; 'I' for Inactive)
REMARK    1  A    between atoms: _2  and  _9
REMARK    2  A    between atoms: _4  and  _21
REMARK    3  A    between atoms: _6  and  _7
REMARK    4  A    between atoms: _6  and  _21
REMARK    5  A    between atoms: _11  and  _16
REMARK    6  A    between atoms: _14  and  _15
REMARK    7  A    between atoms: _17  and  _37
REMARK    8  A    between atoms: _19  and  _25
REMARK    9  A    between atoms: _20  and  _24
REMARK   10  A    between atoms: _24  and  _25
REMARK   11  A    between atoms: _27  and  _28
REMARK   12  A    between atoms: _29  and  _30
REMARK   13  A    between atoms: _31  and  _33
REMARK   14  A    between atoms: _33  and  _34
REMARK   15  A    between atoms: _33  and  _35
REMARK   16  A    between atoms: _35  and  _36
REMARK   17  A    between atoms: _35  and  _37
REMARK   18  A    between atoms: _38  and  _40
REMARK                            x       y       z     vdW  Elec       q    Type
REMARK                         _______ _______ _______ _____ _____    ______ ____
ROOT
ATOM      1  C   UNL     1       9.807   2.891  34.839  0.00  0.00    +0.163 C 
ENDROOT
BRANCH   1   2
ATOM      2  O   UNL     1       9.510   2.183  33.624  0.00  0.00    -0.388 OA
ATOM      3  H   UNL     1       9.296   2.812  32.931  0.00  0.00    +0.210 HD
ENDBRANCH   1   2
BRANCH   1   4
ATOM      4  C   UNL     1       8.541   3.069  35.695  0.00  0.00    +0.175 C 
BRANCH   4   5
ATOM      5  C   UNL     1       7.763   4.339  35.320  0.00  0.00    +0.176 C 
ATOM      6  O   UNL     1       7.523   5.093  36.540  0.00  0.00    -0.332 OA
ATOM      7  C   UNL     1       6.879   6.398  36.362  0.00  0.00    +0.277 C 
ATOM      8  C   UNL     1       5.556   6.245  35.571  0.00  0.00    +0.110 C 
ATOM      9  C   UNL     1       5.756   5.423  34.281  0.00  0.00    +0.143 C 
ATOM     10  C   UNL     1       6.436   4.087  34.581  0.00  0.00    +0.133 C 
BRANCH  10  11
ATOM     11  N   UNL     1       6.699   3.351  33.335  0.00  0.00    -0.308 N 
ATOM     12  H   UNL     1       7.356   3.751  32.680  0.00  0.00    +0.149 HD
ATOM     13  C   UNL     1       6.127   2.188  33.012  0.00  0.00    +0.210 C 
ATOM     14  C   UNL     1       5.110   1.616  34.019  0.00  0.00    +0.109 C 
ATOM     15  O   UNL     1       6.377   1.586  31.967  0.00  0.00    -0.276 OA
ENDBRANCH  10  11
BRANCH   7  16
ATOM     16  C   UNL     1       7.815   7.372  35.618  0.00  0.00    +0.414 C 
ATOM     17  O   UNL     1       8.971   7.538  36.004  0.00  0.00    -0.240 OA
ATOM     18  O   UNL     1       7.415   7.993  34.632  0.00  0.00    -0.240 OA
ENDBRANCH   7  16
BRANCH   7  19
ATOM     19  O   UNL     1       6.567   6.927  37.676  0.00  0.00    -0.343 OA
ATOM     20  C   UNL     1       7.151   6.197  38.785  0.00  0.00    +0.198 C 
ENDBRANCH   7  19
BRANCH   9  21
ATOM     21  O   UNL     1       4.491   5.179  33.664  0.00  0.00    -0.390 OA
ATOM     22  H   UNL     1       3.874   5.871  33.914  0.00  0.00    +0.210 HD
ENDBRANCH   9  21
ENDBRANCH   4   5
BRANCH   4  23
ATOM     23  O   UNL     1       8.887   3.094  37.095  0.00  0.00    -0.387 OA
ATOM     24  H   UNL     1       9.759   3.481  37.202  0.00  0.00    +0.210 HD
ENDBRANCH   4  23
ENDBRANCH   1   4
BRANCH   1  25
ATOM     25  C   UNL     1      10.861   2.133  35.640  0.00  0.00    +0.141 C 
BRANCH  25  28
ATOM     26  C   UNL     1      13.165   2.982  35.364  0.00  0.00    +0.401 C 
ATOM     27  O   UNL     1      13.424   2.244  34.411  0.00  0.00    -0.226 OA
ATOM     28  N   UNL     1      11.995   2.993  36.003  0.00  0.00    -0.279 N 
ATOM     29  H   UNL     1      11.881   3.628  36.780  0.00  0.00    +0.152 HD
BRANCH  26  30
ATOM     30  O   UNL     1      14.168   3.887  35.834  0.00  0.00    -0.444 OA
BRANCH  30  31
ATOM     31  C   UNL     1      15.166   4.060  34.824  0.00  0.00    +0.292 C 
BRANCH  31  33
ATOM     32  N   UNL     1      14.578   6.439  35.140  0.00  0.00    -0.131 NA
ATOM     33  C   UNL     1      15.326   5.489  34.498  0.00  0.00    +0.120 A 
ATOM     34  C   UNL     1      16.152   6.106  33.585  0.00  0.00    +0.137 A 
ATOM     35  N   UNL     1      15.849   7.429  33.710  0.00  0.00    -0.248 N 
ATOM     36  N   UNL     1      14.903   7.624  34.645  0.00  0.00    -0.065 NA
BRANCH  35  37
ATOM     37  C   UNL     1      16.381   8.551  32.939  0.00  0.00    +0.114 C 
ATOM     38  C   UNL     1      17.897   8.694  33.125  0.00  0.00    +0.062 C 
ATOM     39  C   UNL     1      18.356   9.484  34.352  0.00  0.00    +0.139 C 
ATOM     40  C   UNL     1      18.112  10.966  34.323  0.00  0.00    +0.002 C 
ATOM     41  C   UNL     1      17.227  11.657  33.587  0.00  0.00    +0.002 C 
ATOM     42  C   UNL     1      16.145  11.114  32.705  0.00  0.00    +0.139 C 
ATOM     43  C   UNL     1      15.531   9.805  33.189  0.00  0.00    +0.062 C 
BRANCH  39  44
ATOM     44  O   UNL     1      19.779   9.332  34.438  0.00  0.00    -0.388 OA
ATOM     45  H   UNL     1      20.082   8.953  33.596  0.00  0.00    +0.210 HD
ENDBRANCH  39  44
BRANCH  42  46
ATOM     46  O   UNL     1      16.644  10.970  31.384  0.00  0.00    -0.388 OA
ATOM     47  H   UNL     1      17.472  10.462  31.440  0.00  0.00    +0.210 HD
ENDBRANCH  42  46
ENDBRANCH  35  37
ENDBRANCH  31  33
ENDBRANCH  30  31
ENDBRANCH  26  30
ENDBRANCH  25  28
ENDBRANCH   1  25
TORSDOF 16
