REMARK VINA RESULT:    -5.136      5.124      7.967
REMARK INTER + INTRA:         -13.078
REMARK INTER:                 -11.219
REMARK INTRA:                  -1.859
REMARK UNBOUND:                -3.888
REMARK  Name = lig_assembled_46.pdb
REMARK  17 active torsions:
REMARK  status: ('A' for Active; 'I' for Inactive)
REMARK    1  A    between atoms: _2  and  _9
REMARK    2  A    between atoms: _4  and  _19
REMARK    3  A    between atoms: _6  and  _7
REMARK    4  A    between atoms: _6  and  _19
REMARK    5  A    between atoms: _9  and  _10
REMARK    6  A    between atoms: _15  and  _35
REMARK    7  A    between atoms: _17  and  _23
REMARK    8  A    between atoms: _18  and  _22
REMARK    9  A    between atoms: _22  and  _23
REMARK   10  A    between atoms: _25  and  _26
REMARK   11  A    between atoms: _27  and  _28
REMARK   12  A    between atoms: _29  and  _31
REMARK   13  A    between atoms: _31  and  _32
REMARK   14  A    between atoms: _31  and  _33
REMARK   15  A    between atoms: _33  and  _34
REMARK   16  A    between atoms: _33  and  _35
REMARK   17  A    between atoms: _36  and  _38
REMARK                            x       y       z     vdW  Elec       q    Type
REMARK                         _______ _______ _______ _____ _____    ______ ____
ROOT
ATOM      1  C   UNL     1       2.893  -1.242  27.463  0.00  0.00    +0.163 C 
ENDROOT
BRANCH   1   2
ATOM      2  O   UNL     1       3.275  -0.492  26.298  0.00  0.00    -0.388 OA
ATOM      3  H   UNL     1       2.641  -0.648  25.594  0.00  0.00    +0.210 HD
ENDBRANCH   1   2
BRANCH   1   4
ATOM      4  C   UNL     1       1.849  -0.468  28.262  0.00  0.00    +0.141 C 
BRANCH   4   7
ATOM      5  C   UNL     1       2.056   1.962  28.660  0.00  0.00    +0.401 C 
ATOM      6  O   UNL     1       2.390   1.836  29.840  0.00  0.00    -0.226 OA
ATOM      7  N   UNL     1       1.778   0.940  27.850  0.00  0.00    -0.279 N 
ATOM      8  H   UNL     1       1.503   1.145  26.900  0.00  0.00    +0.152 HD
BRANCH   5   9
ATOM      9  O   UNL     1       1.948   3.276  28.105  0.00  0.00    -0.444 OA
BRANCH   9  10
ATOM     10  C   UNL     1       0.610   3.495  27.650  0.00  0.00    +0.292 C 
BRANCH  10  12
ATOM     11  N   UNL     1      -0.312   5.014  25.928  0.00  0.00    -0.131 NA
ATOM     12  C   UNL     1       0.617   4.079  26.296  0.00  0.00    +0.120 A 
ATOM     13  C   UNL     1       1.485   3.869  25.245  0.00  0.00    +0.137 A 
ATOM     14  N   UNL     1       1.065   4.748  24.288  0.00  0.00    -0.247 N 
ATOM     15  N   UNL     1      -0.025   5.426  24.699  0.00  0.00    -0.065 NA
BRANCH  14  16
ATOM     16  C   UNL     1       1.783   5.169  23.097  0.00  0.00    +0.180 C 
BRANCH  16  17
ATOM     17  C   UNL     1       1.764   4.150  21.985  0.00  0.00    -0.026 A 
ATOM     18  C   UNL     1       1.753   4.550  20.640  0.00  0.00    +0.005 A 
ATOM     19  C   UNL     1       1.833   3.600  19.618  0.00  0.00    +0.000 A 
ATOM     20  C   UNL     1       1.927   2.246  19.927  0.00  0.00    +0.000 A 
ATOM     21  C   UNL     1       1.930   1.835  21.258  0.00  0.00    +0.000 A 
ATOM     22  C   UNL     1       1.850   2.781  22.282  0.00  0.00    +0.005 A 
ENDBRANCH  16  17
ENDBRANCH  14  16
ENDBRANCH  10  12
ENDBRANCH   9  10
ENDBRANCH   5   9
ENDBRANCH   4   7
ENDBRANCH   1   4
BRANCH   1  23
ATOM     23  C   UNL     1       4.112  -1.532  28.355  0.00  0.00    +0.175 C 
BRANCH  23  24
ATOM     24  C   UNL     1       5.345  -1.938  27.535  0.00  0.00    +0.176 C 
ATOM     25  O   UNL     1       4.911  -2.870  26.507  0.00  0.00    -0.332 OA
ATOM     26  C   UNL     1       5.943  -3.289  25.553  0.00  0.00    +0.277 C 
ATOM     27  C   UNL     1       7.167  -3.869  26.302  0.00  0.00    +0.110 C 
ATOM     28  C   UNL     1       7.646  -2.927  27.427  0.00  0.00    +0.143 C 
ATOM     29  C   UNL     1       6.492  -2.553  28.358  0.00  0.00    +0.133 C 
BRANCH  29  30
ATOM     30  N   UNL     1       6.942  -1.587  29.373  0.00  0.00    -0.308 N 
ATOM     31  H   UNL     1       7.189  -0.658  29.063  0.00  0.00    +0.149 HD
ATOM     32  C   UNL     1       7.044  -1.859  30.677  0.00  0.00    +0.210 C 
ATOM     33  C   UNL     1       6.686  -3.292  31.113  0.00  0.00    +0.109 C 
ATOM     34  O   UNL     1       7.410  -1.025  31.506  0.00  0.00    -0.276 OA
ENDBRANCH  29  30
BRANCH  26  35
ATOM     35  C   UNL     1       6.390  -2.102  24.675  0.00  0.00    +0.414 C 
ATOM     36  O   UNL     1       7.572  -1.977  24.356  0.00  0.00    -0.240 OA
ATOM     37  O   UNL     1       5.570  -1.269  24.287  0.00  0.00    -0.240 OA
ENDBRANCH  26  35
BRANCH  26  38
ATOM     38  O   UNL     1       5.383  -4.332  24.715  0.00  0.00    -0.343 OA
ATOM     39  C   UNL     1       6.354  -5.097  23.958  0.00  0.00    +0.198 C 
ENDBRANCH  26  38
BRANCH  28  40
ATOM     40  O   UNL     1       8.675  -3.565  28.185  0.00  0.00    -0.390 OA
ATOM     41  H   UNL     1       8.278  -4.141  28.843  0.00  0.00    +0.210 HD
ENDBRANCH  28  40
ENDBRANCH  23  24
BRANCH  23  42
ATOM     42  O   UNL     1       3.793  -2.559  29.314  0.00  0.00    -0.387 OA
ATOM     43  H   UNL     1       2.895  -2.868  29.166  0.00  0.00    +0.210 HD
ENDBRANCH  23  42
ENDBRANCH   1  23
TORSDOF 15
