REMARK VINA RESULT:    -5.377     14.837     17.719
REMARK INTER + INTRA:         -12.243
REMARK INTER:                 -10.283
REMARK INTRA:                  -1.961
REMARK UNBOUND:                -2.936
REMARK  Name = lig_assembled_93.pdb
REMARK  16 active torsions:
REMARK  status: ('A' for Active; 'I' for Inactive)
REMARK    1  A    between atoms: _2  and  _9
REMARK    2  A    between atoms: _4  and  _18
REMARK    3  A    between atoms: _6  and  _7
REMARK    4  A    between atoms: _6  and  _18
REMARK    5  A    between atoms: _14  and  _34
REMARK    6  A    between atoms: _16  and  _22
REMARK    7  A    between atoms: _17  and  _21
REMARK    8  A    between atoms: _21  and  _22
REMARK    9  A    between atoms: _24  and  _25
REMARK   10  A    between atoms: _26  and  _27
REMARK   11  A    between atoms: _28  and  _30
REMARK   12  A    between atoms: _30  and  _31
REMARK   13  A    between atoms: _30  and  _32
REMARK   14  A    between atoms: _32  and  _33
REMARK   15  A    between atoms: _32  and  _34
REMARK   16  A    between atoms: _35  and  _37
REMARK                            x       y       z     vdW  Elec       q    Type
REMARK                         _______ _______ _______ _____ _____    ______ ____
ROOT
ATOM      1  C   UNL     1      16.418   0.354  26.394  0.00  0.00    +0.163 C 
ENDROOT
BRANCH   1   2
ATOM      2  O   UNL     1      15.925   1.593  25.858  0.00  0.00    -0.388 OA
ATOM      3  H   UNL     1      16.599   2.272  25.949  0.00  0.00    +0.210 HD
ENDBRANCH   1   2
BRANCH   1   4
ATOM      4  C   UNL     1      17.771   0.576  27.063  0.00  0.00    +0.141 C 
BRANCH   4   7
ATOM      5  C   UNL     1      18.939   2.466  28.144  0.00  0.00    +0.401 C 
ATOM      6  O   UNL     1      19.595   1.749  28.903  0.00  0.00    -0.226 OA
ATOM      7  N   UNL     1      18.059   2.003  27.256  0.00  0.00    -0.279 N 
ATOM      8  H   UNL     1      17.562   2.671  26.683  0.00  0.00    +0.152 HD
BRANCH   5   9
ATOM      9  O   UNL     1      19.113   3.884  28.205  0.00  0.00    -0.444 OA
BRANCH   9  10
ATOM     10  C   UNL     1      18.577   4.483  27.021  0.00  0.00    +0.292 C 
BRANCH  10  12
ATOM     11  N   UNL     1      18.459   6.717  25.981  0.00  0.00    -0.131 NA
ATOM     12  C   UNL     1      18.767   5.945  27.056  0.00  0.00    +0.121 A 
ATOM     13  C   UNL     1      19.233   6.754  28.066  0.00  0.00    +0.143 A 
ATOM     14  N   UNL     1      19.178   8.044  27.565  0.00  0.00    -0.219 N 
ATOM     15  N   UNL     1      18.716   7.978  26.297  0.00  0.00    -0.060 NA
BRANCH  14  16
ATOM     16  C   UNL     1      19.519   9.265  28.228  0.00  0.00    +0.080 A 
ATOM     17  C   UNL     1      18.860   9.555  29.446  0.00  0.00    +0.029 A 
ATOM     18  C   UNL     1      19.112  10.731  30.158  0.00  0.00    +0.002 A 
ATOM     19  C   UNL     1      20.030  11.648  29.676  0.00  0.00    +0.001 A 
ATOM     20  C   UNL     1      20.699  11.386  28.483  0.00  0.00    +0.016 A 
ATOM     21  C   UNL     1      20.458  10.204  27.751  0.00  0.00    +0.039 A 
ATOM     22  I   UNL     1      21.629  10.093  25.991  0.00  0.00    -0.042 I 
ENDBRANCH  14  16
ENDBRANCH  10  12
ENDBRANCH   9  10
ENDBRANCH   5   9
ENDBRANCH   4   7
ENDBRANCH   1   4
BRANCH   1  23
ATOM     23  C   UNL     1      16.559  -0.706  25.289  0.00  0.00    +0.175 C 
BRANCH  23  24
ATOM     24  C   UNL     1      17.615  -0.316  24.244  0.00  0.00    +0.176 C 
ATOM     25  O   UNL     1      17.153   0.886  23.569  0.00  0.00    -0.332 OA
ATOM     26  C   UNL     1      18.089   1.471  22.604  0.00  0.00    +0.277 C 
ATOM     27  C   UNL     1      18.516   0.413  21.556  0.00  0.00    +0.110 C 
ATOM     28  C   UNL     1      18.986  -0.895  22.227  0.00  0.00    +0.143 C 
ATOM     29  C   UNL     1      17.938  -1.413  23.213  0.00  0.00    +0.133 C 
BRANCH  29  30
ATOM     30  N   UNL     1      18.433  -2.611  23.909  0.00  0.00    -0.308 N 
ATOM     31  H   UNL     1      19.306  -2.537  24.413  0.00  0.00    +0.149 HD
ATOM     32  C   UNL     1      17.805  -3.790  23.917  0.00  0.00    +0.210 C 
ATOM     33  C   UNL     1      16.492  -3.878  23.117  0.00  0.00    +0.109 C 
ATOM     34  O   UNL     1      18.236  -4.773  24.521  0.00  0.00    -0.276 OA
ENDBRANCH  29  30
BRANCH  26  35
ATOM     35  C   UNL     1      19.340   2.022  23.319  0.00  0.00    +0.414 C 
ATOM     36  O   UNL     1      19.283   2.349  24.504  0.00  0.00    -0.240 OA
ATOM     37  O   UNL     1      20.405   2.140  22.712  0.00  0.00    -0.240 OA
ENDBRANCH  26  35
BRANCH  28  38
ATOM     38  O   UNL     1      19.224  -1.889  21.229  0.00  0.00    -0.390 OA
ATOM     39  H   UNL     1      19.385  -1.463  20.384  0.00  0.00    +0.210 HD
ENDBRANCH  28  38
BRANCH  26  40
ATOM     40  O   UNL     1      17.407   2.549  21.913  0.00  0.00    -0.343 OA
ATOM     41  C   UNL     1      16.758   2.168  20.674  0.00  0.00    +0.198 C 
ENDBRANCH  26  40
ENDBRANCH  23  24
BRANCH  23  42
ATOM     42  O   UNL     1      15.286  -0.928  24.649  0.00  0.00    -0.387 OA
ATOM     43  H   UNL     1      15.404  -0.938  23.696  0.00  0.00    +0.210 HD
ENDBRANCH  23  42
ENDBRANCH   1  23
TORSDOF 14
