REMARK VINA RESULT:    -6.115     12.741     16.569
REMARK INTER + INTRA:         -12.220
REMARK INTER:                 -10.142
REMARK INTRA:                  -2.078
REMARK UNBOUND:                -1.636
REMARK  Name = lig_assembled_52.pdb
REMARK  16 active torsions:
REMARK  status: ('A' for Active; 'I' for Inactive)
REMARK    1  A    between atoms: _2  and  _10
REMARK    2  A    between atoms: _5  and  _18
REMARK    3  A    between atoms: _7  and  _8
REMARK    4  A    between atoms: _7  and  _18
REMARK    5  A    between atoms: _14  and  _34
REMARK    6  A    between atoms: _16  and  _22
REMARK    7  A    between atoms: _17  and  _21
REMARK    8  A    between atoms: _21  and  _22
REMARK    9  A    between atoms: _24  and  _25
REMARK   10  A    between atoms: _26  and  _27
REMARK   11  A    between atoms: _28  and  _30
REMARK   12  A    between atoms: _30  and  _31
REMARK   13  A    between atoms: _30  and  _32
REMARK   14  A    between atoms: _32  and  _33
REMARK   15  A    between atoms: _32  and  _34
REMARK   16  A    between atoms: _35  and  _37
REMARK                            x       y       z     vdW  Elec       q    Type
REMARK                         _______ _______ _______ _____ _____    ______ ____
ROOT
ATOM      1  C   UNL     1      16.355  -0.033  26.419  0.00  0.00    +0.163 C 
ENDROOT
BRANCH   1   2
ATOM      2  O   UNL     1      16.011   1.274  25.930  0.00  0.00    -0.388 OA
ATOM      3  H   UNL     1      15.699   1.817  26.658  0.00  0.00    +0.210 HD
ENDBRANCH   1   2
BRANCH   1   4
ATOM      4  C   UNL     1      17.684   0.023  27.166  0.00  0.00    +0.141 C 
BRANCH   4   7
ATOM      5  C   UNL     1      19.401   1.700  27.753  0.00  0.00    +0.401 C 
ATOM      6  O   UNL     1      20.208   0.866  28.170  0.00  0.00    -0.226 OA
ATOM      7  N   UNL     1      18.195   1.395  27.272  0.00  0.00    -0.279 N 
ATOM      8  H   UNL     1      17.600   2.151  26.963  0.00  0.00    +0.152 HD
BRANCH   5   9
ATOM      9  O   UNL     1      19.756   3.085  27.783  0.00  0.00    -0.444 OA
BRANCH   9  10
ATOM     10  C   UNL     1      18.627   3.859  28.197  0.00  0.00    +0.292 C 
BRANCH  10  12
ATOM     11  N   UNL     1      18.715   5.571  26.414  0.00  0.00    -0.131 NA
ATOM     12  C   UNL     1      18.767   5.254  27.741  0.00  0.00    +0.121 A 
ATOM     13  C   UNL     1      18.952   6.407  28.469  0.00  0.00    +0.143 A 
ATOM     14  N   UNL     1      18.989   7.417  27.536  0.00  0.00    -0.218 N 
ATOM     15  N   UNL     1      18.854   6.885  26.297  0.00  0.00    -0.060 NA
BRANCH  14  16
ATOM     16  C   UNL     1      19.122   8.806  27.744  0.00  0.00    +0.085 A 
ATOM     17  C   UNL     1      19.370   9.691  26.691  0.00  0.00    +0.031 A 
ATOM     18  C   UNL     1      19.513  11.051  26.964  0.00  0.00    +0.022 A 
ATOM     19  C   UNL     1      19.401  11.476  28.277  0.00  0.00    +0.111 A 
ATOM     20  N   UNL     1      19.154  10.647  29.314  0.00  0.00    -0.261 NA
ATOM     21  C   UNL     1      19.020   9.329  29.028  0.00  0.00    +0.138 A 
ENDBRANCH  14  16
ENDBRANCH  10  12
ENDBRANCH   9  10
ENDBRANCH   5   9
ENDBRANCH   4   7
ENDBRANCH   1   4
BRANCH   1  22
ATOM     22  C   UNL     1      16.457  -1.043  25.264  0.00  0.00    +0.175 C 
BRANCH  22  23
ATOM     23  C   UNL     1      17.516  -0.634  24.229  0.00  0.00    +0.176 C 
ATOM     24  O   UNL     1      16.963   0.443  23.425  0.00  0.00    -0.332 OA
ATOM     25  C   UNL     1      17.878   1.038  22.446  0.00  0.00    +0.277 C 
ATOM     26  C   UNL     1      18.467  -0.056  21.522  0.00  0.00    +0.110 C 
ATOM     27  C   UNL     1      19.040  -1.238  22.332  0.00  0.00    +0.143 C 
ATOM     28  C   UNL     1      18.005  -1.777  23.321  0.00  0.00    +0.133 C 
BRANCH  28  29
ATOM     29  N   UNL     1      18.590  -2.845  24.147  0.00  0.00    -0.308 N 
ATOM     30  H   UNL     1      19.465  -2.654  24.615  0.00  0.00    +0.149 HD
ATOM     31  C   UNL     1      18.041  -4.051  24.318  0.00  0.00    +0.210 C 
ATOM     32  C   UNL     1      16.722  -4.320  23.570  0.00  0.00    +0.109 C 
ATOM     33  O   UNL     1      18.546  -4.921  25.028  0.00  0.00    -0.276 OA
ENDBRANCH  28  29
BRANCH  25  34
ATOM     34  C   UNL     1      19.025   1.787  23.154  0.00  0.00    +0.414 C 
ATOM     35  O   UNL     1      20.106   1.946  22.588  0.00  0.00    -0.240 OA
ATOM     36  O   UNL     1      18.871   2.233  24.292  0.00  0.00    -0.240 OA
ENDBRANCH  25  34
BRANCH  27  37
ATOM     37  O   UNL     1      19.432  -2.285  21.444  0.00  0.00    -0.390 OA
ATOM     38  H   UNL     1      19.851  -1.907  20.668  0.00  0.00    +0.210 HD
ENDBRANCH  27  37
BRANCH  25  39
ATOM     39  O   UNL     1      17.119   1.967  21.629  0.00  0.00    -0.343 OA
ATOM     40  C   UNL     1      17.136   1.685  20.207  0.00  0.00    +0.198 C 
ENDBRANCH  25  39
ENDBRANCH  22  23
BRANCH  22  41
ATOM     41  O   UNL     1      15.174  -1.199  24.625  0.00  0.00    -0.387 OA
ATOM     42  H   UNL     1      14.955  -0.396  24.147  0.00  0.00    +0.210 HD
ENDBRANCH  22  41
ENDBRANCH   1  22
TORSDOF 14
