REMARK VINA RESULT:    -6.723     11.405     19.819
REMARK INTER + INTRA:         -14.726
REMARK INTER:                 -12.519
REMARK INTRA:                  -2.207
REMARK UNBOUND:                -1.911
REMARK  Name = lig_assembled_26.pdb
REMARK  20 active torsions:
REMARK  status: ('A' for Active; 'I' for Inactive)
REMARK    1  A    between atoms: _2  and  _9
REMARK    2  A    between atoms: _4  and  _23
REMARK    3  A    between atoms: _6  and  _7
REMARK    4  A    between atoms: _6  and  _23
REMARK    5  A    between atoms: _9  and  _10
REMARK    6  A    between atoms: _9  and  _11
REMARK    7  A    between atoms: _11  and  _12
REMARK    8  A    between atoms: _12  and  _13
REMARK    9  A    between atoms: _19  and  _39
REMARK   10  A    between atoms: _21  and  _27
REMARK   11  A    between atoms: _22  and  _26
REMARK   12  A    between atoms: _26  and  _27
REMARK   13  A    between atoms: _29  and  _30
REMARK   14  A    between atoms: _31  and  _32
REMARK   15  A    between atoms: _33  and  _35
REMARK   16  A    between atoms: _35  and  _36
REMARK   17  A    between atoms: _35  and  _37
REMARK   18  A    between atoms: _37  and  _38
REMARK   19  A    between atoms: _37  and  _39
REMARK   20  A    between atoms: _40  and  _42
REMARK                            x       y       z     vdW  Elec       q    Type
REMARK                         _______ _______ _______ _____ _____    ______ ____
ROOT
ATOM      1  C   UNL     1      -2.361   8.518  13.343  0.00  0.00    +0.163 C 
ENDROOT
BRANCH   1   2
ATOM      2  O   UNL     1      -2.453   8.622  11.913  0.00  0.00    -0.388 OA
ATOM      3  H   UNL     1      -2.108   9.472  11.630  0.00  0.00    +0.210 HD
ENDBRANCH   1   2
BRANCH   1   4
ATOM      4  C   UNL     1      -3.038   9.719  14.026  0.00  0.00    +0.175 C 
BRANCH   4   5
ATOM      5  C   UNL     1      -3.245  10.893  13.058  0.00  0.00    +0.176 C 
ATOM      6  O   UNL     1      -1.938  11.313  12.578  0.00  0.00    -0.332 OA
ATOM      7  C   UNL     1      -1.946  12.363  11.556  0.00  0.00    +0.277 C 
ATOM      8  C   UNL     1      -2.742  13.596  12.051  0.00  0.00    +0.110 C 
ATOM      9  C   UNL     1      -4.127  13.195  12.601  0.00  0.00    +0.143 C 
ATOM     10  C   UNL     1      -4.002  12.094  13.655  0.00  0.00    +0.133 C 
BRANCH  10  11
ATOM     11  N   UNL     1      -5.333  11.661  14.108  0.00  0.00    -0.308 N 
ATOM     12  H   UNL     1      -5.970  11.292  13.415  0.00  0.00    +0.149 HD
ATOM     13  C   UNL     1      -5.755  11.724  15.373  0.00  0.00    +0.210 C 
ATOM     14  C   UNL     1      -4.771  12.315  16.400  0.00  0.00    +0.109 C 
ATOM     15  O   UNL     1      -6.871  11.339  15.726  0.00  0.00    -0.276 OA
ENDBRANCH  10  11
BRANCH   7  16
ATOM     16  C   UNL     1      -2.566  11.843  10.242  0.00  0.00    +0.414 C 
ATOM     17  O   UNL     1      -3.150  12.616   9.484  0.00  0.00    -0.240 OA
ATOM     18  O   UNL     1      -2.482  10.652   9.940  0.00  0.00    -0.240 OA
ENDBRANCH   7  16
BRANCH   7  19
ATOM     19  O   UNL     1      -0.573  12.770  11.320  0.00  0.00    -0.343 OA
ATOM     20  C   UNL     1      -0.233  14.091  11.812  0.00  0.00    +0.198 C 
ENDBRANCH   7  19
BRANCH   9  21
ATOM     21  O   UNL     1      -4.762  14.334  13.183  0.00  0.00    -0.390 OA
ATOM     22  H   UNL     1      -4.413  15.135  12.784  0.00  0.00    +0.210 HD
ENDBRANCH   9  21
ENDBRANCH   4   5
BRANCH   4  23
ATOM     23  O   UNL     1      -2.264  10.144  15.165  0.00  0.00    -0.387 OA
ATOM     24  H   UNL     1      -1.336   9.950  15.012  0.00  0.00    +0.210 HD
ENDBRANCH   4  23
ENDBRANCH   1   4
BRANCH   1  25
ATOM     25  C   UNL     1      -3.018   7.226  13.816  0.00  0.00    +0.141 C 
BRANCH  25  28
ATOM     26  C   UNL     1      -2.575   6.846  16.217  0.00  0.00    +0.401 C 
ATOM     27  O   UNL     1      -3.476   7.597  16.598  0.00  0.00    -0.226 OA
ATOM     28  N   UNL     1      -2.287   6.618  14.935  0.00  0.00    -0.279 N 
ATOM     29  H   UNL     1      -1.523   5.992  14.722  0.00  0.00    +0.152 HD
BRANCH  26  30
ATOM     30  O   UNL     1      -1.776   6.170  17.191  0.00  0.00    -0.444 OA
BRANCH  30  31
ATOM     31  C   UNL     1      -2.413   4.946  17.566  0.00  0.00    +0.292 C 
BRANCH  31  33
ATOM     32  N   UNL     1      -2.006   3.088  19.159  0.00  0.00    -0.131 NA
ATOM     33  C   UNL     1      -1.534   4.158  18.448  0.00  0.00    +0.120 A 
ATOM     34  C   UNL     1      -0.191   4.314  18.706  0.00  0.00    +0.137 A 
ATOM     35  N   UNL     1       0.094   3.329  19.603  0.00  0.00    -0.248 N 
ATOM     36  N   UNL     1      -0.996   2.575  19.851  0.00  0.00    -0.065 NA
BRANCH  35  37
ATOM     37  C   UNL     1       1.365   2.976  20.218  0.00  0.00    +0.113 C 
ATOM     38  C   UNL     1       2.350   2.269  19.276  0.00  0.00    +0.033 C 
BRANCH  37  39
ATOM     39  C   UNL     1       2.022   4.163  20.944  0.00  0.00    +0.106 C 
BRANCH  39  40
ATOM     40  C   UNL     1       1.310   4.580  22.217  0.00  0.00    +0.165 C 
ATOM     41  O   UNL     1       0.494   5.500  22.243  0.00  0.00    -0.292 OA
BRANCH  40  42
ATOM     42  C   UNL     1       1.641   3.875  23.492  0.00  0.00    +0.017 A 
ATOM     43  C   UNL     1       1.554   4.500  24.742  0.00  0.00    +0.011 A 
ATOM     44  C   UNL     1       1.835   3.780  25.905  0.00  0.00    +0.001 A 
ATOM     45  C   UNL     1       2.210   2.440  25.828  0.00  0.00    +0.000 A 
ATOM     46  C   UNL     1       2.311   1.814  24.589  0.00  0.00    +0.001 A 
ATOM     47  C   UNL     1       2.027   2.529  23.424  0.00  0.00    +0.011 A 
ENDBRANCH  40  42
ENDBRANCH  39  40
ENDBRANCH  37  39
ENDBRANCH  35  37
ENDBRANCH  31  33
ENDBRANCH  30  31
ENDBRANCH  26  30
ENDBRANCH  25  28
ENDBRANCH   1  25
TORSDOF 17
