REMARK VINA RESULT:    -5.795     14.923     17.392
REMARK INTER + INTRA:         -12.665
REMARK INTER:                 -10.369
REMARK INTRA:                  -2.296
REMARK UNBOUND:                -2.296
REMARK  Name = lig_assembled_63.pdb
REMARK  17 active torsions:
REMARK  status: ('A' for Active; 'I' for Inactive)
REMARK    1  A    between atoms: _2  and  _11
REMARK    2  A    between atoms: _6  and  _20
REMARK    3  A    between atoms: _7  and  _15
REMARK    4  A    between atoms: _8  and  _9
REMARK    5  A    between atoms: _8  and  _20
REMARK    6  A    between atoms: _16  and  _36
REMARK    7  A    between atoms: _18  and  _24
REMARK    8  A    between atoms: _19  and  _23
REMARK    9  A    between atoms: _23  and  _24
REMARK   10  A    between atoms: _26  and  _27
REMARK   11  A    between atoms: _28  and  _29
REMARK   12  A    between atoms: _30  and  _32
REMARK   13  A    between atoms: _32  and  _33
REMARK   14  A    between atoms: _32  and  _34
REMARK   15  A    between atoms: _34  and  _35
REMARK   16  A    between atoms: _34  and  _36
REMARK   17  A    between atoms: _37  and  _39
REMARK                            x       y       z     vdW  Elec       q    Type
REMARK                         _______ _______ _______ _____ _____    ______ ____
ROOT
ATOM      1  C   UNL     1       2.636   3.297  34.364  0.00  0.00    +0.163 C 
ENDROOT
BRANCH   1   2
ATOM      2  O   UNL     1       1.948   4.305  35.123  0.00  0.00    -0.388 OA
ATOM      3  H   UNL     1       2.329   5.165  34.932  0.00  0.00    +0.210 HD
ENDBRANCH   1   2
BRANCH   1   4
ATOM      4  C   UNL     1       1.634   2.293  33.802  0.00  0.00    +0.141 C 
BRANCH   4   7
ATOM      5  C   UNL     1      -0.013   3.527  32.437  0.00  0.00    +0.401 C 
ATOM      6  O   UNL     1      -0.647   3.945  33.409  0.00  0.00    -0.226 OA
ATOM      7  N   UNL     1       1.062   2.744  32.528  0.00  0.00    -0.279 N 
ATOM      8  H   UNL     1       1.509   2.445  31.672  0.00  0.00    +0.152 HD
BRANCH   5   9
ATOM      9  O   UNL     1      -0.442   3.889  31.121  0.00  0.00    -0.444 OA
BRANCH   9  10
ATOM     10  C   UNL     1      -0.342   2.753  30.257  0.00  0.00    +0.292 C 
BRANCH  10  12
ATOM     11  N   UNL     1       1.709   3.617  29.183  0.00  0.00    -0.131 NA
ATOM     12  C   UNL     1       0.458   3.084  29.063  0.00  0.00    +0.121 A 
ATOM     13  C   UNL     1       0.151   2.960  27.729  0.00  0.00    +0.145 A 
ATOM     14  N   UNL     1       1.246   3.472  27.062  0.00  0.00    -0.200 N 
ATOM     15  N   UNL     1       2.181   3.841  27.964  0.00  0.00    -0.059 NA
BRANCH  14  16
ATOM     16  C   UNL     1       1.372   3.653  25.653  0.00  0.00    +0.173 A 
ATOM     17  C   UNL     1       1.849   2.646  24.809  0.00  0.00    +0.096 A 
ATOM     18  C   UNL     1       2.025   2.964  23.451  0.00  0.00    +0.024 A 
ATOM     19  C   UNL     1       1.705   4.232  22.974  0.00  0.00    +0.021 A 
ATOM     20  C   UNL     1       1.203   5.154  23.869  0.00  0.00    +0.113 A 
ATOM     21  N   UNL     1       1.034   4.897  25.184  0.00  0.00    -0.235 NA
BRANCH  17  22
ATOM     22  C   UNL     1       2.159   1.305  25.205  0.00  0.00    +0.103 C 
ATOM     23  N   UNL     1       2.420   0.254  25.626  0.00  0.00    -0.191 NA
ENDBRANCH  17  22
ENDBRANCH  14  16
ENDBRANCH  10  12
ENDBRANCH   9  10
ENDBRANCH   5   9
ENDBRANCH   4   7
ENDBRANCH   1   4
BRANCH   1  24
ATOM     24  C   UNL     1       3.668   2.561  35.235  0.00  0.00    +0.175 C 
BRANCH  24  25
ATOM     25  C   UNL     1       5.093   3.090  35.015  0.00  0.00    +0.176 C 
ATOM     26  O   UNL     1       5.148   4.451  35.525  0.00  0.00    -0.332 OA
ATOM     27  C   UNL     1       6.469   5.086  35.495  0.00  0.00    +0.277 C 
ATOM     28  C   UNL     1       7.060   5.039  34.065  0.00  0.00    +0.110 C 
ATOM     29  C   UNL     1       6.994   3.617  33.468  0.00  0.00    +0.143 C 
ATOM     30  C   UNL     1       5.576   3.051  33.553  0.00  0.00    +0.133 C 
BRANCH  30  31
ATOM     31  N   UNL     1       5.544   1.665  33.062  0.00  0.00    -0.308 N 
ATOM     32  H   UNL     1       6.016   0.959  33.610  0.00  0.00    +0.149 HD
ATOM     33  C   UNL     1       4.933   1.278  31.939  0.00  0.00    +0.210 C 
ATOM     34  C   UNL     1       4.245   2.381  31.113  0.00  0.00    +0.109 C 
ATOM     35  O   UNL     1       4.910   0.106  31.560  0.00  0.00    -0.276 OA
ENDBRANCH  30  31
BRANCH  27  36
ATOM     36  C   UNL     1       7.434   4.388  36.475  0.00  0.00    +0.414 C 
ATOM     37  O   UNL     1       8.584   4.121  36.129  0.00  0.00    -0.240 OA
ATOM     38  O   UNL     1       7.063   4.091  37.612  0.00  0.00    -0.240 OA
ENDBRANCH  27  36
BRANCH  27  39
ATOM     39  O   UNL     1       6.307   6.477  35.877  0.00  0.00    -0.343 OA
ATOM     40  C   UNL     1       7.377   7.357  35.451  0.00  0.00    +0.198 C 
ENDBRANCH  27  39
BRANCH  29  41
ATOM     41  O   UNL     1       7.407   3.648  32.101  0.00  0.00    -0.390 OA
ATOM     42  H   UNL     1       8.354   3.801  32.056  0.00  0.00    +0.210 HD
ENDBRANCH  29  41
ENDBRANCH  24  25
BRANCH  24  43
ATOM     43  O   UNL     1       3.619   1.144  34.973  0.00  0.00    -0.387 OA
ATOM     44  H   UNL     1       4.418   0.875  34.514  0.00  0.00    +0.210 HD
ENDBRANCH  24  43
ENDBRANCH   1  24
TORSDOF 15
