REMARK VINA RESULT:    -6.646     13.678     15.419
REMARK INTER + INTRA:         -12.704
REMARK INTER:                 -10.156
REMARK INTRA:                  -2.548
REMARK UNBOUND:                -1.202
REMARK  Name = lig_assembled_40.pdb
REMARK  17 active torsions:
REMARK  status: ('A' for Active; 'I' for Inactive)
REMARK    1  A    between atoms: _2  and  _9
REMARK    2  A    between atoms: _4  and  _19
REMARK    3  A    between atoms: _6  and  _7
REMARK    4  A    between atoms: _6  and  _19
REMARK    5  A    between atoms: _12  and  _13
REMARK    6  A    between atoms: _15  and  _35
REMARK    7  A    between atoms: _17  and  _23
REMARK    8  A    between atoms: _18  and  _22
REMARK    9  A    between atoms: _22  and  _23
REMARK   10  A    between atoms: _25  and  _26
REMARK   11  A    between atoms: _27  and  _28
REMARK   12  A    between atoms: _29  and  _31
REMARK   13  A    between atoms: _31  and  _32
REMARK   14  A    between atoms: _31  and  _33
REMARK   15  A    between atoms: _33  and  _34
REMARK   16  A    between atoms: _33  and  _35
REMARK   17  A    between atoms: _36  and  _38
REMARK                            x       y       z     vdW  Elec       q    Type
REMARK                         _______ _______ _______ _____ _____    ______ ____
ROOT
ATOM      1  C   UNL     1      18.588  10.236  29.139  0.00  0.00    +0.163 C 
ENDROOT
BRANCH   1   2
ATOM      2  O   UNL     1      17.343  10.849  29.513  0.00  0.00    -0.388 OA
ATOM      3  H   UNL     1      17.241  11.680  29.042  0.00  0.00    +0.210 HD
ENDBRANCH   1   2
BRANCH   1   4
ATOM      4  C   UNL     1      18.631  10.022  27.630  0.00  0.00    +0.141 C 
BRANCH   4   7
ATOM      5  C   UNL     1      20.285   8.601  26.467  0.00  0.00    +0.401 C 
ATOM      6  O   UNL     1      20.855   9.548  25.921  0.00  0.00    -0.226 OA
ATOM      7  N   UNL     1      19.233   8.730  27.277  0.00  0.00    -0.279 N 
ATOM      8  H   UNL     1      18.827   7.892  27.670  0.00  0.00    +0.152 HD
BRANCH   5   9
ATOM      9  O   UNL     1      20.760   7.273  26.229  0.00  0.00    -0.444 OA
BRANCH   9  10
ATOM     10  C   UNL     1      20.063   6.708  25.116  0.00  0.00    +0.292 C 
BRANCH  10  12
ATOM     11  N   UNL     1      18.879   5.339  26.803  0.00  0.00    -0.131 NA
ATOM     12  C   UNL     1      19.337   5.492  25.527  0.00  0.00    +0.121 A 
ATOM     13  C   UNL     1      18.994   4.384  24.790  0.00  0.00    +0.143 A 
ATOM     14  N   UNL     1      18.289   3.581  25.658  0.00  0.00    -0.220 N 
ATOM     15  N   UNL     1      18.251   4.172  26.879  0.00  0.00    -0.060 NA
BRANCH  14  16
ATOM     16  C   UNL     1      17.638   2.348  25.392  0.00  0.00    +0.067 A 
ATOM     17  C   UNL     1      16.727   1.807  26.306  0.00  0.00    +0.028 A 
ATOM     18  C   UNL     1      16.146   0.559  26.064  0.00  0.00    +0.005 A 
ATOM     19  C   UNL     1      16.466  -0.163  24.909  0.00  0.00    -0.050 A 
ATOM     20  C   UNL     1      17.349   0.396  23.979  0.00  0.00    +0.005 A 
ATOM     21  C   UNL     1      15.880  -1.523  24.668  0.00  0.00    +0.044 C 
ATOM     22  C   UNL     1      17.933   1.644  24.215  0.00  0.00    +0.028 A 
ENDBRANCH  14  16
ENDBRANCH  10  12
ENDBRANCH   9  10
ENDBRANCH   5   9
ENDBRANCH   4   7
ENDBRANCH   1   4
BRANCH   1  23
ATOM     23  C   UNL     1      18.774   8.887  29.855  0.00  0.00    +0.175 C 
BRANCH  23  24
ATOM     24  C   UNL     1      18.030   8.838  31.198  0.00  0.00    +0.176 C 
ATOM     25  O   UNL     1      18.312  10.074  31.910  0.00  0.00    -0.332 OA
ATOM     26  C   UNL     1      17.597  10.252  33.178  0.00  0.00    +0.277 C 
ATOM     27  C   UNL     1      17.842   9.042  34.112  0.00  0.00    +0.110 C 
ATOM     28  C   UNL     1      17.585   7.703  33.388  0.00  0.00    +0.143 C 
ATOM     29  C   UNL     1      18.376   7.625  32.082  0.00  0.00    +0.133 C 
BRANCH  29  30
ATOM     30  N   UNL     1      18.056   6.384  31.360  0.00  0.00    -0.308 N 
ATOM     31  H   UNL     1      17.123   6.282  30.987  0.00  0.00    +0.149 HD
ATOM     32  C   UNL     1      18.919   5.383  31.164  0.00  0.00    +0.210 C 
ATOM     33  C   UNL     1      20.326   5.558  31.767  0.00  0.00    +0.109 C 
ATOM     34  O   UNL     1      18.628   4.361  30.543  0.00  0.00    -0.276 OA
ENDBRANCH  29  30
BRANCH  26  35
ATOM     35  C   UNL     1      16.083  10.417  32.933  0.00  0.00    +0.414 C 
ATOM     36  O   UNL     1      15.274   9.758  33.586  0.00  0.00    -0.240 OA
ATOM     37  O   UNL     1      15.670  11.207  32.083  0.00  0.00    -0.240 OA
ENDBRANCH  26  35
BRANCH  28  38
ATOM     38  O   UNL     1      17.967   6.618  34.234  0.00  0.00    -0.390 OA
ATOM     39  H   UNL     1      18.922   6.600  34.322  0.00  0.00    +0.210 HD
ENDBRANCH  28  38
BRANCH  26  40
ATOM     40  O   UNL     1      18.119  11.442  33.824  0.00  0.00    -0.343 OA
ATOM     41  C   UNL     1      17.772  11.580  35.225  0.00  0.00    +0.198 C 
ENDBRANCH  26  40
ENDBRANCH  23  24
BRANCH  23  42
ATOM     42  O   UNL     1      20.176   8.620  30.054  0.00  0.00    -0.387 OA
ATOM     43  H   UNL     1      20.283   7.762  30.472  0.00  0.00    +0.210 HD
ENDBRANCH  23  42
ENDBRANCH   1  23
TORSDOF 14
