REMARK VINA RESULT:    -5.265      8.091     12.815
REMARK INTER + INTRA:         -12.882
REMARK INTER:                 -10.670
REMARK INTRA:                  -2.212
REMARK UNBOUND:                -3.154
REMARK  Name = lig_assembled_67.pdb
REMARK  18 active torsions:
REMARK  status: ('A' for Active; 'I' for Inactive)
REMARK    1  A    between atoms: _2  and  _9
REMARK    2  A    between atoms: _4  and  _19
REMARK    3  A    between atoms: _6  and  _7
REMARK    4  A    between atoms: _6  and  _19
REMARK    5  A    between atoms: _9  and  _10
REMARK    6  A    between atoms: _10  and  _11
REMARK    7  A    between atoms: _15  and  _35
REMARK    8  A    between atoms: _17  and  _23
REMARK    9  A    between atoms: _18  and  _22
REMARK   10  A    between atoms: _22  and  _23
REMARK   11  A    between atoms: _25  and  _26
REMARK   12  A    between atoms: _27  and  _28
REMARK   13  A    between atoms: _29  and  _31
REMARK   14  A    between atoms: _31  and  _32
REMARK   15  A    between atoms: _31  and  _33
REMARK   16  A    between atoms: _33  and  _34
REMARK   17  A    between atoms: _33  and  _35
REMARK   18  A    between atoms: _36  and  _38
REMARK                            x       y       z     vdW  Elec       q    Type
REMARK                         _______ _______ _______ _____ _____    ______ ____
ROOT
ATOM      1  C   UNL     1       8.138   4.470  38.700  0.00  0.00    +0.163 C 
ENDROOT
BRANCH   1   2
ATOM      2  O   UNL     1       7.988   5.865  38.392  0.00  0.00    -0.388 OA
ATOM      3  H   UNL     1       8.744   6.351  38.731  0.00  0.00    +0.210 HD
ENDBRANCH   1   2
BRANCH   1   4
ATOM      4  C   UNL     1       8.212   3.627  37.415  0.00  0.00    +0.175 C 
BRANCH   4   5
ATOM      5  C   UNL     1       7.735   4.410  36.183  0.00  0.00    +0.176 C 
ATOM      6  O   UNL     1       6.331   4.736  36.376  0.00  0.00    -0.332 OA
ATOM      7  C   UNL     1       5.728   5.580  35.340  0.00  0.00    +0.277 C 
ATOM      8  C   UNL     1       5.931   4.947  33.941  0.00  0.00    +0.110 C 
ATOM      9  C   UNL     1       7.404   4.555  33.702  0.00  0.00    +0.143 C 
ATOM     10  C   UNL     1       7.931   3.681  34.841  0.00  0.00    +0.133 C 
BRANCH  10  11
ATOM     11  N   UNL     1       9.359   3.386  34.646  0.00  0.00    -0.308 N 
ATOM     12  H   UNL     1       9.997   4.166  34.581  0.00  0.00    +0.149 HD
ATOM     13  C   UNL     1       9.867   2.154  34.548  0.00  0.00    +0.210 C 
ATOM     14  C   UNL     1       8.865   0.987  34.625  0.00  0.00    +0.109 C 
ATOM     15  O   UNL     1      11.070   1.937  34.400  0.00  0.00    -0.276 OA
ENDBRANCH  10  11
BRANCH   7  16
ATOM     16  C   UNL     1       6.342   6.995  35.361  0.00  0.00    +0.414 C 
ATOM     17  O   UNL     1       6.217   7.739  34.389  0.00  0.00    -0.240 OA
ATOM     18  O   UNL     1       6.963   7.391  36.348  0.00  0.00    -0.240 OA
ENDBRANCH   7  16
BRANCH   9  19
ATOM     19  O   UNL     1       7.519   3.842  32.470  0.00  0.00    -0.390 OA
ATOM     20  H   UNL     1       8.187   3.158  32.556  0.00  0.00    +0.210 HD
ENDBRANCH   9  19
BRANCH   7  21
ATOM     21  O   UNL     1       4.303   5.662  35.602  0.00  0.00    -0.343 OA
ATOM     22  C   UNL     1       3.937   5.659  37.005  0.00  0.00    +0.198 C 
ENDBRANCH   7  21
ENDBRANCH   4   5
BRANCH   4  23
ATOM     23  O   UNL     1       7.438   2.421  37.567  0.00  0.00    -0.387 OA
ATOM     24  H   UNL     1       6.744   2.564  38.215  0.00  0.00    +0.210 HD
ENDBRANCH   4  23
ENDBRANCH   1   4
BRANCH   1  25
ATOM     25  C   UNL     1       9.401   4.250  39.527  0.00  0.00    +0.141 C 
BRANCH  25  28
ATOM     26  C   UNL     1      11.627   4.750  38.577  0.00  0.00    +0.401 C 
ATOM     27  O   UNL     1      11.742   5.826  39.169  0.00  0.00    -0.226 OA
ATOM     28  N   UNL     1      10.564   3.952  38.681  0.00  0.00    -0.279 N 
ATOM     29  H   UNL     1      10.557   3.094  38.148  0.00  0.00    +0.152 HD
BRANCH  26  30
ATOM     30  O   UNL     1      12.683   4.314  37.718  0.00  0.00    -0.444 OA
BRANCH  30  31
ATOM     31  C   UNL     1      13.666   5.347  37.607  0.00  0.00    +0.292 C 
BRANCH  31  33
ATOM     32  N   UNL     1      13.981   4.363  35.358  0.00  0.00    -0.131 NA
ATOM     33  C   UNL     1      14.223   5.383  36.242  0.00  0.00    +0.120 A 
ATOM     34  C   UNL     1      15.012   6.330  35.629  0.00  0.00    +0.137 A 
ATOM     35  N   UNL     1      15.218   5.828  34.380  0.00  0.00    -0.251 N 
ATOM     36  N   UNL     1      14.600   4.646  34.220  0.00  0.00    -0.065 NA
BRANCH  35  37
ATOM     37  C   UNL     1      15.970   6.413  33.292  0.00  0.00    +0.150 C 
BRANCH  37  38
ATOM     38  C   UNL     1      15.463   7.790  32.869  0.00  0.00    +0.084 C 
BRANCH  38  39
ATOM     39  C   UNL     1      16.528   8.868  33.001  0.00  0.00    +0.252 C 
ATOM     40  O   UNL     1      17.028   9.230  31.709  0.00  0.00    -0.349 OA
ATOM     41  C   UNL     1      17.413  10.592  31.879  0.00  0.00    +0.191 C 
ATOM     42  C   UNL     1      16.364  11.135  32.814  0.00  0.00    +0.191 C 
ATOM     43  O   UNL     1      15.987  10.030  33.637  0.00  0.00    -0.349 OA
ENDBRANCH  38  39
ENDBRANCH  37  38
ENDBRANCH  35  37
ENDBRANCH  31  33
ENDBRANCH  30  31
ENDBRANCH  26  30
ENDBRANCH  25  28
ENDBRANCH   1  25
TORSDOF 16
