REMARK VINA RESULT:    -6.400      1.949      3.812
REMARK INTER + INTRA:         -15.217
REMARK INTER:                 -12.908
REMARK INTRA:                  -2.310
REMARK UNBOUND:                -2.643
REMARK  Name = lig_assembled_37.pdb
REMARK  21 active torsions:
REMARK  status: ('A' for Active; 'I' for Inactive)
REMARK    1  A    between atoms: _2  and  _9
REMARK    2  A    between atoms: _4  and  _24
REMARK    3  A    between atoms: _6  and  _7
REMARK    4  A    between atoms: _6  and  _24
REMARK    5  A    between atoms: _9  and  _10
REMARK    6  A    between atoms: _9  and  _11
REMARK    7  A    between atoms: _11  and  _18
REMARK    8  A    between atoms: _12  and  _13
REMARK    9  A    between atoms: _12  and  _18
REMARK   10  A    between atoms: _20  and  _40
REMARK   11  A    between atoms: _22  and  _28
REMARK   12  A    between atoms: _23  and  _27
REMARK   13  A    between atoms: _27  and  _28
REMARK   14  A    between atoms: _30  and  _31
REMARK   15  A    between atoms: _32  and  _33
REMARK   16  A    between atoms: _34  and  _36
REMARK   17  A    between atoms: _36  and  _37
REMARK   18  A    between atoms: _36  and  _38
REMARK   19  A    between atoms: _38  and  _39
REMARK   20  A    between atoms: _38  and  _40
REMARK   21  A    between atoms: _41  and  _43
REMARK                            x       y       z     vdW  Elec       q    Type
REMARK                         _______ _______ _______ _____ _____    ______ ____
ROOT
ATOM      1  C   UNL     1       6.888   2.519  32.535  0.00  0.00    +0.141 C 
ENDROOT
BRANCH   1   4
ATOM      2  C   UNL     1       4.482   2.072  32.880  0.00  0.00    +0.401 C 
ATOM      3  O   UNL     1       4.634   0.859  33.041  0.00  0.00    -0.226 OA
ATOM      4  N   UNL     1       5.479   2.922  32.632  0.00  0.00    -0.279 N 
ATOM      5  H   UNL     1       5.254   3.899  32.505  0.00  0.00    +0.152 HD
BRANCH   2   6
ATOM      6  O   UNL     1       3.164   2.623  32.954  0.00  0.00    -0.444 OA
BRANCH   6   7
ATOM      7  C   UNL     1       3.125   3.866  32.246  0.00  0.00    +0.292 C 
BRANCH   7   9
ATOM      8  N   UNL     1       1.038   4.691  31.193  0.00  0.00    -0.131 NA
ATOM      9  C   UNL     1       2.099   3.824  31.188  0.00  0.00    +0.120 A 
ATOM     10  C   UNL     1       2.000   3.000  30.090  0.00  0.00    +0.138 A 
ATOM     11  N   UNL     1       0.845   3.393  29.481  0.00  0.00    -0.238 N 
ATOM     12  N   UNL     1       0.281   4.424  30.138  0.00  0.00    -0.065 NA
BRANCH  11  13
ATOM     13  C   UNL     1       0.240   2.909  28.255  0.00  0.00    +0.214 C 
ATOM     14  C   UNL     1      -1.188   2.421  28.493  0.00  0.00    +0.045 C 
BRANCH  13  15
ATOM     15  C   UNL     1       0.258   3.972  27.180  0.00  0.00    +0.332 C 
ATOM     16  O   UNL     1      -0.715   4.647  26.866  0.00  0.00    -0.248 OA
BRANCH  15  17
ATOM     17  O   UNL     1       1.490   4.073  26.611  0.00  0.00    -0.458 OA
BRANCH  17  18
ATOM     18  C   UNL     1       1.855   3.022  25.703  0.00  0.00    +0.267 C 
BRANCH  18  19
ATOM     19  C   UNL     1       1.815   3.530  24.285  0.00  0.00    -0.010 A 
ATOM     20  C   UNL     1       1.782   4.907  24.024  0.00  0.00    +0.007 A 
ATOM     21  C   UNL     1       1.773   5.380  22.711  0.00  0.00    +0.000 A 
ATOM     22  C   UNL     1       1.794   4.482  21.645  0.00  0.00    +0.000 A 
ATOM     23  C   UNL     1       1.821   3.111  21.892  0.00  0.00    +0.000 A 
ATOM     24  C   UNL     1       1.828   2.636  23.205  0.00  0.00    +0.007 A 
ENDBRANCH  18  19
ENDBRANCH  17  18
ENDBRANCH  15  17
ENDBRANCH  13  15
ENDBRANCH  11  13
ENDBRANCH   7   9
ENDBRANCH   6   7
ENDBRANCH   2   6
ENDBRANCH   1   4
BRANCH   1  25
ATOM     25  C   UNL     1       7.803   3.454  33.318  0.00  0.00    +0.163 C 
BRANCH  25  26
ATOM     26  O   UNL     1       7.772   4.770  32.741  0.00  0.00    -0.388 OA
ATOM     27  H   UNL     1       7.074   5.284  33.153  0.00  0.00    +0.210 HD
ENDBRANCH  25  26
BRANCH  25  28
ATOM     28  C   UNL     1       7.362   3.489  34.792  0.00  0.00    +0.175 C 
BRANCH  28  29
ATOM     29  C   UNL     1       8.415   4.148  35.695  0.00  0.00    +0.176 C 
ATOM     30  O   UNL     1       8.870   3.152  36.651  0.00  0.00    -0.332 OA
ATOM     31  C   UNL     1       9.962   3.573  37.534  0.00  0.00    +0.277 C 
ATOM     32  C   UNL     1       9.583   4.877  38.278  0.00  0.00    +0.110 C 
ATOM     33  C   UNL     1       9.063   5.957  37.305  0.00  0.00    +0.143 C 
ATOM     34  C   UNL     1       7.932   5.410  36.433  0.00  0.00    +0.133 C 
BRANCH  34  35
ATOM     35  N   UNL     1       7.504   6.420  35.452  0.00  0.00    -0.308 N 
ATOM     36  H   UNL     1       8.211   6.826  34.854  0.00  0.00    +0.149 HD
ATOM     37  C   UNL     1       6.244   6.835  35.300  0.00  0.00    +0.210 C 
ATOM     38  C   UNL     1       5.196   6.217  36.244  0.00  0.00    +0.109 C 
ATOM     39  O   UNL     1       5.912   7.672  34.459  0.00  0.00    -0.276 OA
ENDBRANCH  34  35
BRANCH  31  40
ATOM     40  C   UNL     1      11.260   3.795  36.731  0.00  0.00    +0.414 C 
ATOM     41  O   UNL     1      12.071   4.649  37.088  0.00  0.00    -0.240 OA
ATOM     42  O   UNL     1      11.497   3.121  35.728  0.00  0.00    -0.240 OA
ENDBRANCH  31  40
BRANCH  31  43
ATOM     43  O   UNL     1      10.170   2.529  38.520  0.00  0.00    -0.343 OA
ATOM     44  C   UNL     1       8.990   2.156  39.275  0.00  0.00    +0.198 C 
ENDBRANCH  31  43
BRANCH  33  45
ATOM     45  O   UNL     1       8.586   7.082  38.044  0.00  0.00    -0.390 OA
ATOM     46  H   UNL     1       9.234   7.789  38.005  0.00  0.00    +0.210 HD
ENDBRANCH  33  45
ENDBRANCH  28  29
BRANCH  28  47
ATOM     47  O   UNL     1       7.074   2.155  35.256  0.00  0.00    -0.387 OA
ATOM     48  H   UNL     1       6.537   1.698  34.604  0.00  0.00    +0.210 HD
ENDBRANCH  28  47
ENDBRANCH  25  28
ENDBRANCH   1  25
TORSDOF 18
