REMARK VINA RESULT:    -5.606     13.335     15.010
REMARK INTER + INTRA:         -15.869
REMARK INTER:                 -13.704
REMARK INTRA:                  -2.166
REMARK UNBOUND:                -2.725
REMARK  Name = lig_assembled_30.pdb
REMARK  27 active torsions:
REMARK  status: ('A' for Active; 'I' for Inactive)
REMARK    1  A    between atoms: _2  and  _9
REMARK    2  A    between atoms: _4  and  _25
REMARK    3  A    between atoms: _5  and  _18
REMARK    4  A    between atoms: _5  and  _19
REMARK    5  A    between atoms: _6  and  _7
REMARK    6  A    between atoms: _6  and  _25
REMARK    7  A    between atoms: _9  and  _10
REMARK    8  A    between atoms: _10  and  _11
REMARK    9  A    between atoms: _11  and  _12
REMARK   10  A    between atoms: _12  and  _13
REMARK   11  A    between atoms: _13  and  _14
REMARK   12  A    between atoms: _14  and  _15
REMARK   13  A    between atoms: _15  and  _16
REMARK   14  A    between atoms: _16  and  _17
REMARK   15  A    between atoms: _17  and  _18
REMARK   16  A    between atoms: _21  and  _41
REMARK   17  A    between atoms: _23  and  _29
REMARK   18  A    between atoms: _24  and  _28
REMARK   19  A    between atoms: _28  and  _29
REMARK   20  A    between atoms: _31  and  _32
REMARK   21  A    between atoms: _33  and  _34
REMARK   22  A    between atoms: _35  and  _37
REMARK   23  A    between atoms: _37  and  _38
REMARK   24  A    between atoms: _37  and  _39
REMARK   25  A    between atoms: _39  and  _40
REMARK   26  A    between atoms: _39  and  _41
REMARK   27  A    between atoms: _42  and  _44
REMARK                            x       y       z     vdW  Elec       q    Type
REMARK                         _______ _______ _______ _____ _____    ______ ____
ROOT
ATOM      1  C   UNL     1       3.558   2.887  32.102  0.00  0.00    +0.401 C 
ATOM      2  O   UNL     1       2.761   2.530  32.973  0.00  0.00    -0.226 OA
ATOM      3  N   UNL     1       4.657   3.602  32.346  0.00  0.00    -0.279 N 
ATOM      4  H   UNL     1       5.255   3.839  31.567  0.00  0.00    +0.152 HD
ENDROOT
BRANCH   1   5
ATOM      5  O   UNL     1       3.311   2.522  30.742  0.00  0.00    -0.444 OA
BRANCH   5   6
ATOM      6  C   UNL     1       1.994   1.977  30.626  0.00  0.00    +0.292 C 
BRANCH   6   8
ATOM      7  N   UNL     1       1.136   3.747  29.123  0.00  0.00    -0.131 NA
ATOM      8  C   UNL     1       1.367   2.419  29.367  0.00  0.00    +0.120 A 
ATOM      9  C   UNL     1       0.926   1.679  28.291  0.00  0.00    +0.137 A 
ATOM     10  N   UNL     1       0.438   2.617  27.432  0.00  0.00    -0.251 N 
ATOM     11  N   UNL     1       0.563   3.857  27.931  0.00  0.00    -0.065 NA
BRANCH  10  12
ATOM     12  C   UNL     1      -0.193   2.402  26.148  0.00  0.00    +0.145 C 
BRANCH  12  13
ATOM     13  C   UNL     1       0.732   1.652  25.196  0.00  0.00    +0.023 C 
BRANCH  13  14
ATOM     14  C   UNL     1       2.078   2.356  25.034  0.00  0.00    +0.002 C 
BRANCH  14  15
ATOM     15  C   UNL     1       2.133   3.084  23.692  0.00  0.00    +0.000 C 
BRANCH  15  16
ATOM     16  C   UNL     1       1.795   4.565  23.835  0.00  0.00    +0.000 C 
BRANCH  16  17
ATOM     17  C   UNL     1       1.707   5.238  22.465  0.00  0.00    +0.000 C 
BRANCH  17  18
ATOM     18  C   UNL     1       1.001   4.333  21.459  0.00  0.00    +0.000 C 
BRANCH  18  19
ATOM     19  C   UNL     1       1.791   4.213  20.156  0.00  0.00    +0.001 C 
BRANCH  19  20
ATOM     20  C   UNL     1       1.932   2.746  19.750  0.00  0.00    +0.011 C 
BRANCH  20  21
ATOM     21  C   UNL     1       2.067   2.584  18.239  0.00  0.00    +0.120 C 
BRANCH  21  22
ATOM     22  C   UNL     1       0.803   2.997  17.522  0.00  0.00    +0.305 C 
ATOM     23  O   UNL     1      -0.331   2.678  17.845  0.00  0.00    -0.251 OA
BRANCH  22  24
ATOM     24  O   UNL     1       1.051   3.782  16.449  0.00  0.00    -0.481 OA
ATOM     25  H   UNL     1       0.619   3.475  15.630  0.00  0.00    +0.295 HD
ENDBRANCH  22  24
ENDBRANCH  21  22
ENDBRANCH  20  21
ENDBRANCH  19  20
ENDBRANCH  18  19
ENDBRANCH  17  18
ENDBRANCH  16  17
ENDBRANCH  15  16
ENDBRANCH  14  15
ENDBRANCH  13  14
ENDBRANCH  12  13
ENDBRANCH  10  12
ENDBRANCH   6   8
ENDBRANCH   5   6
ENDBRANCH   1   5
BRANCH   3  26
ATOM     26  C   UNL     1       5.048   4.064  33.684  0.00  0.00    +0.141 C 
BRANCH  26  27
ATOM     27  C   UNL     1       6.094   3.152  34.317  0.00  0.00    +0.163 C 
BRANCH  27  28
ATOM     28  O   UNL     1       5.748   1.776  34.090  0.00  0.00    -0.388 OA
ATOM     29  H   UNL     1       5.266   1.438  34.848  0.00  0.00    +0.210 HD
ENDBRANCH  27  28
BRANCH  27  30
ATOM     30  C   UNL     1       7.479   3.475  33.732  0.00  0.00    +0.175 C 
BRANCH  30  31
ATOM     31  C   UNL     1       8.510   3.788  34.826  0.00  0.00    +0.176 C 
ATOM     32  O   UNL     1       8.883   2.534  35.461  0.00  0.00    -0.332 OA
ATOM     33  C   UNL     1       9.945   2.624  36.468  0.00  0.00    +0.277 C 
ATOM     34  C   UNL     1       9.577   3.670  37.550  0.00  0.00    +0.110 C 
ATOM     35  C   UNL     1       9.143   5.011  36.921  0.00  0.00    +0.143 C 
ATOM     36  C   UNL     1       8.037   4.800  35.887  0.00  0.00    +0.133 C 
BRANCH  36  37
ATOM     37  N   UNL     1       7.694   6.072  35.233  0.00  0.00    -0.308 N 
ATOM     38  H   UNL     1       8.346   6.448  34.560  0.00  0.00    +0.149 HD
ATOM     39  C   UNL     1       6.576   6.763  35.472  0.00  0.00    +0.210 C 
ATOM     40  C   UNL     1       5.614   6.177  36.522  0.00  0.00    +0.109 C 
ATOM     41  O   UNL     1       6.307   7.819  34.898  0.00  0.00    -0.276 OA
ENDBRANCH  36  37
BRANCH  33  42
ATOM     42  C   UNL     1      11.288   3.010  35.814  0.00  0.00    +0.414 C 
ATOM     43  O   UNL     1      12.078   3.744  36.406  0.00  0.00    -0.240 OA
ATOM     44  O   UNL     1      11.581   2.587  34.695  0.00  0.00    -0.240 OA
ENDBRANCH  33  42
BRANCH  35  45
ATOM     45  O   UNL     1       8.671   5.891  37.942  0.00  0.00    -0.390 OA
ATOM     46  H   UNL     1       7.755   6.122  37.768  0.00  0.00    +0.210 HD
ENDBRANCH  35  45
BRANCH  33  47
ATOM     47  O   UNL     1      10.067   1.328  37.109  0.00  0.00    -0.343 OA
ATOM     48  C   UNL     1       8.910   0.465  36.971  0.00  0.00    +0.198 C 
ENDBRANCH  33  47
ENDBRANCH  30  31
BRANCH  30  49
ATOM     49  O   UNL     1       7.384   4.579  32.809  0.00  0.00    -0.387 OA
ATOM     50  H   UNL     1       7.588   5.398  33.267  0.00  0.00    +0.210 HD
ENDBRANCH  30  49
ENDBRANCH  27  30
ENDBRANCH  26  27
ENDBRANCH   3  26
TORSDOF 25
