REMARK VINA RESULT:    -5.883      7.685     12.487
REMARK INTER + INTRA:         -12.772
REMARK INTER:                 -10.721
REMARK INTRA:                  -2.051
REMARK UNBOUND:                -2.246
REMARK  Name = lig_assembled_5.pdb
REMARK  18 active torsions:
REMARK  status: ('A' for Active; 'I' for Inactive)
REMARK    1  A    between atoms: _2  and  _9
REMARK    2  A    between atoms: _4  and  _20
REMARK    3  A    between atoms: _6  and  _7
REMARK    4  A    between atoms: _6  and  _20
REMARK    5  A    between atoms: _12  and  _15
REMARK    6  A    between atoms: _13  and  _15
REMARK    7  A    between atoms: _16  and  _36
REMARK    8  A    between atoms: _18  and  _24
REMARK    9  A    between atoms: _19  and  _23
REMARK   10  A    between atoms: _23  and  _24
REMARK   11  A    between atoms: _26  and  _27
REMARK   12  A    between atoms: _28  and  _29
REMARK   13  A    between atoms: _30  and  _32
REMARK   14  A    between atoms: _32  and  _33
REMARK   15  A    between atoms: _32  and  _34
REMARK   16  A    between atoms: _34  and  _35
REMARK   17  A    between atoms: _34  and  _36
REMARK   18  A    between atoms: _37  and  _39
REMARK                            x       y       z     vdW  Elec       q    Type
REMARK                         _______ _______ _______ _____ _____    ______ ____
ROOT
ATOM      1  C   UNL     1       7.505   3.813  33.486  0.00  0.00    +0.163 C 
ENDROOT
BRANCH   1   2
ATOM      2  O   UNL     1       7.231   3.639  32.086  0.00  0.00    -0.388 OA
ATOM      3  H   UNL     1       7.750   4.267  31.578  0.00  0.00    +0.210 HD
ENDBRANCH   1   2
BRANCH   1   4
ATOM      4  C   UNL     1       8.227   2.586  34.032  0.00  0.00    +0.141 C 
BRANCH   4   7
ATOM      5  C   UNL     1      10.416   2.508  35.177  0.00  0.00    +0.401 C 
ATOM      6  O   UNL     1      10.935   1.770  34.336  0.00  0.00    -0.226 OA
ATOM      7  N   UNL     1       9.154   2.933  35.117  0.00  0.00    -0.279 N 
ATOM      8  H   UNL     1       8.815   3.528  35.860  0.00  0.00    +0.152 HD
BRANCH   5   9
ATOM      9  O   UNL     1      11.195   2.942  36.295  0.00  0.00    -0.444 OA
BRANCH   9  10
ATOM     10  C   UNL     1      12.548   2.509  36.132  0.00  0.00    +0.292 C 
BRANCH  10  12
ATOM     11  N   UNL     1      13.759   3.743  34.362  0.00  0.00    -0.131 NA
ATOM     12  C   UNL     1      13.392   3.628  35.671  0.00  0.00    +0.121 A 
ATOM     13  C   UNL     1      13.923   4.679  36.381  0.00  0.00    +0.143 A 
ATOM     14  N   UNL     1      14.593   5.437  35.448  0.00  0.00    -0.220 N 
ATOM     15  N   UNL     1      14.494   4.839  34.234  0.00  0.00    -0.060 NA
BRANCH  14  16
ATOM     16  C   UNL     1      15.273   6.670  35.627  0.00  0.00    +0.067 A 
ATOM     17  C   UNL     1      15.602   7.474  34.529  0.00  0.00    +0.031 A 
ATOM     18  C   UNL     1      16.325   8.653  34.721  0.00  0.00    +0.048 A 
ATOM     19  C   UNL     1      16.711   9.057  36.000  0.00  0.00    +0.120 A 
ATOM     20  C   UNL     1      16.371   8.268  37.097  0.00  0.00    +0.048 A 
ATOM     21  C   UNL     1      15.655   7.076  36.914  0.00  0.00    +0.031 A 
BRANCH  19  22
ATOM     22  O   UNL     1      17.466  10.196  36.040  0.00  0.00    -0.495 OA
ATOM     23  C   UNL     1      17.896  10.624  37.325  0.00  0.00    +0.277 C 
ENDBRANCH  19  22
ENDBRANCH  14  16
ENDBRANCH  10  12
ENDBRANCH   9  10
ENDBRANCH   5   9
ENDBRANCH   4   7
ENDBRANCH   1   4
BRANCH   1  24
ATOM     24  C   UNL     1       6.206   4.039  34.278  0.00  0.00    +0.175 C 
BRANCH  24  25
ATOM     25  C   UNL     1       6.325   5.213  35.261  0.00  0.00    +0.176 C 
ATOM     26  O   UNL     1       7.681   5.220  35.787  0.00  0.00    -0.332 OA
ATOM     27  C   UNL     1       8.013   6.343  36.669  0.00  0.00    +0.277 C 
ATOM     28  C   UNL     1       6.999   6.432  37.836  0.00  0.00    +0.110 C 
ATOM     29  C   UNL     1       5.542   6.396  37.328  0.00  0.00    +0.143 C 
ATOM     30  C   UNL     1       5.308   5.190  36.417  0.00  0.00    +0.133 C 
BRANCH  30  31
ATOM     31  N   UNL     1       3.942   5.215  35.871  0.00  0.00    -0.308 N 
ATOM     32  H   UNL     1       3.723   5.918  35.180  0.00  0.00    +0.149 HD
ATOM     33  C   UNL     1       2.973   4.368  36.229  0.00  0.00    +0.210 C 
ATOM     34  C   UNL     1       3.331   3.324  37.304  0.00  0.00    +0.109 C 
ATOM     35  O   UNL     1       1.842   4.403  35.744  0.00  0.00    -0.276 OA
ENDBRANCH  30  31
BRANCH  27  36
ATOM     36  C   UNL     1       8.016   7.672  35.885  0.00  0.00    +0.414 C 
ATOM     37  O   UNL     1       7.854   7.673  34.666  0.00  0.00    -0.240 OA
ATOM     38  O   UNL     1       8.180   8.742  36.472  0.00  0.00    -0.240 OA
ENDBRANCH  27  36
BRANCH  27  39
ATOM     39  O   UNL     1       9.331   6.101  37.226  0.00  0.00    -0.343 OA
ATOM     40  C   UNL     1       9.358   5.211  38.370  0.00  0.00    +0.198 C 
ENDBRANCH  27  39
BRANCH  29  41
ATOM     41  O   UNL     1       4.647   6.328  38.438  0.00  0.00    -0.390 OA
ATOM     42  H   UNL     1       4.421   5.411  38.613  0.00  0.00    +0.210 HD
ENDBRANCH  29  41
ENDBRANCH  24  25
BRANCH  24  43
ATOM     43  O   UNL     1       5.837   2.837  34.982  0.00  0.00    -0.387 OA
ATOM     44  H   UNL     1       5.485   2.196  34.359  0.00  0.00    +0.210 HD
ENDBRANCH  24  43
ENDBRANCH   1  24
TORSDOF 15
