REMARK VINA RESULT:    -7.020      6.076     10.687
REMARK INTER + INTRA:         -15.108
REMARK INTER:                 -12.319
REMARK INTRA:                  -2.789
REMARK UNBOUND:                -2.138
REMARK  Name = lig_assembled_92.pdb
REMARK  18 active torsions:
REMARK  status: ('A' for Active; 'I' for Inactive)
REMARK    1  A    between atoms: _2  and  _11
REMARK    2  A    between atoms: _3  and  _46
REMARK    3  A    between atoms: _6  and  _25
REMARK    4  A    between atoms: _8  and  _9
REMARK    5  A    between atoms: _8  and  _25
REMARK    6  A    between atoms: _14  and  _46
REMARK    7  A    between atoms: _21  and  _41
REMARK    8  A    between atoms: _23  and  _29
REMARK    9  A    between atoms: _24  and  _28
REMARK   10  A    between atoms: _28  and  _29
REMARK   11  A    between atoms: _31  and  _32
REMARK   12  A    between atoms: _33  and  _34
REMARK   13  A    between atoms: _35  and  _37
REMARK   14  A    between atoms: _37  and  _38
REMARK   15  A    between atoms: _37  and  _39
REMARK   16  A    between atoms: _39  and  _40
REMARK   17  A    between atoms: _39  and  _41
REMARK   18  A    between atoms: _42  and  _44
REMARK                            x       y       z     vdW  Elec       q    Type
REMARK                         _______ _______ _______ _____ _____    ______ ____
ROOT
ATOM      1  C   UNL     1      17.587   5.395  22.996  0.00  0.00    +0.401 C 
ATOM      2  O   UNL     1      16.743   5.443  22.097  0.00  0.00    -0.226 OA
ATOM      3  N   UNL     1      18.032   4.263  23.542  0.00  0.00    -0.279 N 
ATOM      4  H   UNL     1      18.732   4.326  24.267  0.00  0.00    +0.152 HD
ENDROOT
BRANCH   3   5
ATOM      5  C   UNL     1      17.562   2.929  23.147  0.00  0.00    +0.141 C 
BRANCH   5   6
ATOM      6  C   UNL     1      18.719   1.999  22.797  0.00  0.00    +0.163 C 
BRANCH   6   7
ATOM      7  O   UNL     1      19.967   2.603  23.174  0.00  0.00    -0.388 OA
ATOM      8  H   UNL     1      20.625   2.428  22.497  0.00  0.00    +0.210 HD
ENDBRANCH   6   7
BRANCH   6   9
ATOM      9  C   UNL     1      18.525   0.648  23.507  0.00  0.00    +0.175 C 
BRANCH   9  10
ATOM     10  C   UNL     1      18.200   0.820  24.998  0.00  0.00    +0.176 C 
ATOM     11  O   UNL     1      19.404   1.287  25.668  0.00  0.00    -0.332 OA
ATOM     12  C   UNL     1      19.254   1.610  27.090  0.00  0.00    +0.277 C 
ATOM     13  C   UNL     1      18.661   0.404  27.859  0.00  0.00    +0.110 C 
ATOM     14  C   UNL     1      17.396  -0.147  27.167  0.00  0.00    +0.143 C 
ATOM     15  C   UNL     1      17.664  -0.446  25.692  0.00  0.00    +0.133 C 
BRANCH  15  16
ATOM     16  N   UNL     1      16.430  -0.888  25.023  0.00  0.00    -0.308 N 
ATOM     17  H   UNL     1      15.646  -0.250  25.012  0.00  0.00    +0.149 HD
ATOM     18  C   UNL     1      16.278  -2.075  24.431  0.00  0.00    +0.210 C 
ATOM     19  C   UNL     1      17.483  -3.033  24.488  0.00  0.00    +0.109 C 
ATOM     20  O   UNL     1      15.237  -2.412  23.865  0.00  0.00    -0.276 OA
ENDBRANCH  15  16
BRANCH  12  21
ATOM     21  C   UNL     1      18.342   2.840  27.278  0.00  0.00    +0.414 C 
ATOM     22  O   UNL     1      17.614   2.927  28.266  0.00  0.00    -0.240 OA
ATOM     23  O   UNL     1      18.334   3.745  26.442  0.00  0.00    -0.240 OA
ENDBRANCH  12  21
BRANCH  14  24
ATOM     24  O   UNL     1      16.972  -1.344  27.820  0.00  0.00    -0.390 OA
ATOM     25  H   UNL     1      17.693  -1.693  28.350  0.00  0.00    +0.210 HD
ENDBRANCH  14  24
BRANCH  12  26
ATOM     26  O   UNL     1      20.571   1.892  27.627  0.00  0.00    -0.343 OA
ATOM     27  C   UNL     1      21.607   2.095  26.633  0.00  0.00    +0.198 C 
ENDBRANCH  12  26
ENDBRANCH   9  10
BRANCH   9  28
ATOM     28  O   UNL     1      19.701  -0.170  23.347  0.00  0.00    -0.387 OA
ATOM     29  H   UNL     1      19.813  -0.391  22.419  0.00  0.00    +0.210 HD
ENDBRANCH   9  28
ENDBRANCH   6   9
ENDBRANCH   5   6
ENDBRANCH   3   5
BRANCH   1  30
ATOM     30  O   UNL     1      18.137   6.616  23.497  0.00  0.00    -0.444 OA
BRANCH  30  31
ATOM     31  C   UNL     1      19.396   6.352  24.122  0.00  0.00    +0.292 C 
BRANCH  31  33
ATOM     32  N   UNL     1      20.617   8.098  25.389  0.00  0.00    -0.131 NA
ATOM     33  C   UNL     1      19.576   7.219  25.301  0.00  0.00    +0.121 A 
ATOM     34  C   UNL     1      18.807   7.320  26.436  0.00  0.00    +0.143 A 
ATOM     35  N   UNL     1      19.405   8.306  27.186  0.00  0.00    -0.220 N 
ATOM     36  N   UNL     1      20.510   8.751  26.540  0.00  0.00    -0.060 NA
BRANCH  35  37
ATOM     37  C   UNL     1      18.979   8.852  28.423  0.00  0.00    +0.067 A 
ATOM     38  C   UNL     1      19.055   8.090  29.600  0.00  0.00    +0.030 A 
ATOM     39  C   UNL     1      18.579   8.609  30.803  0.00  0.00    +0.031 A 
ATOM     40  C   UNL     1      18.037   9.895  30.840  0.00  0.00    +0.109 A 
ATOM     41  C   UNL     1      17.964  10.670  29.679  0.00  0.00    +0.031 A 
ATOM     42  C   UNL     1      18.445  10.151  28.471  0.00  0.00    +0.030 A 
BRANCH  40  43
ATOM     43  S   UNL     1      17.305  10.461  32.352  0.00  0.00    +0.074 S 
ATOM     44  O   UNL     1      15.870  10.519  32.148  0.00  0.00    -0.150 OA
ATOM     45  O   UNL     1      17.851   9.692  33.445  0.00  0.00    -0.150 OA
BRANCH  43  46
ATOM     46  N   UNL     1      17.799  12.073  32.450  0.00  0.00    -0.194 N 
ATOM     47  H   UNL     1      16.950  12.624  32.554  0.00  0.00    +0.176 HD
ATOM     48  C   UNL     1      18.735  12.281  33.484  0.00  0.00    +0.177 A 
ATOM     49  S   UNL     1      18.292  12.874  35.024  0.00  0.00    -0.059 S 
ATOM     50  C   UNL     1      19.951  12.909  35.461  0.00  0.00    +0.068 A 
ATOM     51  C   UNL     1      20.720  12.542  34.377  0.00  0.00    +0.120 A 
ATOM     52  N   UNL     1      20.017  12.150  33.252  0.00  0.00    -0.232 NA
ENDBRANCH  43  46
ENDBRANCH  40  43
ENDBRANCH  35  37
ENDBRANCH  31  33
ENDBRANCH  30  31
ENDBRANCH   1  30
TORSDOF 16
