REMARK VINA RESULT:    -5.615     14.902     17.117
REMARK INTER + INTRA:         -14.212
REMARK INTER:                 -12.191
REMARK INTRA:                  -2.021
REMARK UNBOUND:                -2.852
REMARK  Name = lig_assembled_11.pdb
REMARK  22 active torsions:
REMARK  status: ('A' for Active; 'I' for Inactive)
REMARK    1  A    between atoms: _2  and  _9
REMARK    2  A    between atoms: _4  and  _21
REMARK    3  A    between atoms: _5  and  _9
REMARK    4  A    between atoms: _5  and  _13
REMARK    5  A    between atoms: _6  and  _7
REMARK    6  A    between atoms: _6  and  _21
REMARK    7  A    between atoms: _9  and  _10
REMARK    8  A    between atoms: _10  and  _11
REMARK    9  A    between atoms: _11  and  _12
REMARK   10  A    between atoms: _12  and  _15
REMARK   11  A    between atoms: _17  and  _37
REMARK   12  A    between atoms: _19  and  _25
REMARK   13  A    between atoms: _20  and  _24
REMARK   14  A    between atoms: _24  and  _25
REMARK   15  A    between atoms: _27  and  _28
REMARK   16  A    between atoms: _29  and  _30
REMARK   17  A    between atoms: _31  and  _33
REMARK   18  A    between atoms: _33  and  _34
REMARK   19  A    between atoms: _33  and  _35
REMARK   20  A    between atoms: _35  and  _36
REMARK   21  A    between atoms: _35  and  _37
REMARK   22  A    between atoms: _38  and  _40
REMARK                            x       y       z     vdW  Elec       q    Type
REMARK                         _______ _______ _______ _____ _____    ______ ____
ROOT
ATOM      1  C   UNL     1       3.324   1.792  31.800  0.00  0.00    +0.163 C 
ENDROOT
BRANCH   1   2
ATOM      2  O   UNL     1       4.306   0.867  31.305  0.00  0.00    -0.388 OA
ATOM      3  H   UNL     1       4.687   1.208  30.492  0.00  0.00    +0.210 HD
ENDBRANCH   1   2
BRANCH   1   4
ATOM      4  C   UNL     1       3.917   3.205  31.934  0.00  0.00    +0.175 C 
BRANCH   4   5
ATOM      5  C   UNL     1       4.877   3.318  33.127  0.00  0.00    +0.176 C 
ATOM      6  O   UNL     1       6.083   2.573  32.802  0.00  0.00    -0.332 OA
ATOM      7  C   UNL     1       7.164   2.655  33.789  0.00  0.00    +0.277 C 
ATOM      8  C   UNL     1       6.652   2.238  35.189  0.00  0.00    +0.110 C 
ATOM      9  C   UNL     1       5.353   2.981  35.565  0.00  0.00    +0.143 C 
ATOM     10  C   UNL     1       4.298   2.831  34.468  0.00  0.00    +0.133 C 
BRANCH  10  11
ATOM     11  N   UNL     1       3.097   3.615  34.798  0.00  0.00    -0.308 N 
ATOM     12  H   UNL     1       3.174   4.622  34.789  0.00  0.00    +0.149 HD
ATOM     13  C   UNL     1       1.913   3.082  35.109  0.00  0.00    +0.210 C 
ATOM     14  C   UNL     1       1.835   1.544  35.140  0.00  0.00    +0.109 C 
ATOM     15  O   UNL     1       0.920   3.763  35.367  0.00  0.00    -0.276 OA
ENDBRANCH  10  11
BRANCH   7  16
ATOM     16  C   UNL     1       7.736   4.087  33.854  0.00  0.00    +0.414 C 
ATOM     17  O   UNL     1       8.165   4.535  34.917  0.00  0.00    -0.240 OA
ATOM     18  O   UNL     1       7.769   4.793  32.846  0.00  0.00    -0.240 OA
ENDBRANCH   7  16
BRANCH   7  19
ATOM     19  O   UNL     1       8.208   1.730  33.389  0.00  0.00    -0.343 OA
ATOM     20  C   UNL     1       8.277   0.510  34.169  0.00  0.00    +0.198 C 
ENDBRANCH   7  19
BRANCH   9  21
ATOM     21  O   UNL     1       4.836   2.458  36.789  0.00  0.00    -0.390 OA
ATOM     22  H   UNL     1       4.066   2.966  37.055  0.00  0.00    +0.210 HD
ENDBRANCH   9  21
ENDBRANCH   4   5
BRANCH   4  23
ATOM     23  O   UNL     1       2.860   4.178  32.053  0.00  0.00    -0.387 OA
ATOM     24  H   UNL     1       2.302   4.142  31.272  0.00  0.00    +0.210 HD
ENDBRANCH   4  23
ENDBRANCH   1   4
BRANCH   1  25
ATOM     25  C   UNL     1       2.123   1.830  30.860  0.00  0.00    +0.141 C 
BRANCH  25  28
ATOM     26  C   UNL     1       1.834   3.399  28.972  0.00  0.00    +0.401 C 
ATOM     27  O   UNL     1       0.872   3.980  29.480  0.00  0.00    -0.226 OA
ATOM     28  N   UNL     1       2.475   2.379  29.544  0.00  0.00    -0.279 N 
ATOM     29  H   UNL     1       3.248   1.961  29.045  0.00  0.00    +0.152 HD
BRANCH  26  30
ATOM     30  O   UNL     1       2.304   3.823  27.690  0.00  0.00    -0.444 OA
BRANCH  30  31
ATOM     31  C   UNL     1       1.695   3.028  26.670  0.00  0.00    +0.292 C 
BRANCH  31  33
ATOM     32  N   UNL     1       0.394   4.923  25.750  0.00  0.00    -0.131 NA
ATOM     33  C   UNL     1       1.254   3.879  25.549  0.00  0.00    +0.120 A 
ATOM     34  C   UNL     1       1.582   3.819  24.213  0.00  0.00    +0.138 A 
ATOM     35  N   UNL     1       0.856   4.826  23.643  0.00  0.00    -0.238 N 
ATOM     36  N   UNL     1       0.167   5.504  24.579  0.00  0.00    -0.065 NA
BRANCH  35  37
ATOM     37  C   UNL     1       0.844   5.321  22.271  0.00  0.00    +0.217 C 
BRANCH  37  38
ATOM     38  C   UNL     1      -0.532   5.297  21.621  0.00  0.00    +0.330 C 
ATOM     39  O   UNL     1      -0.800   4.814  20.532  0.00  0.00    -0.249 OA
BRANCH  38  40
ATOM     40  O   UNL     1      -1.503   5.885  22.364  0.00  0.00    -0.479 OA
ATOM     41  H   UNL     1      -2.173   5.299  22.768  0.00  0.00    +0.295 HD
ENDBRANCH  38  40
ENDBRANCH  37  38
BRANCH  37  42
ATOM     42  C   UNL     1       1.920   4.641  21.405  0.00  0.00    +0.049 C 
BRANCH  42  43
ATOM     43  C   UNL     1       1.591   3.206  20.975  0.00  0.00    +0.123 C 
BRANCH  43  44
ATOM     44  C   UNL     1       1.919   2.989  19.516  0.00  0.00    +0.305 C 
ATOM     45  O   UNL     1       2.660   2.118  19.091  0.00  0.00    -0.251 OA
BRANCH  44  46
ATOM     46  O   UNL     1       1.317   3.890  18.708  0.00  0.00    -0.481 OA
ATOM     47  H   UNL     1       0.363   3.737  18.571  0.00  0.00    +0.295 HD
ENDBRANCH  44  46
ENDBRANCH  43  44
ENDBRANCH  42  43
ENDBRANCH  37  42
ENDBRANCH  35  37
ENDBRANCH  31  33
ENDBRANCH  30  31
ENDBRANCH  26  30
ENDBRANCH  25  28
ENDBRANCH   1  25
TORSDOF 20
