REMARK VINA RESULT:    -6.438      3.961      6.098
REMARK INTER + INTRA:         -14.127
REMARK INTER:                 -11.705
REMARK INTRA:                  -2.422
REMARK UNBOUND:                -2.608
REMARK  Name = lig_assembled_4.pdb
REMARK  19 active torsions:
REMARK  status: ('A' for Active; 'I' for Inactive)
REMARK    1  A    between atoms: _2  and  _9
REMARK    2  A    between atoms: _4  and  _21
REMARK    3  A    between atoms: _6  and  _7
REMARK    4  A    between atoms: _6  and  _21
REMARK    5  A    between atoms: _10  and  _11
REMARK    6  A    between atoms: _11  and  _12
REMARK    7  A    between atoms: _11  and  _13
REMARK    8  A    between atoms: _17  and  _37
REMARK    9  A    between atoms: _19  and  _25
REMARK   10  A    between atoms: _20  and  _24
REMARK   11  A    between atoms: _24  and  _25
REMARK   12  A    between atoms: _27  and  _28
REMARK   13  A    between atoms: _29  and  _30
REMARK   14  A    between atoms: _31  and  _33
REMARK   15  A    between atoms: _33  and  _34
REMARK   16  A    between atoms: _33  and  _35
REMARK   17  A    between atoms: _35  and  _36
REMARK   18  A    between atoms: _35  and  _37
REMARK   19  A    between atoms: _38  and  _40
REMARK                            x       y       z     vdW  Elec       q    Type
REMARK                         _______ _______ _______ _____ _____    ______ ____
ROOT
ATOM      1  C   UNL     1       8.053   2.478  34.221  0.00  0.00    +0.163 C 
ENDROOT
BRANCH   1   2
ATOM      2  O   UNL     1       9.014   2.737  35.258  0.00  0.00    -0.388 OA
ATOM      3  H   UNL     1       9.740   2.113  35.185  0.00  0.00    +0.210 HD
ENDBRANCH   1   2
BRANCH   1   4
ATOM      4  C   UNL     1       8.483   1.264  33.403  0.00  0.00    +0.141 C 
BRANCH   4   7
ATOM      5  C   UNL     1       7.061  -0.716  33.807  0.00  0.00    +0.401 C 
ATOM      6  O   UNL     1       7.717  -1.106  34.776  0.00  0.00    -0.226 OA
ATOM      7  N   UNL     1       7.351   0.379  33.103  0.00  0.00    -0.279 N 
ATOM      8  H   UNL     1       6.759   0.612  32.318  0.00  0.00    +0.152 HD
BRANCH   5   9
ATOM      9  O   UNL     1       5.919  -1.469  33.392  0.00  0.00    -0.444 OA
BRANCH   9  10
ATOM     10  C   UNL     1       6.346  -2.624  32.665  0.00  0.00    +0.292 C 
BRANCH  10  12
ATOM     11  N   UNL     1       7.438  -1.872  30.584  0.00  0.00    -0.131 NA
ATOM     12  C   UNL     1       6.336  -2.360  31.215  0.00  0.00    +0.121 A 
ATOM     13  C   UNL     1       5.315  -2.494  30.301  0.00  0.00    +0.143 A 
ATOM     14  N   UNL     1       5.810  -1.944  29.133  0.00  0.00    -0.219 N 
ATOM     15  N   UNL     1       7.116  -1.649  29.317  0.00  0.00    -0.060 NA
BRANCH  14  16
ATOM     16  C   UNL     1       5.097  -1.687  27.924  0.00  0.00    +0.070 A 
ATOM     17  C   UNL     1       5.546  -2.121  26.647  0.00  0.00    -0.019 A 
ATOM     18  C   UNL     1       4.758  -1.771  25.527  0.00  0.00    +0.006 A 
ATOM     19  C   UNL     1       3.589  -1.017  25.648  0.00  0.00    +0.000 A 
ATOM     20  C   UNL     1       3.158  -0.606  26.900  0.00  0.00    +0.002 A 
ATOM     21  C   UNL     1       3.905  -0.936  28.029  0.00  0.00    +0.028 A 
BRANCH  17  22
ATOM     22  C   UNL     1       6.823  -2.928  26.409  0.00  0.00    +0.015 C 
ATOM     23  C   UNL     1       7.901  -2.212  25.580  0.00  0.00    +0.012 C 
ATOM     24  C   UNL     1       6.479  -4.272  25.763  0.00  0.00    +0.012 C 
ENDBRANCH  17  22
ENDBRANCH  14  16
ENDBRANCH  10  12
ENDBRANCH   9  10
ENDBRANCH   5   9
ENDBRANCH   4   7
ENDBRANCH   1   4
BRANCH   1  25
ATOM     25  C   UNL     1       7.903   3.696  33.293  0.00  0.00    +0.175 C 
BRANCH  25  26
ATOM     26  C   UNL     1       7.043   4.801  33.924  0.00  0.00    +0.176 C 
ATOM     27  O   UNL     1       7.803   5.391  35.015  0.00  0.00    -0.332 OA
ATOM     28  C   UNL     1       7.178   6.542  35.673  0.00  0.00    +0.277 C 
ATOM     29  C   UNL     1       5.755   6.179  36.163  0.00  0.00    +0.110 C 
ATOM     30  C   UNL     1       4.919   5.519  35.046  0.00  0.00    +0.143 C 
ATOM     31  C   UNL     1       5.665   4.335  34.429  0.00  0.00    +0.133 C 
BRANCH  31  32
ATOM     32  N   UNL     1       4.897   3.769  33.309  0.00  0.00    -0.308 N 
ATOM     33  H   UNL     1       4.826   4.316  32.462  0.00  0.00    +0.149 HD
ATOM     34  C   UNL     1       4.287   2.581  33.338  0.00  0.00    +0.210 C 
ATOM     35  C   UNL     1       4.392   1.785  34.652  0.00  0.00    +0.109 C 
ATOM     36  O   UNL     1       3.663   2.126  32.379  0.00  0.00    -0.276 OA
ENDBRANCH  31  32
BRANCH  28  37
ATOM     37  C   UNL     1       7.101   7.746  34.711  0.00  0.00    +0.414 C 
ATOM     38  O   UNL     1       8.130   8.248  34.261  0.00  0.00    -0.240 OA
ATOM     39  O   UNL     1       6.010   8.215  34.384  0.00  0.00    -0.240 OA
ENDBRANCH  28  37
BRANCH  30  40
ATOM     40  O   UNL     1       3.675   5.065  35.579  0.00  0.00    -0.390 OA
ATOM     41  H   UNL     1       3.790   4.824  36.501  0.00  0.00    +0.210 HD
ENDBRANCH  30  40
BRANCH  28  42
ATOM     42  O   UNL     1       7.984   6.891  36.828  0.00  0.00    -0.343 OA
ATOM     43  C   UNL     1       9.116   6.019  37.070  0.00  0.00    +0.198 C 
ENDBRANCH  28  42
ENDBRANCH  25  26
BRANCH  25  44
ATOM     44  O   UNL     1       7.342   3.291  32.029  0.00  0.00    -0.387 OA
ATOM     45  H   UNL     1       8.016   2.849  31.506  0.00  0.00    +0.210 HD
ENDBRANCH  25  44
ENDBRANCH   1  25
TORSDOF 15
