REMARK VINA RESULT:    -5.391      5.327     10.249
REMARK INTER + INTRA:         -12.444
REMARK INTER:                 -10.665
REMARK INTRA:                  -1.780
REMARK UNBOUND:                -2.326
REMARK  Name = lig_assembled_32.pdb
REMARK  19 active torsions:
REMARK  status: ('A' for Active; 'I' for Inactive)
REMARK    1  A    between atoms: _2  and  _9
REMARK    2  A    between atoms: _4  and  _17
REMARK    3  A    between atoms: _5  and  _10
REMARK    4  A    between atoms: _5  and  _11
REMARK    5  A    between atoms: _6  and  _7
REMARK    6  A    between atoms: _6  and  _17
REMARK    7  A    between atoms: _9  and  _10
REMARK    8  A    between atoms: _13  and  _33
REMARK    9  A    between atoms: _15  and  _21
REMARK   10  A    between atoms: _16  and  _20
REMARK   11  A    between atoms: _20  and  _21
REMARK   12  A    between atoms: _23  and  _24
REMARK   13  A    between atoms: _25  and  _26
REMARK   14  A    between atoms: _27  and  _29
REMARK   15  A    between atoms: _29  and  _30
REMARK   16  A    between atoms: _29  and  _31
REMARK   17  A    between atoms: _31  and  _32
REMARK   18  A    between atoms: _31  and  _33
REMARK   19  A    between atoms: _34  and  _36
REMARK                            x       y       z     vdW  Elec       q    Type
REMARK                         _______ _______ _______ _____ _____    ______ ____
ROOT
ATOM      1  C   UNL     1       3.618   3.706  34.211  0.00  0.00    +0.163 C 
ENDROOT
BRANCH   1   2
ATOM      2  O   UNL     1       4.040   4.764  33.334  0.00  0.00    -0.388 OA
ATOM      3  H   UNL     1       3.271   5.240  33.013  0.00  0.00    +0.210 HD
ENDBRANCH   1   2
BRANCH   1   4
ATOM      4  C   UNL     1       3.543   4.197  35.667  0.00  0.00    +0.175 C 
BRANCH   4   5
ATOM      5  C   UNL     1       4.604   5.263  35.974  0.00  0.00    +0.176 C 
ATOM      6  O   UNL     1       5.847   4.851  35.341  0.00  0.00    -0.332 OA
ATOM      7  C   UNL     1       6.955   5.807  35.438  0.00  0.00    +0.277 C 
ATOM      8  C   UNL     1       7.219   6.180  36.918  0.00  0.00    +0.110 C 
ATOM      9  C   UNL     1       5.920   6.595  37.641  0.00  0.00    +0.143 C 
ATOM     10  C   UNL     1       4.835   5.531  37.472  0.00  0.00    +0.133 C 
BRANCH  10  11
ATOM     11  N   UNL     1       3.577   5.976  38.092  0.00  0.00    -0.308 N 
ATOM     12  H   UNL     1       3.086   6.748  37.662  0.00  0.00    +0.149 HD
ATOM     13  C   UNL     1       3.040   5.426  39.185  0.00  0.00    +0.210 C 
ATOM     14  C   UNL     1       3.824   4.269  39.831  0.00  0.00    +0.109 C 
ATOM     15  O   UNL     1       1.977   5.810  39.673  0.00  0.00    -0.276 OA
ENDBRANCH  10  11
BRANCH   7  16
ATOM     16  C   UNL     1       6.647   7.085  34.631  0.00  0.00    +0.414 C 
ATOM     17  O   UNL     1       5.607   7.172  33.980  0.00  0.00    -0.240 OA
ATOM     18  O   UNL     1       7.438   8.029  34.631  0.00  0.00    -0.240 OA
ENDBRANCH   7  16
BRANCH   7  19
ATOM     19  O   UNL     1       8.145   5.169  34.908  0.00  0.00    -0.343 OA
ATOM     20  C   UNL     1       7.925   3.872  34.298  0.00  0.00    +0.198 C 
ENDBRANCH   7  19
BRANCH   9  21
ATOM     21  O   UNL     1       6.183   6.783  39.032  0.00  0.00    -0.390 OA
ATOM     22  H   UNL     1       6.920   6.228  39.297  0.00  0.00    +0.210 HD
ENDBRANCH   9  21
ENDBRANCH   4   5
BRANCH   4  23
ATOM     23  O   UNL     1       3.680   3.084  36.573  0.00  0.00    -0.387 OA
ATOM     24  H   UNL     1       4.157   2.374  36.138  0.00  0.00    +0.210 HD
ENDBRANCH   4  23
ENDBRANCH   1   4
BRANCH   1  25
ATOM     25  C   UNL     1       2.252   3.183  33.778  0.00  0.00    +0.141 C 
BRANCH  25  28
ATOM     26  C   UNL     1       1.919   3.407  31.340  0.00  0.00    +0.401 C 
ATOM     27  O   UNL     1       1.531   4.576  31.405  0.00  0.00    -0.226 OA
ATOM     28  N   UNL     1       2.271   2.678  32.400  0.00  0.00    -0.279 N 
ATOM     29  H   UNL     1       2.568   1.725  32.246  0.00  0.00    +0.152 HD
BRANCH  26  30
ATOM     30  O   UNL     1       2.001   2.773  30.061  0.00  0.00    -0.444 OA
BRANCH  30  31
ATOM     31  C   UNL     1       0.751   2.907  29.380  0.00  0.00    +0.292 C 
BRANCH  31  33
ATOM     32  N   UNL     1       2.226   3.660  27.541  0.00  0.00    -0.131 NA
ATOM     33  C   UNL     1       0.966   3.378  27.999  0.00  0.00    +0.120 A 
ATOM     34  C   UNL     1       0.057   3.614  26.991  0.00  0.00    +0.137 A 
ATOM     35  N   UNL     1       0.826   4.048  25.955  0.00  0.00    -0.251 N 
ATOM     36  N   UNL     1       2.128   4.073  26.286  0.00  0.00    -0.065 NA
BRANCH  35  37
ATOM     37  C   UNL     1       0.403   4.447  24.632  0.00  0.00    +0.156 C 
BRANCH  37  38
ATOM     38  C   UNL     1       1.501   5.187  23.880  0.00  0.00    +0.143 C 
BRANCH  38  39
ATOM     39  C   UNL     1       1.259   5.109  22.401  0.00  0.00    +0.306 C 
ATOM     40  O   UNL     1       1.919   4.441  21.621  0.00  0.00    -0.251 OA
BRANCH  39  41
ATOM     41  O   UNL     1       0.224   5.879  21.999  0.00  0.00    -0.481 OA
ATOM     42  H   UNL     1       0.474   6.792  21.755  0.00  0.00    +0.295 HD
ENDBRANCH  39  41
ENDBRANCH  38  39
ENDBRANCH  37  38
ENDBRANCH  35  37
ENDBRANCH  31  33
ENDBRANCH  30  31
ENDBRANCH  26  30
ENDBRANCH  25  28
ENDBRANCH   1  25
TORSDOF 17
