REMARK VINA RESULT:    -6.544      1.891      3.072
REMARK INTER + INTRA:         -13.774
REMARK INTER:                 -12.073
REMARK INTRA:                  -1.701
REMARK UNBOUND:                -1.873
REMARK  Name = lig_assembled_60.pdb
REMARK  18 active torsions:
REMARK  status: ('A' for Active; 'I' for Inactive)
REMARK    1  A    between atoms: _2  and  _10
REMARK    2  A    between atoms: _3  and  _41
REMARK    3  A    between atoms: _5  and  _21
REMARK    4  A    between atoms: _7  and  _8
REMARK    5  A    between atoms: _7  and  _21
REMARK    6  A    between atoms: _13  and  _41
REMARK    7  A    between atoms: _17  and  _37
REMARK    8  A    between atoms: _19  and  _25
REMARK    9  A    between atoms: _20  and  _24
REMARK   10  A    between atoms: _24  and  _25
REMARK   11  A    between atoms: _27  and  _28
REMARK   12  A    between atoms: _29  and  _30
REMARK   13  A    between atoms: _31  and  _33
REMARK   14  A    between atoms: _33  and  _34
REMARK   15  A    between atoms: _33  and  _35
REMARK   16  A    between atoms: _35  and  _36
REMARK   17  A    between atoms: _35  and  _37
REMARK   18  A    between atoms: _38  and  _40
REMARK                            x       y       z     vdW  Elec       q    Type
REMARK                         _______ _______ _______ _____ _____    ______ ____
ROOT
ATOM      1  C   UNL     1       2.151   3.000  32.352  0.00  0.00    +0.141 C 
ENDROOT
BRANCH   1   4
ATOM      2  C   UNL     1       2.060   2.912  29.884  0.00  0.00    +0.401 C 
ATOM      3  O   UNL     1       2.314   1.707  29.824  0.00  0.00    -0.226 OA
ATOM      4  N   UNL     1       1.970   3.599  31.024  0.00  0.00    -0.279 N 
ATOM      5  H   UNL     1       1.767   4.587  30.971  0.00  0.00    +0.152 HD
BRANCH   2   6
ATOM      6  O   UNL     1       1.848   3.638  28.671  0.00  0.00    -0.444 OA
BRANCH   6   7
ATOM      7  C   UNL     1       1.132   2.820  27.743  0.00  0.00    +0.292 C 
BRANCH   7   9
ATOM      8  N   UNL     1       2.545   4.016  26.099  0.00  0.00    -0.131 NA
ATOM      9  C   UNL     1       1.520   3.154  26.359  0.00  0.00    +0.121 A 
ATOM     10  C   UNL     1       0.998   2.704  25.169  0.00  0.00    +0.143 A 
ATOM     11  N   UNL     1       1.768   3.298  24.195  0.00  0.00    -0.220 N 
ATOM     12  N   UNL     1       2.684   4.106  24.783  0.00  0.00    -0.060 NA
BRANCH  11  13
ATOM     13  C   UNL     1       1.714   3.115  22.789  0.00  0.00    +0.067 A 
ATOM     14  C   UNL     1       1.722   1.825  22.235  0.00  0.00    +0.030 A 
ATOM     15  C   UNL     1       1.739   1.658  20.849  0.00  0.00    +0.030 A 
ATOM     16  C   UNL     1       1.734   2.778  20.014  0.00  0.00    +0.105 A 
ATOM     17  C   UNL     1       1.710   4.067  20.554  0.00  0.00    +0.030 A 
ATOM     18  C   UNL     1       1.693   4.235  21.942  0.00  0.00    +0.030 A 
BRANCH  16  19
ATOM     19  S   UNL     1       1.835   2.553  18.263  0.00  0.00    +0.056 S 
ATOM     20  O   UNL     1       1.352   1.235  17.923  0.00  0.00    -0.153 OA
ATOM     21  O   UNL     1       1.359   3.749  17.606  0.00  0.00    -0.153 OA
BRANCH  19  22
ATOM     22  N   UNL     1       3.494   2.518  18.020  0.00  0.00    -0.204 NA
ATOM     23  H   UNL     1       3.901   1.731  18.525  0.00  0.00    +0.144 HD
ATOM     24  H   UNL     1       3.898   3.422  18.268  0.00  0.00    +0.144 HD
ENDBRANCH  19  22
ENDBRANCH  16  19
ENDBRANCH  11  13
ENDBRANCH   7   9
ENDBRANCH   6   7
ENDBRANCH   2   6
ENDBRANCH   1   4
BRANCH   1  25
ATOM     25  C   UNL     1       3.464   3.431  32.997  0.00  0.00    +0.163 C 
BRANCH  25  26
ATOM     26  O   UNL     1       3.822   4.748  32.548  0.00  0.00    -0.388 OA
ATOM     27  H   UNL     1       4.685   4.720  32.129  0.00  0.00    +0.210 HD
ENDBRANCH  25  26
BRANCH  25  28
ATOM     28  C   UNL     1       3.322   3.391  34.528  0.00  0.00    +0.175 C 
BRANCH  28  29
ATOM     29  C   UNL     1       4.189   4.455  35.217  0.00  0.00    +0.176 C 
ATOM     30  O   UNL     1       5.523   4.384  34.643  0.00  0.00    -0.332 OA
ATOM     31  C   UNL     1       6.468   5.405  35.107  0.00  0.00    +0.277 C 
ATOM     32  C   UNL     1       6.562   5.391  36.653  0.00  0.00    +0.110 C 
ATOM     33  C   UNL     1       5.166   5.432  37.309  0.00  0.00    +0.143 C 
ATOM     34  C   UNL     1       4.265   4.331  36.750  0.00  0.00    +0.133 C 
BRANCH  34  35
ATOM     35  N   UNL     1       2.911   4.435  37.319  0.00  0.00    -0.308 N 
ATOM     36  H   UNL     1       2.356   5.242  37.071  0.00  0.00    +0.149 HD
ATOM     37  C   UNL     1       2.369   3.532  38.140  0.00  0.00    +0.210 C 
ATOM     38  C   UNL     1       3.250   2.327  38.519  0.00  0.00    +0.109 C 
ATOM     39  O   UNL     1       1.227   3.638  38.589  0.00  0.00    -0.276 OA
ENDBRANCH  34  35
BRANCH  31  40
ATOM     40  C   UNL     1       6.038   6.807  34.629  0.00  0.00    +0.414 C 
ATOM     41  O   UNL     1       6.725   7.792  34.897  0.00  0.00    -0.240 OA
ATOM     42  O   UNL     1       5.004   6.953  33.975  0.00  0.00    -0.240 OA
ENDBRANCH  31  40
BRANCH  33  43
ATOM     43  O   UNL     1       5.292   5.266  38.721  0.00  0.00    -0.390 OA
ATOM     44  H   UNL     1       5.081   6.092  39.162  0.00  0.00    +0.210 HD
ENDBRANCH  33  43
BRANCH  31  45
ATOM     45  O   UNL     1       7.776   5.085  34.567  0.00  0.00    -0.343 OA
ATOM     46  C   UNL     1       7.797   3.979  33.629  0.00  0.00    +0.198 C 
ENDBRANCH  31  45
ENDBRANCH  28  29
BRANCH  28  47
ATOM     47  O   UNL     1       3.658   2.079  35.023  0.00  0.00    -0.387 OA
ATOM     48  H   UNL     1       3.996   1.541  34.303  0.00  0.00    +0.210 HD
ENDBRANCH  28  47
ENDBRANCH  25  28
ENDBRANCH   1  25
TORSDOF 16
