REMARK VINA RESULT:    -4.956     12.662     14.497
REMARK INTER + INTRA:         -12.828
REMARK INTER:                 -10.453
REMARK INTRA:                  -2.375
REMARK UNBOUND:                -3.380
REMARK  Name = lig_assembled_62.pdb
REMARK  20 active torsions:
REMARK  status: ('A' for Active; 'I' for Inactive)
REMARK    1  A    between atoms: _2  and  _10
REMARK    2  A    between atoms: _5  and  _19
REMARK    3  A    between atoms: _6  and  _10
REMARK    4  A    between atoms: _7  and  _8
REMARK    5  A    between atoms: _7  and  _19
REMARK    6  A    between atoms: _10  and  _11
REMARK    7  A    between atoms: _11  and  _14
REMARK    8  A    between atoms: _12  and  _14
REMARK    9  A    between atoms: _15  and  _35
REMARK   10  A    between atoms: _17  and  _23
REMARK   11  A    between atoms: _18  and  _22
REMARK   12  A    between atoms: _22  and  _23
REMARK   13  A    between atoms: _25  and  _26
REMARK   14  A    between atoms: _27  and  _28
REMARK   15  A    between atoms: _29  and  _31
REMARK   16  A    between atoms: _31  and  _32
REMARK   17  A    between atoms: _31  and  _33
REMARK   18  A    between atoms: _33  and  _34
REMARK   19  A    between atoms: _33  and  _35
REMARK   20  A    between atoms: _36  and  _38
REMARK                            x       y       z     vdW  Elec       q    Type
REMARK                         _______ _______ _______ _____ _____    ______ ____
ROOT
ATOM      1  C   UNL     1       7.705   2.303  34.242  0.00  0.00    +0.163 C 
ENDROOT
BRANCH   1   2
ATOM      2  O   UNL     1       8.483   2.425  35.444  0.00  0.00    -0.388 OA
ATOM      3  H   UNL     1       9.175   1.759  35.447  0.00  0.00    +0.210 HD
ENDBRANCH   1   2
BRANCH   1   4
ATOM      4  C   UNL     1       7.786   3.590  33.403  0.00  0.00    +0.175 C 
BRANCH   4   5
ATOM      5  C   UNL     1       6.940   4.724  34.001  0.00  0.00    +0.176 C 
ATOM      6  O   UNL     1       7.688   5.306  35.104  0.00  0.00    -0.332 OA
ATOM      7  C   UNL     1       7.078   6.481  35.734  0.00  0.00    +0.277 C 
ATOM      8  C   UNL     1       5.634   6.160  36.192  0.00  0.00    +0.110 C 
ATOM      9  C   UNL     1       4.809   5.510  35.062  0.00  0.00    +0.143 C 
ATOM     10  C   UNL     1       5.538   4.300  34.477  0.00  0.00    +0.133 C 
BRANCH  10  11
ATOM     11  N   UNL     1       4.783   3.742  33.344  0.00  0.00    -0.308 N 
ATOM     12  H   UNL     1       4.739   4.285  32.493  0.00  0.00    +0.149 HD
ATOM     13  C   UNL     1       4.151   2.565  33.367  0.00  0.00    +0.210 C 
ATOM     14  C   UNL     1       4.214   1.774  34.687  0.00  0.00    +0.109 C 
ATOM     15  O   UNL     1       3.538   2.116  32.398  0.00  0.00    -0.276 OA
ENDBRANCH  10  11
BRANCH   7  16
ATOM     16  C   UNL     1       7.056   7.675  34.757  0.00  0.00    +0.414 C 
ATOM     17  O   UNL     1       8.109   8.168  34.357  0.00  0.00    -0.240 OA
ATOM     18  O   UNL     1       5.985   8.145  34.371  0.00  0.00    -0.240 OA
ENDBRANCH   7  16
BRANCH   7  19
ATOM     19  O   UNL     1       7.865   6.821  36.904  0.00  0.00    -0.343 OA
ATOM     20  C   UNL     1       9.052   6.013  37.101  0.00  0.00    +0.198 C 
ENDBRANCH   7  19
BRANCH   9  21
ATOM     21  O   UNL     1       3.540   5.095  35.570  0.00  0.00    -0.390 OA
ATOM     22  H   UNL     1       3.463   5.354  36.491  0.00  0.00    +0.210 HD
ENDBRANCH   9  21
ENDBRANCH   4   5
BRANCH   4  23
ATOM     23  O   UNL     1       7.373   3.325  32.047  0.00  0.00    -0.387 OA
ATOM     24  H   UNL     1       6.430   3.150  32.027  0.00  0.00    +0.210 HD
ENDBRANCH   4  23
ENDBRANCH   1   4
BRANCH   1  25
ATOM     25  C   UNL     1       8.205   1.123  33.415  0.00  0.00    +0.141 C 
BRANCH  25  28
ATOM     26  C   UNL     1       7.210  -0.631  31.987  0.00  0.00    +0.401 C 
ATOM     27  O   UNL     1       8.155  -1.411  32.125  0.00  0.00    -0.226 OA
ATOM     28  N   UNL     1       7.153   0.577  32.549  0.00  0.00    -0.279 N 
ATOM     29  H   UNL     1       6.339   1.149  32.369  0.00  0.00    +0.152 HD
BRANCH  26  30
ATOM     30  O   UNL     1       6.099  -1.022  31.176  0.00  0.00    -0.444 OA
BRANCH  30  31
ATOM     31  C   UNL     1       6.549  -1.895  30.137  0.00  0.00    +0.292 C 
BRANCH  31  33
ATOM     32  N   UNL     1       4.525  -1.106  28.950  0.00  0.00    -0.131 NA
ATOM     33  C   UNL     1       5.771  -1.671  28.905  0.00  0.00    +0.120 A 
ATOM     34  C   UNL     1       6.092  -1.947  27.594  0.00  0.00    +0.138 A 
ATOM     35  N   UNL     1       4.995  -1.541  26.890  0.00  0.00    -0.237 N 
ATOM     36  N   UNL     1       4.058  -1.029  27.711  0.00  0.00    -0.065 NA
BRANCH  35  37
ATOM     37  C   UNL     1       4.755  -1.564  25.457  0.00  0.00    +0.219 C 
BRANCH  37  38
ATOM     38  C   UNL     1       3.422  -2.230  25.156  0.00  0.00    +0.237 C 
ATOM     39  O   UNL     1       2.486  -1.679  24.581  0.00  0.00    -0.274 OA
ATOM     40  N   UNL     1       3.316  -3.549  25.508  0.00  0.00    -0.328 N 
ATOM     41  H   UNL     1       4.076  -4.089  25.901  0.00  0.00    +0.145 HD
ATOM     42  H   UNL     1       2.441  -4.021  25.311  0.00  0.00    +0.145 HD
ENDBRANCH  37  38
BRANCH  37  43
ATOM     43  C   UNL     1       5.896  -2.270  24.729  0.00  0.00    +0.195 C 
BRANCH  43  44
ATOM     44  O   UNL     1       5.435  -2.718  23.446  0.00  0.00    -0.380 OA
ATOM     45  C   UNL     1       5.982  -3.986  23.103  0.00  0.00    +0.194 C 
ENDBRANCH  43  44
ENDBRANCH  37  43
ENDBRANCH  35  37
ENDBRANCH  31  33
ENDBRANCH  30  31
ENDBRANCH  26  30
ENDBRANCH  25  28
ENDBRANCH   1  25
TORSDOF 17
