REMARK VINA RESULT:    -6.185      4.429     10.707
REMARK INTER + INTRA:         -13.986
REMARK INTER:                 -11.483
REMARK INTRA:                  -2.503
REMARK UNBOUND:                -2.378
REMARK  Name = lig_assembled_68.pdb
REMARK  19 active torsions:
REMARK  status: ('A' for Active; 'I' for Inactive)
REMARK    1  A    between atoms: _2  and  _9
REMARK    2  A    between atoms: _4  and  _21
REMARK    3  A    between atoms: _6  and  _7
REMARK    4  A    between atoms: _6  and  _21
REMARK    5  A    between atoms: _9  and  _10
REMARK    6  A    between atoms: _10  and  _11
REMARK    7  A    between atoms: _10  and  _16
REMARK    8  A    between atoms: _17  and  _37
REMARK    9  A    between atoms: _19  and  _25
REMARK   10  A    between atoms: _20  and  _24
REMARK   11  A    between atoms: _24  and  _25
REMARK   12  A    between atoms: _27  and  _28
REMARK   13  A    between atoms: _29  and  _30
REMARK   14  A    between atoms: _31  and  _33
REMARK   15  A    between atoms: _33  and  _34
REMARK   16  A    between atoms: _33  and  _35
REMARK   17  A    between atoms: _35  and  _36
REMARK   18  A    between atoms: _35  and  _37
REMARK   19  A    between atoms: _38  and  _40
REMARK                            x       y       z     vdW  Elec       q    Type
REMARK                         _______ _______ _______ _____ _____    ______ ____
ROOT
ATOM      1  C   UNL     1      -1.197   3.950  27.197  0.00  0.00    +0.163 C 
ENDROOT
BRANCH   1   2
ATOM      2  O   UNL     1      -0.502   5.104  26.699  0.00  0.00    -0.388 OA
ATOM      3  H   UNL     1      -0.998   5.896  26.917  0.00  0.00    +0.210 HD
ENDBRANCH   1   2
BRANCH   1   4
ATOM      4  C   UNL     1      -0.810   2.689  26.404  0.00  0.00    +0.175 C 
BRANCH   4   5
ATOM      5  C   UNL     1       0.237   2.987  25.321  0.00  0.00    +0.176 C 
ATOM      6  O   UNL     1      -0.469   3.374  24.111  0.00  0.00    -0.332 OA
ATOM      7  C   UNL     1       0.377   3.800  22.992  0.00  0.00    +0.277 C 
ATOM      8  C   UNL     1       1.425   2.709  22.660  0.00  0.00    +0.110 C 
ATOM      9  C   UNL     1       2.180   2.242  23.922  0.00  0.00    +0.143 C 
ATOM     10  C   UNL     1       1.203   1.825  25.023  0.00  0.00    +0.133 C 
BRANCH  10  11
ATOM     11  N   UNL     1       1.932   1.465  26.249  0.00  0.00    -0.308 N 
ATOM     12  H   UNL     1       2.400   2.205  26.755  0.00  0.00    +0.149 HD
ATOM     13  C   UNL     1       2.017   0.225  26.738  0.00  0.00    +0.210 C 
ATOM     14  C   UNL     1       1.316  -0.884  25.931  0.00  0.00    +0.109 C 
ATOM     15  O   UNL     1       2.623  -0.045  27.776  0.00  0.00    -0.276 OA
ENDBRANCH  10  11
BRANCH   7  16
ATOM     16  C   UNL     1       1.098   5.123  23.324  0.00  0.00    +0.414 C 
ATOM     17  O   UNL     1       0.808   5.749  24.343  0.00  0.00    -0.240 OA
ATOM     18  O   UNL     1       1.969   5.564  22.573  0.00  0.00    -0.240 OA
ENDBRANCH   7  16
BRANCH   7  19
ATOM     19  O   UNL     1      -0.473   3.985  21.831  0.00  0.00    -0.343 OA
ATOM     20  C   UNL     1      -1.865   4.262  22.130  0.00  0.00    +0.198 C 
ENDBRANCH   7  19
BRANCH   9  21
ATOM     21  O   UNL     1       3.023   1.135  23.598  0.00  0.00    -0.390 OA
ATOM     22  H   UNL     1       2.874   0.424  24.225  0.00  0.00    +0.210 HD
ENDBRANCH   9  21
ENDBRANCH   4   5
BRANCH   4  23
ATOM     23  O   UNL     1      -1.983   2.096  25.812  0.00  0.00    -0.387 OA
ATOM     24  H   UNL     1      -2.045   1.175  26.077  0.00  0.00    +0.210 HD
ENDBRANCH   4  23
ENDBRANCH   1   4
BRANCH   1  25
ATOM     25  C   UNL     1      -0.874   3.743  28.673  0.00  0.00    +0.141 C 
BRANCH  25  28
ATOM     26  C   UNL     1       1.342   3.402  29.712  0.00  0.00    +0.401 C 
ATOM     27  O   UNL     1       1.268   4.407  30.423  0.00  0.00    -0.226 OA
ATOM     28  N   UNL     1       0.390   3.020  28.860  0.00  0.00    -0.279 N 
ATOM     29  H   UNL     1       0.548   2.185  28.313  0.00  0.00    +0.152 HD
BRANCH  26  30
ATOM     30  O   UNL     1       2.513   2.585  29.786  0.00  0.00    -0.444 OA
BRANCH  30  31
ATOM     31  C   UNL     1       2.892   2.415  31.154  0.00  0.00    +0.292 C 
BRANCH  31  33
ATOM     32  N   UNL     1       5.187   1.710  31.774  0.00  0.00    -0.131 NA
ATOM     33  C   UNL     1       3.949   1.395  31.274  0.00  0.00    +0.120 A 
ATOM     34  C   UNL     1       3.926   0.062  30.939  0.00  0.00    +0.137 A 
ATOM     35  N   UNL     1       5.174  -0.382  31.267  0.00  0.00    -0.249 N 
ATOM     36  N   UNL     1       5.933   0.613  31.757  0.00  0.00    -0.065 NA
BRANCH  35  37
ATOM     37  C   UNL     1       5.733  -1.699  31.045  0.00  0.00    +0.181 C 
BRANCH  37  38
ATOM     38  C   UNL     1       7.030  -1.647  30.228  0.00  0.00    +0.166 C 
BRANCH  38  39
ATOM     39  C   UNL     1       6.851  -1.953  28.748  0.00  0.00    -0.017 A 
ATOM     40  C   UNL     1       7.848  -2.690  28.081  0.00  0.00    +0.006 A 
ATOM     41  C   UNL     1       7.711  -3.016  26.730  0.00  0.00    +0.000 A 
ATOM     42  C   UNL     1       6.579  -2.618  26.026  0.00  0.00    +0.000 A 
ATOM     43  C   UNL     1       5.576  -1.906  26.673  0.00  0.00    +0.000 A 
ATOM     44  C   UNL     1       5.707  -1.579  28.026  0.00  0.00    +0.006 A 
ENDBRANCH  38  39
BRANCH  38  45
ATOM     45  O   UNL     1       7.958  -2.596  30.765  0.00  0.00    -0.385 OA
ATOM     46  H   UNL     1       7.833  -3.440  30.302  0.00  0.00    +0.210 HD
ENDBRANCH  38  45
ENDBRANCH  37  38
ENDBRANCH  35  37
ENDBRANCH  31  33
ENDBRANCH  30  31
ENDBRANCH  26  30
ENDBRANCH  25  28
ENDBRANCH   1  25
TORSDOF 17
