REMARK VINA RESULT:    -6.965      4.926     10.363
REMARK INTER + INTRA:         -15.008
REMARK INTER:                 -12.250
REMARK INTRA:                  -2.758
REMARK UNBOUND:                -2.138
REMARK  Name = lig_assembled_92.pdb
REMARK  18 active torsions:
REMARK  status: ('A' for Active; 'I' for Inactive)
REMARK    1  A    between atoms: _2  and  _11
REMARK    2  A    between atoms: _3  and  _46
REMARK    3  A    between atoms: _6  and  _25
REMARK    4  A    between atoms: _8  and  _9
REMARK    5  A    between atoms: _8  and  _25
REMARK    6  A    between atoms: _14  and  _46
REMARK    7  A    between atoms: _21  and  _41
REMARK    8  A    between atoms: _23  and  _29
REMARK    9  A    between atoms: _24  and  _28
REMARK   10  A    between atoms: _28  and  _29
REMARK   11  A    between atoms: _31  and  _32
REMARK   12  A    between atoms: _33  and  _34
REMARK   13  A    between atoms: _35  and  _37
REMARK   14  A    between atoms: _37  and  _38
REMARK   15  A    between atoms: _37  and  _39
REMARK   16  A    between atoms: _39  and  _40
REMARK   17  A    between atoms: _39  and  _41
REMARK   18  A    between atoms: _42  and  _44
REMARK                            x       y       z     vdW  Elec       q    Type
REMARK                         _______ _______ _______ _____ _____    ______ ____
ROOT
ATOM      1  C   UNL     1      20.392   1.459  22.529  0.00  0.00    +0.401 C 
ATOM      2  O   UNL     1      21.418   0.791  22.379  0.00  0.00    -0.226 OA
ATOM      3  N   UNL     1      19.208   1.135  22.007  0.00  0.00    -0.279 N 
ATOM      4  H   UNL     1      18.422   1.741  22.194  0.00  0.00    +0.152 HD
ENDROOT
BRANCH   3   5
ATOM      5  C   UNL     1      18.984  -0.054  21.174  0.00  0.00    +0.141 C 
BRANCH   5   6
ATOM      6  C   UNL     1      18.172  -1.116  21.908  0.00  0.00    +0.163 C 
BRANCH   6   7
ATOM      7  O   UNL     1      18.922  -2.339  21.989  0.00  0.00    -0.388 OA
ATOM      8  H   UNL     1      19.817  -2.147  22.282  0.00  0.00    +0.210 HD
ENDBRANCH   6   7
BRANCH   6   9
ATOM      9  C   UNL     1      17.802  -0.603  23.311  0.00  0.00    +0.175 C 
BRANCH   9  10
ATOM     10  C   UNL     1      17.321  -1.734  24.231  0.00  0.00    +0.176 C 
ATOM     11  O   UNL     1      16.383  -2.553  23.481  0.00  0.00    -0.332 OA
ATOM     12  C   UNL     1      15.895  -3.752  24.170  0.00  0.00    +0.277 C 
ATOM     13  C   UNL     1      15.281  -3.376  25.540  0.00  0.00    +0.110 C 
ATOM     14  C   UNL     1      16.230  -2.478  26.362  0.00  0.00    +0.143 C 
ATOM     15  C   UNL     1      16.678  -1.263  25.549  0.00  0.00    +0.133 C 
BRANCH  15  16
ATOM     16  N   UNL     1      17.649  -0.462  26.311  0.00  0.00    -0.308 N 
ATOM     17  H   UNL     1      18.538  -0.887  26.535  0.00  0.00    +0.149 HD
ATOM     18  C   UNL     1      17.432   0.789  26.726  0.00  0.00    +0.210 C 
ATOM     19  C   UNL     1      16.057   1.398  26.391  0.00  0.00    +0.109 C 
ATOM     20  O   UNL     1      18.269   1.441  27.350  0.00  0.00    -0.276 OA
ENDBRANCH  15  16
BRANCH  12  21
ATOM     21  C   UNL     1      17.039  -4.766  24.378  0.00  0.00    +0.414 C 
ATOM     22  O   UNL     1      16.892  -5.717  25.146  0.00  0.00    -0.240 OA
ATOM     23  O   UNL     1      18.107  -4.635  23.779  0.00  0.00    -0.240 OA
ENDBRANCH  12  21
BRANCH  14  24
ATOM     24  O   UNL     1      15.567  -2.033  27.546  0.00  0.00    -0.390 OA
ATOM     25  H   UNL     1      14.765  -2.545  27.677  0.00  0.00    +0.210 HD
ENDBRANCH  14  24
BRANCH  12  26
ATOM     26  O   UNL     1      14.856  -4.348  23.351  0.00  0.00    -0.343 OA
ATOM     27  C   UNL     1      15.173  -4.454  21.941  0.00  0.00    +0.198 C 
ENDBRANCH  12  26
ENDBRANCH   9  10
BRANCH   9  28
ATOM     28  O   UNL     1      16.794   0.422  23.215  0.00  0.00    -0.387 OA
ATOM     29  H   UNL     1      15.939   0.054  23.450  0.00  0.00    +0.210 HD
ENDBRANCH   9  28
ENDBRANCH   6   9
ENDBRANCH   5   6
ENDBRANCH   3   5
BRANCH   1  30
ATOM     30  O   UNL     1      20.450   2.655  23.310  0.00  0.00    -0.444 OA
BRANCH  30  31
ATOM     31  C   UNL     1      19.221   2.821  24.022  0.00  0.00    +0.292 C 
BRANCH  31  33
ATOM     32  N   UNL     1      18.732   5.238  23.771  0.00  0.00    -0.131 NA
ATOM     33  C   UNL     1      19.118   4.191  24.557  0.00  0.00    +0.121 A 
ATOM     34  C   UNL     1      19.354   4.651  25.832  0.00  0.00    +0.143 A 
ATOM     35  N   UNL     1      19.068   5.996  25.784  0.00  0.00    -0.220 N 
ATOM     36  N   UNL     1      18.710   6.333  24.522  0.00  0.00    -0.060 NA
BRANCH  35  37
ATOM     37  C   UNL     1      19.082   6.937  26.845  0.00  0.00    +0.067 A 
ATOM     38  C   UNL     1      19.053   6.503  28.180  0.00  0.00    +0.030 A 
ATOM     39  C   UNL     1      19.008   7.431  29.218  0.00  0.00    +0.031 A 
ATOM     40  C   UNL     1      19.004   8.797  28.930  0.00  0.00    +0.109 A 
ATOM     41  C   UNL     1      19.042   9.246  27.607  0.00  0.00    +0.031 A 
ATOM     42  C   UNL     1      19.092   8.314  26.564  0.00  0.00    +0.030 A 
BRANCH  40  43
ATOM     43  S   UNL     1      18.791   9.943  30.267  0.00  0.00    +0.074 S 
ATOM     44  O   UNL     1      20.001  10.738  30.357  0.00  0.00    -0.150 OA
ATOM     45  O   UNL     1      17.508  10.589  30.121  0.00  0.00    -0.150 OA
BRANCH  43  46
ATOM     46  N   UNL     1      18.813   8.957  31.638  0.00  0.00    -0.194 N 
ATOM     47  H   UNL     1      19.580   9.291  32.215  0.00  0.00    +0.176 HD
ATOM     48  C   UNL     1      17.570   8.946  32.304  0.00  0.00    +0.177 A 
ATOM     49  S   UNL     1      17.244   9.929  33.663  0.00  0.00    -0.059 S 
ATOM     50  C   UNL     1      15.711   9.171  33.813  0.00  0.00    +0.068 A 
ATOM     51  C   UNL     1      15.597   8.175  32.866  0.00  0.00    +0.120 A 
ATOM     52  N   UNL     1      16.653   8.069  31.980  0.00  0.00    -0.232 NA
ENDBRANCH  43  46
ENDBRANCH  40  43
ENDBRANCH  35  37
ENDBRANCH  31  33
ENDBRANCH  30  31
ENDBRANCH   1  30
TORSDOF 16
