REMARK VINA RESULT:    -6.391      2.350      4.635
REMARK INTER + INTRA:         -14.824
REMARK INTER:                 -12.751
REMARK INTRA:                  -2.073
REMARK UNBOUND:                -2.643
REMARK  Name = lig_assembled_21.pdb
REMARK  20 active torsions:
REMARK  status: ('A' for Active; 'I' for Inactive)
REMARK    1  A    between atoms: _2  and  _9
REMARK    2  A    between atoms: _4  and  _23
REMARK    3  A    between atoms: _6  and  _7
REMARK    4  A    between atoms: _6  and  _23
REMARK    5  A    between atoms: _9  and  _10
REMARK    6  A    between atoms: _11  and  _18
REMARK    7  A    between atoms: _12  and  _13
REMARK    8  A    between atoms: _12  and  _18
REMARK    9  A    between atoms: _19  and  _39
REMARK   10  A    between atoms: _21  and  _27
REMARK   11  A    between atoms: _22  and  _26
REMARK   12  A    between atoms: _26  and  _27
REMARK   13  A    between atoms: _29  and  _30
REMARK   14  A    between atoms: _31  and  _32
REMARK   15  A    between atoms: _33  and  _35
REMARK   16  A    between atoms: _35  and  _36
REMARK   17  A    between atoms: _35  and  _37
REMARK   18  A    between atoms: _37  and  _38
REMARK   19  A    between atoms: _37  and  _39
REMARK   20  A    between atoms: _40  and  _42
REMARK                            x       y       z     vdW  Elec       q    Type
REMARK                         _______ _______ _______ _____ _____    ______ ____
ROOT
ATOM      1  C   UNL     1       6.328   2.847  32.758  0.00  0.00    +0.163 C 
ENDROOT
BRANCH   1   2
ATOM      2  O   UNL     1       6.141   3.231  31.386  0.00  0.00    -0.388 OA
ATOM      3  H   UNL     1       6.251   2.464  30.820  0.00  0.00    +0.210 HD
ENDBRANCH   1   2
BRANCH   1   4
ATOM      4  C   UNL     1       7.482   3.637  33.399  0.00  0.00    +0.175 C 
BRANCH   4   5
ATOM      5  C   UNL     1       7.128   4.138  34.807  0.00  0.00    +0.176 C 
ATOM      6  O   UNL     1       7.208   5.590  34.798  0.00  0.00    -0.332 OA
ATOM      7  C   UNL     1       6.797   6.254  36.039  0.00  0.00    +0.277 C 
ATOM      8  C   UNL     1       7.594   5.693  37.242  0.00  0.00    +0.110 C 
ATOM      9  C   UNL     1       7.565   4.151  37.275  0.00  0.00    +0.143 C 
ATOM     10  C   UNL     1       8.007   3.565  35.934  0.00  0.00    +0.133 C 
BRANCH  10  11
ATOM     11  N   UNL     1       7.892   2.098  35.950  0.00  0.00    -0.308 N 
ATOM     12  H   UNL     1       6.976   1.698  36.096  0.00  0.00    +0.149 HD
ATOM     13  C   UNL     1       8.919   1.260  35.782  0.00  0.00    +0.210 C 
ATOM     14  C   UNL     1      10.306   1.901  35.587  0.00  0.00    +0.109 C 
ATOM     15  O   UNL     1       8.791   0.036  35.785  0.00  0.00    -0.276 OA
ENDBRANCH  10  11
BRANCH   7  16
ATOM     16  C   UNL     1       5.287   6.064  36.287  0.00  0.00    +0.414 C 
ATOM     17  O   UNL     1       4.830   6.144  37.427  0.00  0.00    -0.240 OA
ATOM     18  O   UNL     1       4.524   5.831  35.348  0.00  0.00    -0.240 OA
ENDBRANCH   7  16
BRANCH   9  19
ATOM     19  O   UNL     1       8.431   3.674  38.306  0.00  0.00    -0.390 OA
ATOM     20  H   UNL     1       9.180   4.269  38.395  0.00  0.00    +0.210 HD
ENDBRANCH   9  19
BRANCH   7  21
ATOM     21  O   UNL     1       7.097   7.668  35.911  0.00  0.00    -0.343 OA
ATOM     22  C   UNL     1       7.447   8.101  34.572  0.00  0.00    +0.198 C 
ENDBRANCH   7  21
ENDBRANCH   4   5
BRANCH   4  23
ATOM     23  O   UNL     1       7.852   4.746  32.556  0.00  0.00    -0.387 OA
ATOM     24  H   UNL     1       8.428   4.436  31.852  0.00  0.00    +0.210 HD
ENDBRANCH   4  23
ENDBRANCH   1   4
BRANCH   1  25
ATOM     25  C   UNL     1       5.046   3.088  33.547  0.00  0.00    +0.141 C 
BRANCH  25  28
ATOM     26  C   UNL     1       2.976   3.243  32.206  0.00  0.00    +0.401 C 
ATOM     27  O   UNL     1       2.720   2.040  32.290  0.00  0.00    -0.226 OA
ATOM     28  N   UNL     1       4.046   3.817  32.757  0.00  0.00    -0.279 N 
ATOM     29  H   UNL     1       4.176   4.810  32.624  0.00  0.00    +0.152 HD
BRANCH  26  30
ATOM     30  O   UNL     1       2.090   4.092  31.473  0.00  0.00    -0.444 OA
BRANCH  30  31
ATOM     31  C   UNL     1       1.074   3.301  30.852  0.00  0.00    +0.292 C 
BRANCH  31  33
ATOM     32  N   UNL     1       0.108   3.859  28.646  0.00  0.00    -0.131 NA
ATOM     33  C   UNL     1       1.168   3.410  29.384  0.00  0.00    +0.120 A 
ATOM     34  C   UNL     1       2.226   3.151  28.540  0.00  0.00    +0.137 A 
ATOM     35  N   UNL     1       1.775   3.551  27.311  0.00  0.00    -0.247 N 
ATOM     36  N   UNL     1       0.489   3.939  27.380  0.00  0.00    -0.065 NA
BRANCH  35  37
ATOM     37  C   UNL     1       2.574   3.644  26.094  0.00  0.00    +0.184 C 
BRANCH  37  38
ATOM     38  C   UNL     1       2.232   2.653  25.007  0.00  0.00    +0.016 A 
ATOM     39  C   UNL     1       1.855   3.066  23.717  0.00  0.00    +0.137 A 
ATOM     40  C   UNL     1       1.546   2.135  22.725  0.00  0.00    +0.047 A 
ATOM     41  C   UNL     1       1.627   0.771  23.008  0.00  0.00    +0.004 A 
ATOM     42  C   UNL     1       1.984   0.342  24.285  0.00  0.00    +0.001 A 
ATOM     43  C   UNL     1       2.287   1.275  25.277  0.00  0.00    +0.009 A 
BRANCH  39  44
ATOM     44  O   UNL     1       1.724   4.459  23.505  0.00  0.00    -0.426 OA
BRANCH  44  45
ATOM     45  C   UNL     1       0.531   5.045  23.078  0.00  0.00    +0.309 C 
ATOM     46  O   UNL     1       0.352   5.703  22.061  0.00  0.00    -0.251 OA
ATOM     47  C   UNL     1      -0.562   4.679  24.038  0.00  0.00    +0.136 C 
ENDBRANCH  44  45
ENDBRANCH  39  44
ENDBRANCH  37  38
ENDBRANCH  35  37
ENDBRANCH  31  33
ENDBRANCH  30  31
ENDBRANCH  26  30
ENDBRANCH  25  28
ENDBRANCH   1  25
TORSDOF 17
