REMARK VINA RESULT:    -6.511      1.776      2.000
REMARK INTER + INTRA:         -15.175
REMARK INTER:                 -12.998
REMARK INTRA:                  -2.177
REMARK UNBOUND:                -1.813
REMARK  Name = lig_assembled_33.pdb
REMARK  22 active torsions:
REMARK  status: ('A' for Active; 'I' for Inactive)
REMARK    1  A    between atoms: _2  and  _9
REMARK    2  A    between atoms: _4  and  _20
REMARK    3  A    between atoms: _5  and  _13
REMARK    4  A    between atoms: _5  and  _14
REMARK    5  A    between atoms: _6  and  _7
REMARK    6  A    between atoms: _6  and  _20
REMARK    7  A    between atoms: _9  and  _10
REMARK    8  A    between atoms: _10  and  _11
REMARK    9  A    between atoms: _11  and  _12
REMARK   10  A    between atoms: _12  and  _13
REMARK   11  A    between atoms: _16  and  _36
REMARK   12  A    between atoms: _18  and  _24
REMARK   13  A    between atoms: _19  and  _23
REMARK   14  A    between atoms: _23  and  _24
REMARK   15  A    between atoms: _26  and  _27
REMARK   16  A    between atoms: _28  and  _29
REMARK   17  A    between atoms: _30  and  _32
REMARK   18  A    between atoms: _32  and  _33
REMARK   19  A    between atoms: _32  and  _34
REMARK   20  A    between atoms: _34  and  _35
REMARK   21  A    between atoms: _34  and  _36
REMARK   22  A    between atoms: _37  and  _39
REMARK                            x       y       z     vdW  Elec       q    Type
REMARK                         _______ _______ _______ _____ _____    ______ ____
ROOT
ATOM      1  C   UNL     1       3.379   3.636  32.485  0.00  0.00    +0.163 C 
ENDROOT
BRANCH   1   2
ATOM      2  O   UNL     1       2.592   4.001  33.630  0.00  0.00    -0.388 OA
ATOM      3  H   UNL     1       3.007   4.740  34.082  0.00  0.00    +0.210 HD
ENDBRANCH   1   2
BRANCH   1   4
ATOM      4  C   UNL     1       4.714   3.002  32.915  0.00  0.00    +0.175 C 
BRANCH   4   5
ATOM      5  C   UNL     1       5.299   3.677  34.164  0.00  0.00    +0.176 C 
ATOM      6  O   UNL     1       5.322   5.112  33.927  0.00  0.00    -0.332 OA
ATOM      7  C   UNL     1       5.755   5.935  35.060  0.00  0.00    +0.277 C 
ATOM      8  C   UNL     1       7.140   5.466  35.571  0.00  0.00    +0.110 C 
ATOM      9  C   UNL     1       7.174   3.941  35.807  0.00  0.00    +0.143 C 
ATOM     10  C   UNL     1       6.701   3.183  34.566  0.00  0.00    +0.133 C 
BRANCH  10  11
ATOM     11  N   UNL     1       6.655   1.737  34.833  0.00  0.00    -0.308 N 
ATOM     12  H   UNL     1       5.971   1.401  35.496  0.00  0.00    +0.149 HD
ATOM     13  C   UNL     1       7.457   0.839  34.255  0.00  0.00    +0.210 C 
ATOM     14  C   UNL     1       8.506   1.386  33.268  0.00  0.00    +0.109 C 
ATOM     15  O   UNL     1       7.386  -0.368  34.486  0.00  0.00    -0.276 OA
ENDBRANCH  10  11
BRANCH   7  16
ATOM     16  C   UNL     1       4.730   5.864  36.211  0.00  0.00    +0.414 C 
ATOM     17  O   UNL     1       3.574   5.504  35.990  0.00  0.00    -0.240 OA
ATOM     18  O   UNL     1       5.058   6.166  37.359  0.00  0.00    -0.240 OA
ENDBRANCH   7  16
BRANCH   9  19
ATOM     19  O   UNL     1       8.504   3.533  36.130  0.00  0.00    -0.390 OA
ATOM     20  H   UNL     1       8.504   3.082  36.977  0.00  0.00    +0.210 HD
ENDBRANCH   9  19
BRANCH   7  21
ATOM     21  O   UNL     1       5.878   7.305  34.599  0.00  0.00    -0.343 OA
ATOM     22  C   UNL     1       7.239   7.784  34.457  0.00  0.00    +0.198 C 
ENDBRANCH   7  21
ENDBRANCH   4   5
BRANCH   4  23
ATOM     23  O   UNL     1       5.662   3.056  31.830  0.00  0.00    -0.387 OA
ATOM     24  H   UNL     1       5.286   3.555  31.101  0.00  0.00    +0.210 HD
ENDBRANCH   4  23
ENDBRANCH   1   4
BRANCH   1  25
ATOM     25  C   UNL     1       2.606   2.653  31.612  0.00  0.00    +0.141 C 
BRANCH  25  28
ATOM     26  C   UNL     1       1.916   3.558  29.419  0.00  0.00    +0.401 C 
ATOM     27  O   UNL     1       0.833   3.983  29.830  0.00  0.00    -0.226 OA
ATOM     28  N   UNL     1       2.803   2.919  30.182  0.00  0.00    -0.279 N 
ATOM     29  H   UNL     1       3.660   2.599  29.752  0.00  0.00    +0.152 HD
BRANCH  26  30
ATOM     30  O   UNL     1       2.260   3.747  28.044  0.00  0.00    -0.444 OA
BRANCH  30  31
ATOM     31  C   UNL     1       1.212   3.238  27.215  0.00  0.00    +0.292 C 
BRANCH  31  33
ATOM     32  N   UNL     1       0.139   4.922  25.756  0.00  0.00    -0.131 NA
ATOM     33  C   UNL     1       1.134   4.002  25.956  0.00  0.00    +0.120 A 
ATOM     34  C   UNL     1       1.940   3.960  24.839  0.00  0.00    +0.137 A 
ATOM     35  N   UNL     1       1.388   4.882  24.004  0.00  0.00    -0.251 N 
ATOM     36  N   UNL     1       0.297   5.446  24.549  0.00  0.00    -0.065 NA
BRANCH  35  37
ATOM     37  C   UNL     1       1.828   5.270  22.679  0.00  0.00    +0.145 C 
BRANCH  37  38
ATOM     38  C   UNL     1       1.042   4.556  21.581  0.00  0.00    +0.023 C 
BRANCH  38  39
ATOM     39  C   UNL     1       1.947   3.958  20.502  0.00  0.00    +0.002 C 
BRANCH  39  40
ATOM     40  C   UNL     1       1.803   2.434  20.487  0.00  0.00    +0.011 C 
BRANCH  40  41
ATOM     41  C   UNL     1       0.880   1.916  21.586  0.00  0.00    +0.120 C 
BRANCH  41  42
ATOM     42  C   UNL     1       1.536   0.802  22.373  0.00  0.00    +0.305 C 
ATOM     43  O   UNL     1       1.119  -0.341  22.462  0.00  0.00    -0.251 OA
BRANCH  42  44
ATOM     44  O   UNL     1       2.673   1.205  22.986  0.00  0.00    -0.481 OA
ATOM     45  H   UNL     1       2.530   1.589  23.870  0.00  0.00    +0.295 HD
ENDBRANCH  42  44
ENDBRANCH  41  42
ENDBRANCH  40  41
ENDBRANCH  39  40
ENDBRANCH  38  39
ENDBRANCH  37  38
ENDBRANCH  35  37
ENDBRANCH  31  33
ENDBRANCH  30  31
ENDBRANCH  26  30
ENDBRANCH  25  28
ENDBRANCH   1  25
TORSDOF 20
