REMARK VINA RESULT:    -6.732     14.497     19.544
REMARK INTER + INTRA:         -14.641
REMARK INTER:                 -13.202
REMARK INTRA:                  -1.439
REMARK UNBOUND:                -2.597
REMARK  Name = lig_assembled_89.pdb
REMARK  19 active torsions:
REMARK  status: ('A' for Active; 'I' for Inactive)
REMARK    1  A    between atoms: _2  and  _12
REMARK    2  A    between atoms: _5  and  _20
REMARK    3  A    between atoms: _7  and  _29
REMARK    4  A    between atoms: _9  and  _10
REMARK    5  A    between atoms: _9  and  _29
REMARK    6  A    between atoms: _20  and  _21
REMARK    7  A    between atoms: _20  and  _22
REMARK    8  A    between atoms: _25  and  _45
REMARK    9  A    between atoms: _27  and  _33
REMARK   10  A    between atoms: _28  and  _32
REMARK   11  A    between atoms: _32  and  _33
REMARK   12  A    between atoms: _35  and  _36
REMARK   13  A    between atoms: _37  and  _38
REMARK   14  A    between atoms: _39  and  _41
REMARK   15  A    between atoms: _41  and  _42
REMARK   16  A    between atoms: _41  and  _43
REMARK   17  A    between atoms: _43  and  _44
REMARK   18  A    between atoms: _43  and  _45
REMARK   19  A    between atoms: _46  and  _48
REMARK                            x       y       z     vdW  Elec       q    Type
REMARK                         _______ _______ _______ _____ _____    ______ ____
ROOT
ATOM      1  C   UNL     1      18.632   4.892  25.107  0.00  0.00    +0.401 C 
ATOM      2  O   UNL     1      18.630   4.611  23.907  0.00  0.00    -0.226 OA
ATOM      3  N   UNL     1      18.629   3.985  26.085  0.00  0.00    -0.279 N 
ATOM      4  H   UNL     1      18.641   4.314  27.040  0.00  0.00    +0.152 HD
ENDROOT
BRANCH   3   5
ATOM      5  C   UNL     1      18.610   2.536  25.852  0.00  0.00    +0.141 C 
BRANCH   5   6
ATOM      6  C   UNL     1      17.207   1.956  25.993  0.00  0.00    +0.163 C 
BRANCH   6   7
ATOM      7  O   UNL     1      16.359   2.884  26.690  0.00  0.00    -0.388 OA
ATOM      8  H   UNL     1      15.442   2.620  26.585  0.00  0.00    +0.210 HD
ENDBRANCH   6   7
BRANCH   6   9
ATOM      9  C   UNL     1      16.641   1.633  24.600  0.00  0.00    +0.175 C 
BRANCH   9  10
ATOM     10  C   UNL     1      17.676   0.937  23.703  0.00  0.00    +0.176 C 
ATOM     11  O   UNL     1      17.650   1.587  22.403  0.00  0.00    -0.332 OA
ATOM     12  C   UNL     1      18.654   1.122  21.441  0.00  0.00    +0.277 C 
ATOM     13  C   UNL     1      18.559  -0.413  21.261  0.00  0.00    +0.110 C 
ATOM     14  C   UNL     1      18.551  -1.147  22.618  0.00  0.00    +0.143 C 
ATOM     15  C   UNL     1      17.472  -0.581  23.541  0.00  0.00    +0.133 C 
BRANCH  15  16
ATOM     16  N   UNL     1      17.531  -1.228  24.861  0.00  0.00    -0.308 N 
ATOM     17  H   UNL     1      18.310  -1.000  25.464  0.00  0.00    +0.149 HD
ATOM     18  C   UNL     1      16.624  -2.097  25.316  0.00  0.00    +0.210 C 
ATOM     19  C   UNL     1      15.463  -2.443  24.364  0.00  0.00    +0.109 C 
ATOM     20  O   UNL     1      16.691  -2.612  26.432  0.00  0.00    -0.276 OA
ENDBRANCH  15  16
BRANCH  12  21
ATOM     21  C   UNL     1      20.075   1.499  21.908  0.00  0.00    +0.414 C 
ATOM     22  O   UNL     1      20.233   2.268  22.855  0.00  0.00    -0.240 OA
ATOM     23  O   UNL     1      21.063   1.035  21.337  0.00  0.00    -0.240 OA
ENDBRANCH  12  21
BRANCH  14  24
ATOM     24  O   UNL     1      18.311  -2.540  22.412  0.00  0.00    -0.390 OA
ATOM     25  H   UNL     1      17.665  -2.653  21.711  0.00  0.00    +0.210 HD
ENDBRANCH  14  24
BRANCH  12  26
ATOM     26  O   UNL     1      18.377   1.750  20.163  0.00  0.00    -0.343 OA
ATOM     27  C   UNL     1      16.982   1.739  19.765  0.00  0.00    +0.198 C 
ENDBRANCH  12  26
ENDBRANCH   9  10
BRANCH   9  28
ATOM     28  O   UNL     1      16.165   2.837  23.966  0.00  0.00    -0.387 OA
ATOM     29  H   UNL     1      16.775   3.556  24.144  0.00  0.00    +0.210 HD
ENDBRANCH   9  28
ENDBRANCH   6   9
ENDBRANCH   5   6
ENDBRANCH   3   5
BRANCH   1  30
ATOM     30  O   UNL     1      18.641   6.267  25.498  0.00  0.00    -0.444 OA
BRANCH  30  31
ATOM     31  C   UNL     1      18.954   6.366  26.890  0.00  0.00    +0.292 C 
BRANCH  31  33
ATOM     32  N   UNL     1      19.187   8.753  26.321  0.00  0.00    -0.131 NA
ATOM     33  C   UNL     1      19.329   7.749  27.231  0.00  0.00    +0.121 A 
ATOM     34  C   UNL     1      19.819   8.273  28.403  0.00  0.00    +0.145 A 
ATOM     35  N   UNL     1      19.941   9.630  28.170  0.00  0.00    -0.199 N 
ATOM     36  N   UNL     1      19.552   9.889  26.900  0.00  0.00    -0.059 NA
BRANCH  35  37
ATOM     37  C   UNL     1      20.316  10.610  29.135  0.00  0.00    +0.186 A 
ATOM     38  C   UNL     1      19.664  11.013  30.283  0.00  0.00    +0.158 A 
ATOM     39  C   UNL     1      18.379  10.713  30.837  0.00  0.00    +0.280 A 
ATOM     40  O   UNL     1      17.463  10.263  30.161  0.00  0.00    -0.265 OA
ATOM     41  N   UNL     1      18.233  11.003  32.208  0.00  0.00    -0.302 N 
ATOM     42  C   UNL     1      19.126  11.941  32.851  0.00  0.00    +0.069 A 
ATOM     43  C   UNL     1      18.873  12.481  34.121  0.00  0.00    +0.028 A 
ATOM     44  C   UNL     1      19.734  13.427  34.692  0.00  0.00    +0.002 A 
ATOM     45  C   UNL     1      20.873  13.848  34.014  0.00  0.00    +0.002 A 
ATOM     46  C   UNL     1      21.162  13.323  32.759  0.00  0.00    +0.028 A 
ATOM     47  C   UNL     1      20.289  12.387  32.185  0.00  0.00    +0.072 A 
ATOM     48  N   UNL     1      20.547  11.845  30.916  0.00  0.00    -0.291 N 
ATOM     49  C   UNL     1      21.629  12.001  30.087  0.00  0.00    +0.207 A 
ATOM     50  N   UNL     1      21.530  11.258  29.005  0.00  0.00    -0.216 NA
BRANCH  41  51
ATOM     51  C   UNL     1      17.030  10.487  32.902  0.00  0.00    +0.085 C 
ATOM     52  C   UNL     1      16.803   8.975  32.707  0.00  0.00    +0.030 C 
ATOM     53  C   UNL     1      15.774  11.270  32.520  0.00  0.00    +0.030 C 
ENDBRANCH  41  51
ENDBRANCH  35  37
ENDBRANCH  31  33
ENDBRANCH  30  31
ENDBRANCH   1  30
TORSDOF 15
