REMARK VINA RESULT:    -5.049      6.603     11.767
REMARK INTER + INTRA:         -12.921
REMARK INTER:                 -11.243
REMARK INTRA:                  -1.678
REMARK UNBOUND:                -3.888
REMARK  Name = lig_assembled_46.pdb
REMARK  17 active torsions:
REMARK  status: ('A' for Active; 'I' for Inactive)
REMARK    1  A    between atoms: _2  and  _9
REMARK    2  A    between atoms: _4  and  _19
REMARK    3  A    between atoms: _6  and  _7
REMARK    4  A    between atoms: _6  and  _19
REMARK    5  A    between atoms: _9  and  _10
REMARK    6  A    between atoms: _15  and  _35
REMARK    7  A    between atoms: _17  and  _23
REMARK    8  A    between atoms: _18  and  _22
REMARK    9  A    between atoms: _22  and  _23
REMARK   10  A    between atoms: _25  and  _26
REMARK   11  A    between atoms: _27  and  _28
REMARK   12  A    between atoms: _29  and  _31
REMARK   13  A    between atoms: _31  and  _32
REMARK   14  A    between atoms: _31  and  _33
REMARK   15  A    between atoms: _33  and  _34
REMARK   16  A    between atoms: _33  and  _35
REMARK   17  A    between atoms: _36  and  _38
REMARK                            x       y       z     vdW  Elec       q    Type
REMARK                         _______ _______ _______ _____ _____    ______ ____
ROOT
ATOM      1  C   UNL     1       7.319   2.425  34.525  0.00  0.00    +0.163 C 
ENDROOT
BRANCH   1   2
ATOM      2  O   UNL     1       7.333   2.509  35.959  0.00  0.00    -0.388 OA
ATOM      3  H   UNL     1       8.188   2.222  36.289  0.00  0.00    +0.210 HD
ENDBRANCH   1   2
BRANCH   1   4
ATOM      4  C   UNL     1       8.239   1.301  34.059  0.00  0.00    +0.141 C 
BRANCH   4   7
ATOM      5  C   UNL     1      10.505   1.882  34.854  0.00  0.00    +0.401 C 
ATOM      6  O   UNL     1      10.260   1.621  36.034  0.00  0.00    -0.226 OA
ATOM      7  N   UNL     1       9.617   1.767  33.865  0.00  0.00    -0.279 N 
ATOM      8  H   UNL     1       9.910   2.014  32.930  0.00  0.00    +0.152 HD
BRANCH   5   9
ATOM      9  O   UNL     1      11.812   2.342  34.501  0.00  0.00    -0.444 OA
BRANCH   9  10
ATOM     10  C   UNL     1      12.637   2.379  35.669  0.00  0.00    +0.292 C 
BRANCH  10  12
ATOM     11  N   UNL     1      12.883   4.784  36.198  0.00  0.00    -0.131 NA
ATOM     12  C   UNL     1      13.422   3.627  35.704  0.00  0.00    +0.120 A 
ATOM     13  C   UNL     1      14.728   3.862  35.331  0.00  0.00    +0.137 A 
ATOM     14  N   UNL     1      14.942   5.165  35.678  0.00  0.00    -0.247 N 
ATOM     15  N   UNL     1      13.825   5.720  36.187  0.00  0.00    -0.065 NA
BRANCH  14  16
ATOM     16  C   UNL     1      16.216   5.854  35.789  0.00  0.00    +0.180 C 
BRANCH  16  17
ATOM     17  C   UNL     1      16.524   6.754  34.618  0.00  0.00    -0.026 A 
ATOM     18  C   UNL     1      17.202   6.265  33.491  0.00  0.00    +0.005 A 
ATOM     19  C   UNL     1      17.397   7.080  32.373  0.00  0.00    +0.000 A 
ATOM     20  C   UNL     1      16.916   8.387  32.367  0.00  0.00    +0.000 A 
ATOM     21  C   UNL     1      16.249   8.888  33.483  0.00  0.00    +0.000 A 
ATOM     22  C   UNL     1      16.053   8.076  34.602  0.00  0.00    +0.005 A 
ENDBRANCH  16  17
ENDBRANCH  14  16
ENDBRANCH  10  12
ENDBRANCH   9  10
ENDBRANCH   5   9
ENDBRANCH   4   7
ENDBRANCH   1   4
BRANCH   1  23
ATOM     23  C   UNL     1       7.769   3.753  33.892  0.00  0.00    +0.175 C 
BRANCH  23  24
ATOM     24  C   UNL     1       7.141   4.968  34.591  0.00  0.00    +0.176 C 
ATOM     25  O   UNL     1       7.829   5.160  35.858  0.00  0.00    -0.332 OA
ATOM     26  C   UNL     1       7.432   6.347  36.621  0.00  0.00    +0.277 C 
ATOM     27  C   UNL     1       5.900   6.356  36.850  0.00  0.00    +0.110 C 
ATOM     28  C   UNL     1       5.126   6.123  35.536  0.00  0.00    +0.143 C 
ATOM     29  C   UNL     1       5.622   4.865  34.822  0.00  0.00    +0.133 C 
BRANCH  29  30
ATOM     30  N   UNL     1       4.938   4.702  33.530  0.00  0.00    -0.308 N 
ATOM     31  H   UNL     1       5.158   5.358  32.794  0.00  0.00    +0.149 HD
ATOM     32  C   UNL     1       4.046   3.743  33.266  0.00  0.00    +0.210 C 
ATOM     33  C   UNL     1       3.713   2.775  34.416  0.00  0.00    +0.109 C 
ATOM     34  O   UNL     1       3.499   3.622  32.169  0.00  0.00    -0.276 OA
ENDBRANCH  29  30
BRANCH  26  35
ATOM     35  C   UNL     1       7.850   7.636  35.884  0.00  0.00    +0.414 C 
ATOM     36  O   UNL     1       7.842   7.678  34.655  0.00  0.00    -0.240 OA
ATOM     37  O   UNL     1       8.194   8.634  36.519  0.00  0.00    -0.240 OA
ENDBRANCH  26  35
BRANCH  26  38
ATOM     38  O   UNL     1       8.087   6.289  37.914  0.00  0.00    -0.343 OA
ATOM     39  C   UNL     1       7.308   5.670  38.968  0.00  0.00    +0.198 C 
ENDBRANCH  26  38
BRANCH  28  40
ATOM     40  O   UNL     1       3.732   5.988  35.815  0.00  0.00    -0.390 OA
ATOM     41  H   UNL     1       3.223   6.278  35.054  0.00  0.00    +0.210 HD
ENDBRANCH  28  40
ENDBRANCH  23  24
BRANCH  23  42
ATOM     42  O   UNL     1       7.448   3.768  32.487  0.00  0.00    -0.387 OA
ATOM     43  H   UNL     1       7.623   2.902  32.109  0.00  0.00    +0.210 HD
ENDBRANCH  23  42
ENDBRANCH   1  23
TORSDOF 15
