REMARK VINA RESULT:    -5.890     14.559     18.093
REMARK INTER + INTRA:         -12.785
REMARK INTER:                 -10.306
REMARK INTRA:                  -2.480
REMARK UNBOUND:                -2.246
REMARK  Name = lig_assembled_5.pdb
REMARK  18 active torsions:
REMARK  status: ('A' for Active; 'I' for Inactive)
REMARK    1  A    between atoms: _2  and  _9
REMARK    2  A    between atoms: _4  and  _20
REMARK    3  A    between atoms: _6  and  _7
REMARK    4  A    between atoms: _6  and  _20
REMARK    5  A    between atoms: _12  and  _15
REMARK    6  A    between atoms: _13  and  _15
REMARK    7  A    between atoms: _16  and  _36
REMARK    8  A    between atoms: _18  and  _24
REMARK    9  A    between atoms: _19  and  _23
REMARK   10  A    between atoms: _23  and  _24
REMARK   11  A    between atoms: _26  and  _27
REMARK   12  A    between atoms: _28  and  _29
REMARK   13  A    between atoms: _30  and  _32
REMARK   14  A    between atoms: _32  and  _33
REMARK   15  A    between atoms: _32  and  _34
REMARK   16  A    between atoms: _34  and  _35
REMARK   17  A    between atoms: _34  and  _36
REMARK   18  A    between atoms: _37  and  _39
REMARK                            x       y       z     vdW  Elec       q    Type
REMARK                         _______ _______ _______ _____ _____    ______ ____
ROOT
ATOM      1  C   UNL     1      17.002   2.468  23.033  0.00  0.00    +0.163 C 
ENDROOT
BRANCH   1   2
ATOM      2  O   UNL     1      17.521   1.628  21.989  0.00  0.00    -0.388 OA
ATOM      3  H   UNL     1      18.478   1.697  21.969  0.00  0.00    +0.210 HD
ENDBRANCH   1   2
BRANCH   1   4
ATOM      4  C   UNL     1      17.339   3.927  22.743  0.00  0.00    +0.141 C 
BRANCH   4   7
ATOM      5  C   UNL     1      18.635   5.754  23.786  0.00  0.00    +0.401 C 
ATOM      6  O   UNL     1      18.147   6.634  23.074  0.00  0.00    -0.226 OA
ATOM      7  N   UNL     1      18.320   4.462  23.696  0.00  0.00    -0.279 N 
ATOM      8  H   UNL     1      18.782   3.814  24.318  0.00  0.00    +0.152 HD
BRANCH   5   9
ATOM      9  O   UNL     1      19.604   6.118  24.773  0.00  0.00    -0.444 OA
BRANCH   9  10
ATOM     10  C   UNL     1      19.531   5.206  25.873  0.00  0.00    +0.292 C 
BRANCH  10  12
ATOM     11  N   UNL     1      20.651   5.694  28.025  0.00  0.00    -0.131 NA
ATOM     12  C   UNL     1      19.631   5.936  27.151  0.00  0.00    +0.121 A 
ATOM     13  C   UNL     1      18.814   6.911  27.673  0.00  0.00    +0.143 A 
ATOM     14  N   UNL     1      19.396   7.261  28.870  0.00  0.00    -0.220 N 
ATOM     15  N   UNL     1      20.498   6.497  29.069  0.00  0.00    -0.060 NA
BRANCH  14  16
ATOM     16  C   UNL     1      18.999   8.265  29.791  0.00  0.00    +0.067 A 
ATOM     17  C   UNL     1      18.149   7.960  30.862  0.00  0.00    +0.031 A 
ATOM     18  C   UNL     1      17.721   8.974  31.721  0.00  0.00    +0.048 A 
ATOM     19  C   UNL     1      18.145  10.292  31.543  0.00  0.00    +0.120 A 
ATOM     20  C   UNL     1      19.004  10.596  30.488  0.00  0.00    +0.048 A 
ATOM     21  C   UNL     1      19.431   9.588  29.613  0.00  0.00    +0.031 A 
BRANCH  19  22
ATOM     22  O   UNL     1      17.602  11.194  32.416  0.00  0.00    -0.495 OA
ATOM     23  C   UNL     1      16.195  11.125  32.600  0.00  0.00    +0.277 C 
ENDBRANCH  19  22
ENDBRANCH  14  16
ENDBRANCH  10  12
ENDBRANCH   9  10
ENDBRANCH   5   9
ENDBRANCH   4   7
ENDBRANCH   1   4
BRANCH   1  24
ATOM     24  C   UNL     1      17.581   2.069  24.401  0.00  0.00    +0.175 C 
BRANCH  24  25
ATOM     25  C   UNL     1      17.961   0.582  24.455  0.00  0.00    +0.176 C 
ATOM     26  O   UNL     1      16.772  -0.196  24.144  0.00  0.00    -0.332 OA
ATOM     27  C   UNL     1      16.969  -1.645  24.045  0.00  0.00    +0.277 C 
ATOM     28  C   UNL     1      17.628  -2.190  25.336  0.00  0.00    +0.110 C 
ATOM     29  C   UNL     1      18.880  -1.375  25.724  0.00  0.00    +0.143 C 
ATOM     30  C   UNL     1      18.562   0.119  25.795  0.00  0.00    +0.133 C 
BRANCH  30  31
ATOM     31  N   UNL     1      19.780   0.892  26.081  0.00  0.00    -0.308 N 
ATOM     32  H   UNL     1      20.544   0.828  25.423  0.00  0.00    +0.149 HD
ATOM     33  C   UNL     1      19.942   1.673  27.153  0.00  0.00    +0.210 C 
ATOM     34  C   UNL     1      18.769   1.729  28.149  0.00  0.00    +0.109 C 
ATOM     35  O   UNL     1      20.969   2.321  27.358  0.00  0.00    -0.276 OA
ENDBRANCH  30  31
BRANCH  27  36
ATOM     36  C   UNL     1      17.851  -1.995  22.828  0.00  0.00    +0.414 C 
ATOM     37  O   UNL     1      18.012  -1.177  21.923  0.00  0.00    -0.240 OA
ATOM     38  O   UNL     1      18.401  -3.094  22.752  0.00  0.00    -0.240 OA
ENDBRANCH  27  36
BRANCH  27  39
ATOM     39  O   UNL     1      15.667  -2.266  23.899  0.00  0.00    -0.343 OA
ATOM     40  C   UNL     1      15.448  -3.434  24.730  0.00  0.00    +0.198 C 
ENDBRANCH  27  39
BRANCH  29  41
ATOM     41  O   UNL     1      19.365  -1.814  26.994  0.00  0.00    -0.390 OA
ATOM     42  H   UNL     1      19.003  -1.255  27.686  0.00  0.00    +0.210 HD
ENDBRANCH  29  41
ENDBRANCH  24  25
BRANCH  24  43
ATOM     43  O   UNL     1      16.640   2.380  25.448  0.00  0.00    -0.387 OA
ATOM     44  H   UNL     1      15.969   1.695  25.489  0.00  0.00    +0.210 HD
ENDBRANCH  24  43
ENDBRANCH   1  24
TORSDOF 15
