REMARK VINA RESULT:    -5.797     19.402     22.030
REMARK INTER + INTRA:         -12.789
REMARK INTER:                 -10.126
REMARK INTRA:                  -2.663
REMARK UNBOUND:                -2.078
REMARK  Name = lig_assembled_14.pdb
REMARK  18 active torsions:
REMARK  status: ('A' for Active; 'I' for Inactive)
REMARK    1  A    between atoms: _2  and  _10
REMARK    2  A    between atoms: _3  and  _11
REMARK    3  A    between atoms: _5  and  _19
REMARK    4  A    between atoms: _7  and  _8
REMARK    5  A    between atoms: _7  and  _19
REMARK    6  A    between atoms: _10  and  _11
REMARK    7  A    between atoms: _15  and  _35
REMARK    8  A    between atoms: _17  and  _23
REMARK    9  A    between atoms: _18  and  _22
REMARK   10  A    between atoms: _22  and  _23
REMARK   11  A    between atoms: _25  and  _26
REMARK   12  A    between atoms: _27  and  _28
REMARK   13  A    between atoms: _29  and  _31
REMARK   14  A    between atoms: _31  and  _32
REMARK   15  A    between atoms: _31  and  _33
REMARK   16  A    between atoms: _33  and  _34
REMARK   17  A    between atoms: _33  and  _35
REMARK   18  A    between atoms: _36  and  _38
REMARK                            x       y       z     vdW  Elec       q    Type
REMARK                         _______ _______ _______ _____ _____    ______ ____
ROOT
ATOM      1  C   UNL     1      11.903  26.368  21.826  0.00  0.00    +0.163 C 
ENDROOT
BRANCH   1   2
ATOM      2  O   UNL     1      11.833  27.796  21.679  0.00  0.00    -0.388 OA
ATOM      3  H   UNL     1      12.604  28.107  21.198  0.00  0.00    +0.210 HD
ENDBRANCH   1   2
BRANCH   1   4
ATOM      4  C   UNL     1      10.727  25.843  22.667  0.00  0.00    +0.175 C 
BRANCH   4   5
ATOM      5  C   UNL     1      11.186  25.304  24.030  0.00  0.00    +0.176 C 
ATOM      6  O   UNL     1      12.473  24.653  23.842  0.00  0.00    -0.332 OA
ATOM      7  C   UNL     1      13.121  24.166  25.064  0.00  0.00    +0.277 C 
ATOM      8  C   UNL     1      12.168  23.227  25.844  0.00  0.00    +0.110 C 
ATOM      9  C   UNL     1      10.776  23.863  26.040  0.00  0.00    +0.143 C 
ATOM     10  C   UNL     1      10.197  24.337  24.707  0.00  0.00    +0.133 C 
BRANCH  10  11
ATOM     11  N   UNL     1       8.910  25.019  24.918  0.00  0.00    -0.308 N 
ATOM     12  H   UNL     1       8.922  25.915  25.385  0.00  0.00    +0.149 HD
ATOM     13  C   UNL     1       7.728  24.532  24.532  0.00  0.00    +0.210 C 
ATOM     14  C   UNL     1       7.740  23.153  23.847  0.00  0.00    +0.109 C 
ATOM     15  O   UNL     1       6.667  25.132  24.709  0.00  0.00    -0.276 OA
ENDBRANCH  10  11
BRANCH   7  16
ATOM     16  C   UNL     1      13.539  25.343  25.968  0.00  0.00    +0.414 C 
ATOM     17  O   UNL     1      13.587  25.201  27.189  0.00  0.00    -0.240 OA
ATOM     18  O   UNL     1      13.828  26.435  25.477  0.00  0.00    -0.240 OA
ENDBRANCH   7  16
BRANCH   9  19
ATOM     19  O   UNL     1       9.889  22.910  26.626  0.00  0.00    -0.390 OA
ATOM     20  H   UNL     1       8.983  23.131  26.397  0.00  0.00    +0.210 HD
ENDBRANCH   9  19
BRANCH   7  21
ATOM     21  O   UNL     1      14.295  23.407  24.676  0.00  0.00    -0.343 OA
ATOM     22  C   UNL     1      14.531  22.205  25.452  0.00  0.00    +0.198 C 
ENDBRANCH   7  21
ENDBRANCH   4   5
BRANCH   4  23
ATOM     23  O   UNL     1      10.015  24.821  21.942  0.00  0.00    -0.387 OA
ATOM     24  H   UNL     1       9.577  25.212  21.183  0.00  0.00    +0.210 HD
ENDBRANCH   4  23
ENDBRANCH   1   4
BRANCH   1  25
ATOM     25  C   UNL     1      11.886  25.701  20.455  0.00  0.00    +0.141 C 
BRANCH  25  28
ATOM     26  C   UNL     1      12.574  23.561  19.427  0.00  0.00    +0.401 C 
ATOM     27  O   UNL     1      12.190  23.873  18.297  0.00  0.00    -0.226 OA
ATOM     28  N   UNL     1      12.466  24.352  20.495  0.00  0.00    -0.279 N 
ATOM     29  H   UNL     1      12.801  24.004  21.382  0.00  0.00    +0.152 HD
BRANCH  26  30
ATOM     30  O   UNL     1      13.171  22.278  19.628  0.00  0.00    -0.444 OA
BRANCH  30  31
ATOM     31  C   UNL     1      14.519  22.297  19.151  0.00  0.00    +0.292 C 
BRANCH  31  33
ATOM     32  N   UNL     1      15.959  20.856  20.556  0.00  0.00    -0.131 NA
ATOM     33  C   UNL     1      15.463  22.100  20.267  0.00  0.00    +0.120 A 
ATOM     34  C   UNL     1      15.979  23.010  21.163  0.00  0.00    +0.137 A 
ATOM     35  N   UNL     1      16.768  22.255  21.975  0.00  0.00    -0.250 N 
ATOM     36  N   UNL     1      16.762  20.964  21.604  0.00  0.00    -0.065 NA
BRANCH  35  37
ATOM     37  C   UNL     1      17.508  22.675  23.146  0.00  0.00    +0.160 C 
BRANCH  37  38
ATOM     38  C   UNL     1      18.933  22.111  23.154  0.00  0.00    +0.107 C 
BRANCH  38  39
ATOM     39  N   UNL     1      19.390  21.719  24.499  0.00  0.00    -0.301 NA
ATOM     40  C   UNL     1      20.738  22.203  24.812  0.00  0.00    +0.084 C 
ATOM     41  C   UNL     1      20.799  22.050  26.319  0.00  0.00    +0.017 C 
ATOM     42  C   UNL     1      19.404  22.433  26.778  0.00  0.00    +0.017 C 
ATOM     43  C   UNL     1      18.516  22.260  25.550  0.00  0.00    +0.084 C 
ENDBRANCH  38  39
ENDBRANCH  37  38
ENDBRANCH  35  37
ENDBRANCH  31  33
ENDBRANCH  30  31
ENDBRANCH  26  30
ENDBRANCH  25  28
ENDBRANCH   1  25
TORSDOF 16
