REMARK VINA RESULT:    -6.561     14.412     17.206
REMARK INTER + INTRA:         -14.260
REMARK INTER:                 -13.053
REMARK INTRA:                  -1.207
REMARK UNBOUND:                -2.138
REMARK  Name = lig_assembled_92.pdb
REMARK  18 active torsions:
REMARK  status: ('A' for Active; 'I' for Inactive)
REMARK    1  A    between atoms: _2  and  _11
REMARK    2  A    between atoms: _3  and  _46
REMARK    3  A    between atoms: _6  and  _25
REMARK    4  A    between atoms: _8  and  _9
REMARK    5  A    between atoms: _8  and  _25
REMARK    6  A    between atoms: _14  and  _46
REMARK    7  A    between atoms: _21  and  _41
REMARK    8  A    between atoms: _23  and  _29
REMARK    9  A    between atoms: _24  and  _28
REMARK   10  A    between atoms: _28  and  _29
REMARK   11  A    between atoms: _31  and  _32
REMARK   12  A    between atoms: _33  and  _34
REMARK   13  A    between atoms: _35  and  _37
REMARK   14  A    between atoms: _37  and  _38
REMARK   15  A    between atoms: _37  and  _39
REMARK   16  A    between atoms: _39  and  _40
REMARK   17  A    between atoms: _39  and  _41
REMARK   18  A    between atoms: _42  and  _44
REMARK                            x       y       z     vdW  Elec       q    Type
REMARK                         _______ _______ _______ _____ _____    ______ ____
ROOT
ATOM      1  C   UNL     1       1.370   3.208  30.060  0.00  0.00    +0.401 C 
ATOM      2  O   UNL     1       2.163   2.292  29.830  0.00  0.00    -0.226 OA
ATOM      3  N   UNL     1       1.026   3.606  31.285  0.00  0.00    -0.279 N 
ATOM      4  H   UNL     1       0.374   4.374  31.371  0.00  0.00    +0.152 HD
ENDROOT
BRANCH   3   5
ATOM      5  C   UNL     1       1.539   2.992  32.515  0.00  0.00    +0.141 C 
BRANCH   5   6
ATOM      6  C   UNL     1       2.674   3.807  33.127  0.00  0.00    +0.163 C 
BRANCH   6   7
ATOM      7  O   UNL     1       2.445   3.990  34.533  0.00  0.00    -0.388 OA
ATOM      8  H   UNL     1       3.265   4.252  34.960  0.00  0.00    +0.210 HD
ENDBRANCH   6   7
BRANCH   6   9
ATOM      9  C   UNL     1       4.013   3.092  32.876  0.00  0.00    +0.175 C 
BRANCH   9  10
ATOM     10  C   UNL     1       5.112   3.568  33.837  0.00  0.00    +0.176 C 
ATOM     11  O   UNL     1       4.991   5.011  33.974  0.00  0.00    -0.332 OA
ATOM     12  C   UNL     1       5.898   5.634  34.942  0.00  0.00    +0.277 C 
ATOM     13  C   UNL     1       7.367   5.259  34.627  0.00  0.00    +0.110 C 
ATOM     14  C   UNL     1       7.539   3.737  34.441  0.00  0.00    +0.143 C 
ATOM     15  C   UNL     1       6.545   3.194  33.414  0.00  0.00    +0.133 C 
BRANCH  15  16
ATOM     16  N   UNL     1       6.659   1.730  33.310  0.00  0.00    -0.308 N 
ATOM     17  H   UNL     1       6.860   1.337  32.402  0.00  0.00    +0.149 HD
ATOM     18  C   UNL     1       6.516   0.889  34.338  0.00  0.00    +0.210 C 
ATOM     19  C   UNL     1       6.184   1.519  35.704  0.00  0.00    +0.109 C 
ATOM     20  O   UNL     1       6.632  -0.332  34.224  0.00  0.00    -0.276 OA
ENDBRANCH  15  16
BRANCH  12  21
ATOM     21  C   UNL     1       5.551   5.193  36.379  0.00  0.00    +0.414 C 
ATOM     22  O   UNL     1       6.447   4.963  37.191  0.00  0.00    -0.240 OA
ATOM     23  O   UNL     1       4.376   5.066  36.727  0.00  0.00    -0.240 OA
ENDBRANCH  12  21
BRANCH  14  24
ATOM     24  O   UNL     1       8.869   3.452  34.004  0.00  0.00    -0.390 OA
ATOM     25  H   UNL     1       9.307   2.895  34.652  0.00  0.00    +0.210 HD
ENDBRANCH  14  24
BRANCH  12  26
ATOM     26  O   UNL     1       5.759   7.074  34.827  0.00  0.00    -0.343 OA
ATOM     27  C   UNL     1       6.969   7.778  34.452  0.00  0.00    +0.198 C 
ENDBRANCH  12  26
ENDBRANCH   9  10
BRANCH   9  28
ATOM     28  O   UNL     1       4.430   3.284  31.509  0.00  0.00    -0.387 OA
ATOM     29  H   UNL     1       5.002   4.053  31.454  0.00  0.00    +0.210 HD
ENDBRANCH   9  28
ENDBRANCH   6   9
ENDBRANCH   5   6
ENDBRANCH   3   5
BRANCH   1  30
ATOM     30  O   UNL     1       0.775   3.903  28.961  0.00  0.00    -0.444 OA
BRANCH  30  31
ATOM     31  C   UNL     1       0.381   2.963  27.958  0.00  0.00    +0.292 C 
BRANCH  31  33
ATOM     32  N   UNL     1       2.236   3.914  26.617  0.00  0.00    -0.131 NA
ATOM     33  C   UNL     1       1.028   3.282  26.671  0.00  0.00    +0.121 A 
ATOM     34  C   UNL     1       0.598   3.026  25.391  0.00  0.00    +0.143 A 
ATOM     35  N   UNL     1       1.602   3.499  24.576  0.00  0.00    -0.220 N 
ATOM     36  N   UNL     1       2.576   4.048  25.340  0.00  0.00    -0.060 NA
BRANCH  35  37
ATOM     37  C   UNL     1       1.696   3.427  23.164  0.00  0.00    +0.067 A 
ATOM     38  C   UNL     1       1.652   4.596  22.388  0.00  0.00    +0.030 A 
ATOM     39  C   UNL     1       1.685   4.517  20.997  0.00  0.00    +0.031 A 
ATOM     40  C   UNL     1       1.775   3.271  20.374  0.00  0.00    +0.109 A 
ATOM     41  C   UNL     1       1.829   2.098  21.131  0.00  0.00    +0.031 A 
ATOM     42  C   UNL     1       1.800   2.177  22.528  0.00  0.00    +0.030 A 
BRANCH  40  43
ATOM     43  S   UNL     1       1.661   3.200  18.605  0.00  0.00    +0.074 S 
ATOM     44  O   UNL     1       0.271   3.413  18.249  0.00  0.00    -0.150 OA
ATOM     45  O   UNL     1       2.690   4.042  18.043  0.00  0.00    -0.150 OA
BRANCH  43  46
ATOM     46  N   UNL     1       1.958   1.575  18.256  0.00  0.00    -0.194 N 
ATOM     47  H   UNL     1       1.052   1.114  18.259  0.00  0.00    +0.176 HD
ATOM     48  C   UNL     1       2.669   1.413  17.049  0.00  0.00    +0.177 A 
ATOM     49  S   UNL     1       1.899   1.044  15.568  0.00  0.00    -0.059 S 
ATOM     50  C   UNL     1       3.441   0.921  14.825  0.00  0.00    +0.068 A 
ATOM     51  C   UNL     1       4.425   1.092  15.776  0.00  0.00    +0.120 A 
ATOM     52  N   UNL     1       3.978   1.407  17.047  0.00  0.00    -0.232 NA
ENDBRANCH  43  46
ENDBRANCH  40  43
ENDBRANCH  35  37
ENDBRANCH  31  33
ENDBRANCH  30  31
ENDBRANCH   1  30
TORSDOF 16
