REMARK VINA RESULT:    -5.584     14.424     17.582
REMARK INTER + INTRA:         -12.600
REMARK INTER:                 -11.025
REMARK INTRA:                  -1.575
REMARK UNBOUND:                -2.936
REMARK  Name = lig_assembled_93.pdb
REMARK  16 active torsions:
REMARK  status: ('A' for Active; 'I' for Inactive)
REMARK    1  A    between atoms: _2  and  _9
REMARK    2  A    between atoms: _4  and  _18
REMARK    3  A    between atoms: _6  and  _7
REMARK    4  A    between atoms: _6  and  _18
REMARK    5  A    between atoms: _14  and  _34
REMARK    6  A    between atoms: _16  and  _22
REMARK    7  A    between atoms: _17  and  _21
REMARK    8  A    between atoms: _21  and  _22
REMARK    9  A    between atoms: _24  and  _25
REMARK   10  A    between atoms: _26  and  _27
REMARK   11  A    between atoms: _28  and  _30
REMARK   12  A    between atoms: _30  and  _31
REMARK   13  A    between atoms: _30  and  _32
REMARK   14  A    between atoms: _32  and  _33
REMARK   15  A    between atoms: _32  and  _34
REMARK   16  A    between atoms: _35  and  _37
REMARK                            x       y       z     vdW  Elec       q    Type
REMARK                         _______ _______ _______ _____ _____    ______ ____
ROOT
ATOM      1  C   UNL     1      18.528   5.729  23.975  0.00  0.00    +0.163 C 
ENDROOT
BRANCH   1   2
ATOM      2  O   UNL     1      17.598   5.853  22.886  0.00  0.00    -0.388 OA
ATOM      3  H   UNL     1      17.252   4.986  22.660  0.00  0.00    +0.210 HD
ENDBRANCH   1   2
BRANCH   1   4
ATOM      4  C   UNL     1      19.583   6.827  23.887  0.00  0.00    +0.141 C 
BRANCH   4   7
ATOM      5  C   UNL     1      20.105   7.627  26.166  0.00  0.00    +0.401 C 
ATOM      6  O   UNL     1      20.832   6.669  26.438  0.00  0.00    -0.226 OA
ATOM      7  N   UNL     1      19.476   7.779  25.000  0.00  0.00    -0.279 N 
ATOM      8  H   UNL     1      18.893   8.594  24.875  0.00  0.00    +0.152 HD
BRANCH   5   9
ATOM      9  O   UNL     1      19.906   8.648  27.148  0.00  0.00    -0.444 OA
BRANCH   9  10
ATOM     10  C   UNL     1      19.796   8.050  28.443  0.00  0.00    +0.292 C 
BRANCH  10  12
ATOM     11  N   UNL     1      18.086   9.782  28.854  0.00  0.00    -0.131 NA
ATOM     12  C   UNL     1      19.017   8.921  29.343  0.00  0.00    +0.121 A 
ATOM     13  C   UNL     1      19.050   9.034  30.713  0.00  0.00    +0.143 A 
ATOM     14  N   UNL     1      18.093   9.983  31.032  0.00  0.00    -0.219 N 
ATOM     15  N   UNL     1      17.541  10.420  29.879  0.00  0.00    -0.060 NA
BRANCH  14  16
ATOM     16  C   UNL     1      17.704  10.445  32.329  0.00  0.00    +0.080 A 
ATOM     17  C   UNL     1      18.187  11.709  32.746  0.00  0.00    +0.029 A 
ATOM     18  C   UNL     1      17.877  12.237  34.002  0.00  0.00    +0.002 A 
ATOM     19  C   UNL     1      17.077  11.522  34.876  0.00  0.00    +0.001 A 
ATOM     20  C   UNL     1      16.581  10.278  34.490  0.00  0.00    +0.016 A 
ATOM     21  C   UNL     1      16.882   9.729  33.225  0.00  0.00    +0.039 A 
ATOM     22  I   UNL     1      15.981   7.837  32.934  0.00  0.00    -0.042 I 
ENDBRANCH  14  16
ENDBRANCH  10  12
ENDBRANCH   9  10
ENDBRANCH   5   9
ENDBRANCH   4   7
ENDBRANCH   1   4
BRANCH   1  23
ATOM     23  C   UNL     1      19.215   4.353  23.958  0.00  0.00    +0.175 C 
BRANCH  23  24
ATOM     24  C   UNL     1      18.444   3.311  24.781  0.00  0.00    +0.176 C 
ATOM     25  O   UNL     1      19.311   2.863  25.859  0.00  0.00    -0.332 OA
ATOM     26  C   UNL     1      18.703   1.937  26.819  0.00  0.00    +0.277 C 
ATOM     27  C   UNL     1      18.105   0.712  26.085  0.00  0.00    +0.110 C 
ATOM     28  C   UNL     1      17.200   1.139  24.909  0.00  0.00    +0.143 C 
ATOM     29  C   UNL     1      17.932   2.103  23.976  0.00  0.00    +0.133 C 
BRANCH  29  30
ATOM     30  N   UNL     1      17.032   2.570  22.909  0.00  0.00    -0.308 N 
ATOM     31  H   UNL     1      16.261   3.168  23.170  0.00  0.00    +0.149 HD
ATOM     32  C   UNL     1      17.168   2.255  21.618  0.00  0.00    +0.210 C 
ATOM     33  C   UNL     1      18.338   1.321  21.256  0.00  0.00    +0.109 C 
ATOM     34  O   UNL     1      16.408   2.673  20.744  0.00  0.00    -0.276 OA
ENDBRANCH  29  30
BRANCH  26  35
ATOM     35  C   UNL     1      17.597   2.641  27.632  0.00  0.00    +0.414 C 
ATOM     36  O   UNL     1      16.422   2.567  27.274  0.00  0.00    -0.240 OA
ATOM     37  O   UNL     1      17.879   3.282  28.645  0.00  0.00    -0.240 OA
ENDBRANCH  26  35
BRANCH  28  38
ATOM     38  O   UNL     1      16.794  -0.014  24.171  0.00  0.00    -0.390 OA
ATOM     39  H   UNL     1      16.508   0.251  23.294  0.00  0.00    +0.210 HD
ENDBRANCH  28  38
BRANCH  26  40
ATOM     40  O   UNL     1      19.744   1.470  27.714  0.00  0.00    -0.343 OA
ATOM     41  C   UNL     1      19.533   0.143  28.260  0.00  0.00    +0.198 C 
ENDBRANCH  26  40
ENDBRANCH  23  24
BRANCH  23  42
ATOM     42  O   UNL     1      20.568   4.468  24.442  0.00  0.00    -0.387 OA
ATOM     43  H   UNL     1      20.632   4.067  25.312  0.00  0.00    +0.210 HD
ENDBRANCH  23  42
ENDBRANCH   1  23
TORSDOF 14
