REMARK VINA RESULT:    -6.430      1.780      3.155
REMARK INTER + INTRA:         -16.329
REMARK INTER:                 -13.165
REMARK INTRA:                  -3.164
REMARK UNBOUND:                -3.133
REMARK  Name = lig_assembled_90.pdb
REMARK  22 active torsions:
REMARK  status: ('A' for Active; 'I' for Inactive)
REMARK    1  A    between atoms: _2  and  _13
REMARK    2  A    between atoms: _3  and  _15
REMARK    3  A    between atoms: _4  and  _17
REMARK    4  A    between atoms: _8  and  _28
REMARK    5  A    between atoms: _10  and  _11
REMARK    6  A    between atoms: _10  and  _28
REMARK    7  A    between atoms: _13  and  _14
REMARK    8  A    between atoms: _15  and  _16
REMARK    9  A    between atoms: _16  and  _17
REMARK   10  A    between atoms: _16  and  _22
REMARK   11  A    between atoms: _24  and  _44
REMARK   12  A    between atoms: _26  and  _32
REMARK   13  A    between atoms: _27  and  _31
REMARK   14  A    between atoms: _31  and  _32
REMARK   15  A    between atoms: _34  and  _35
REMARK   16  A    between atoms: _36  and  _37
REMARK   17  A    between atoms: _38  and  _40
REMARK   18  A    between atoms: _40  and  _41
REMARK   19  A    between atoms: _40  and  _42
REMARK   20  A    between atoms: _42  and  _43
REMARK   21  A    between atoms: _42  and  _44
REMARK   22  A    between atoms: _45  and  _47
REMARK                            x       y       z     vdW  Elec       q    Type
REMARK                         _______ _______ _______ _____ _____    ______ ____
ROOT
ATOM      1  C   UNL     1      18.549   5.764  23.767  0.00  0.00    +0.401 C 
ATOM      2  O   UNL     1      17.942   6.657  23.172  0.00  0.00    -0.226 OA
ATOM      3  N   UNL     1      18.342   4.462  23.569  0.00  0.00    -0.279 N 
ATOM      4  H   UNL     1      18.897   3.804  24.099  0.00  0.00    +0.152 HD
ENDROOT
BRANCH   3   5
ATOM      5  C   UNL     1      17.352   3.929  22.625  0.00  0.00    +0.141 C 
BRANCH   5   6
ATOM      6  C   UNL     1      17.021   2.468  22.912  0.00  0.00    +0.163 C 
BRANCH   6   7
ATOM      7  O   UNL     1      17.582   1.627  21.891  0.00  0.00    -0.388 OA
ATOM      8  H   UNL     1      18.463   1.348  22.154  0.00  0.00    +0.210 HD
ENDBRANCH   6   7
BRANCH   6   9
ATOM      9  C   UNL     1      17.559   2.082  24.300  0.00  0.00    +0.175 C 
BRANCH   9  10
ATOM     10  C   UNL     1      17.909   0.590  24.390  0.00  0.00    +0.176 C 
ATOM     11  O   UNL     1      16.725  -0.170  24.022  0.00  0.00    -0.332 OA
ATOM     12  C   UNL     1      16.902  -1.623  23.948  0.00  0.00    +0.277 C 
ATOM     13  C   UNL     1      17.479  -2.166  25.278  0.00  0.00    +0.110 C 
ATOM     14  C   UNL     1      18.721  -1.369  25.727  0.00  0.00    +0.143 C 
ATOM     15  C   UNL     1      18.427   0.131  25.766  0.00  0.00    +0.133 C 
BRANCH  15  16
ATOM     16  N   UNL     1      19.641   0.886  26.111  0.00  0.00    -0.308 N 
ATOM     17  H   UNL     1      20.441   0.798  25.500  0.00  0.00    +0.149 HD
ATOM     18  C   UNL     1      19.756   1.680  27.179  0.00  0.00    +0.210 C 
ATOM     19  C   UNL     1      18.529   1.773  28.104  0.00  0.00    +0.109 C 
ATOM     20  O   UNL     1      20.782   2.312  27.435  0.00  0.00    -0.276 OA
ENDBRANCH  15  16
BRANCH  12  21
ATOM     21  C   UNL     1      17.843  -2.002  22.785  0.00  0.00    +0.414 C 
ATOM     22  O   UNL     1      18.510  -3.034  22.838  0.00  0.00    -0.240 OA
ATOM     23  O   UNL     1      17.934  -1.275  21.795  0.00  0.00    -0.240 OA
ENDBRANCH  12  21
BRANCH  14  24
ATOM     24  O   UNL     1      19.128  -1.802  27.026  0.00  0.00    -0.390 OA
ATOM     25  H   UNL     1      19.493  -1.059  27.512  0.00  0.00    +0.210 HD
ENDBRANCH  14  24
BRANCH  12  26
ATOM     26  O   UNL     1      15.598  -2.224  23.736  0.00  0.00    -0.343 OA
ATOM     27  C   UNL     1      15.572  -3.672  23.809  0.00  0.00    +0.198 C 
ENDBRANCH  12  26
ENDBRANCH   9  10
BRANCH   9  28
ATOM     28  O   UNL     1      16.601   2.430  25.319  0.00  0.00    -0.387 OA
ATOM     29  H   UNL     1      16.353   3.353  25.224  0.00  0.00    +0.210 HD
ENDBRANCH   9  28
ENDBRANCH   6   9
ENDBRANCH   5   6
ENDBRANCH   3   5
BRANCH   1  30
ATOM     30  O   UNL     1      19.544   6.123  24.730  0.00  0.00    -0.444 OA
BRANCH  30  31
ATOM     31  C   UNL     1      19.057   5.846  26.046  0.00  0.00    +0.292 C 
BRANCH  31  33
ATOM     32  N   UNL     1      19.443   7.114  28.143  0.00  0.00    -0.131 NA
ATOM     33  C   UNL     1      18.999   7.085  26.845  0.00  0.00    +0.120 A 
ATOM     34  C   UNL     1      18.538   8.336  26.502  0.00  0.00    +0.137 A 
ATOM     35  N   UNL     1      18.748   9.084  27.621  0.00  0.00    -0.242 N 
ATOM     36  N   UNL     1      19.274   8.343  28.612  0.00  0.00    -0.065 NA
BRANCH  35  37
ATOM     37  C   UNL     1      18.381  10.459  27.858  0.00  0.00    +0.240 C 
BRANCH  37  38
ATOM     38  C   UNL     1      19.203  11.064  28.974  0.00  0.00    +0.235 C 
ATOM     39  O   UNL     1      20.203  11.748  28.764  0.00  0.00    -0.274 OA
ATOM     40  N   UNL     1      18.718  10.842  30.249  0.00  0.00    -0.311 N 
ATOM     41  H   UNL     1      18.074  10.069  30.398  0.00  0.00    +0.149 HD
BRANCH  40  42
ATOM     42  C   UNL     1      19.465  11.300  31.413  0.00  0.00    +0.137 C 
BRANCH  42  43
ATOM     43  C   UNL     1      18.541  11.500  32.623  0.00  0.00    +0.151 C 
BRANCH  43  44
ATOM     44  O   UNL     1      18.404  12.905  32.869  0.00  0.00    -0.388 OA
ATOM     45  H   UNL     1      19.244  13.351  32.633  0.00  0.00    +0.210 HD
ENDBRANCH  43  44
BRANCH  43  46
ATOM     46  C   UNL     1      17.175  10.836  32.409  0.00  0.00    +0.162 C 
BRANCH  46  47
ATOM     47  N   UNL     1      16.855   9.872  33.452  0.00  0.00    -0.269 N 
ATOM     48  C   UNL     1      16.541  10.238  34.743  0.00  0.00    +0.113 A 
ATOM     49  C   UNL     1      16.349   9.063  35.429  0.00  0.00    +0.137 A 
ATOM     50  N   UNL     1      16.538   7.985  34.603  0.00  0.00    -0.172 NA
ATOM     51  C   UNL     1      16.829   8.499  33.418  0.00  0.00    +0.450 A 
ATOM     52  N   UNL     1      17.090   7.675  32.263  0.00  0.00    +0.120 N 
ATOM     53  O   UNL     1      17.247   8.244  31.174  0.00  0.00    +0.045 OA
ATOM     54  O   UNL     1      17.151   6.452  32.441  0.00  0.00    -0.573 OA
ENDBRANCH  46  47
ENDBRANCH  43  46
ENDBRANCH  42  43
ENDBRANCH  40  42
ENDBRANCH  37  38
ENDBRANCH  35  37
ENDBRANCH  31  33
ENDBRANCH  30  31
ENDBRANCH   1  30
TORSDOF 20
