REMARK VINA RESULT:    -5.441     18.989     22.351
REMARK INTER + INTRA:         -13.808
REMARK INTER:                 -10.133
REMARK INTRA:                  -3.674
REMARK UNBOUND:                -3.914
REMARK  Name = lig_assembled_73.pdb
REMARK  18 active torsions:
REMARK  status: ('A' for Active; 'I' for Inactive)
REMARK    1  A    between atoms: _2  and  _10
REMARK    2  A    between atoms: _3  and  _14
REMARK    3  A    between atoms: _5  and  _22
REMARK    4  A    between atoms: _7  and  _8
REMARK    5  A    between atoms: _7  and  _22
REMARK    6  A    between atoms: _13  and  _16
REMARK    7  A    between atoms: _18  and  _38
REMARK    8  A    between atoms: _20  and  _26
REMARK    9  A    between atoms: _21  and  _25
REMARK   10  A    between atoms: _25  and  _26
REMARK   11  A    between atoms: _28  and  _29
REMARK   12  A    between atoms: _30  and  _31
REMARK   13  A    between atoms: _32  and  _34
REMARK   14  A    between atoms: _34  and  _35
REMARK   15  A    between atoms: _34  and  _36
REMARK   16  A    between atoms: _36  and  _37
REMARK   17  A    between atoms: _36  and  _38
REMARK   18  A    between atoms: _39  and  _41
REMARK                            x       y       z     vdW  Elec       q    Type
REMARK                         _______ _______ _______ _____ _____    ______ ____
ROOT
ATOM      1  C   UNL     1      -6.946  10.205  12.285  0.00  0.00    +0.163 C 
ENDROOT
BRANCH   1   2
ATOM      2  O   UNL     1      -6.084   9.303  12.997  0.00  0.00    -0.388 OA
ATOM      3  H   UNL     1      -5.170   9.475  12.756  0.00  0.00    +0.210 HD
ENDBRANCH   1   2
BRANCH   1   4
ATOM      4  C   UNL     1      -6.652  11.665  12.669  0.00  0.00    +0.175 C 
BRANCH   4   5
ATOM      5  C   UNL     1      -5.382  11.794  13.523  0.00  0.00    +0.176 C 
ATOM      6  O   UNL     1      -5.725  11.436  14.890  0.00  0.00    -0.332 OA
ATOM      7  C   UNL     1      -4.605  11.399  15.836  0.00  0.00    +0.277 C 
ATOM      8  C   UNL     1      -3.842  12.746  15.823  0.00  0.00    +0.110 C 
ATOM      9  C   UNL     1      -3.484  13.184  14.387  0.00  0.00    +0.143 C 
ATOM     10  C   UNL     1      -4.721  13.184  13.489  0.00  0.00    +0.133 C 
BRANCH  10  11
ATOM     11  N   UNL     1      -4.352  13.519  12.104  0.00  0.00    -0.308 N 
ATOM     12  H   UNL     1      -3.782  12.859  11.595  0.00  0.00    +0.149 HD
ATOM     13  C   UNL     1      -4.722  14.638  11.477  0.00  0.00    +0.210 C 
ATOM     14  C   UNL     1      -5.570  15.636  12.288  0.00  0.00    +0.109 C 
ATOM     15  O   UNL     1      -4.411  14.886  10.311  0.00  0.00    -0.276 OA
ENDBRANCH  10  11
BRANCH   7  16
ATOM     16  C   UNL     1      -3.633  10.252  15.488  0.00  0.00    +0.414 C 
ATOM     17  O   UNL     1      -2.421  10.460  15.439  0.00  0.00    -0.240 OA
ATOM     18  O   UNL     1      -4.060   9.121  15.256  0.00  0.00    -0.240 OA
ENDBRANCH   7  16
BRANCH   9  19
ATOM     19  O   UNL     1      -2.919  14.496  14.411  0.00  0.00    -0.390 OA
ATOM     20  H   UNL     1      -2.225  14.534  15.073  0.00  0.00    +0.210 HD
ENDBRANCH   9  19
BRANCH   7  21
ATOM     21  O   UNL     1      -5.147  11.193  17.166  0.00  0.00    -0.343 OA
ATOM     22  C   UNL     1      -6.532  10.766  17.203  0.00  0.00    +0.198 C 
ENDBRANCH   7  21
ENDBRANCH   4   5
BRANCH   4  23
ATOM     23  O   UNL     1      -7.779  12.232  13.366  0.00  0.00    -0.387 OA
ATOM     24  H   UNL     1      -8.305  11.527  13.752  0.00  0.00    +0.210 HD
ENDBRANCH   4  23
ENDBRANCH   1   4
BRANCH   1  25
ATOM     25  C   UNL     1      -6.762  10.026  10.782  0.00  0.00    +0.141 C 
BRANCH  25  28
ATOM     26  C   UNL     1      -4.608   9.136   9.960  0.00  0.00    +0.401 C 
ATOM     27  O   UNL     1      -5.015   7.975   9.869  0.00  0.00    -0.226 OA
ATOM     28  N   UNL     1      -5.354  10.156  10.384  0.00  0.00    -0.279 N 
ATOM     29  H   UNL     1      -4.928  11.071  10.434  0.00  0.00    +0.152 HD
BRANCH  26  30
ATOM     30  O   UNL     1      -3.255   9.427   9.600  0.00  0.00    -0.444 OA
BRANCH  30  31
ATOM     31  C   UNL     1      -3.167  10.772   9.122  0.00  0.00    +0.292 C 
BRANCH  31  33
ATOM     32  N   UNL     1      -2.314  11.380  11.364  0.00  0.00    -0.131 NA
ATOM     33  C   UNL     1      -2.313  11.579  10.014  0.00  0.00    +0.121 A 
ATOM     34  C   UNL     1      -1.431  12.589   9.710  0.00  0.00    +0.143 A 
ATOM     35  N   UNL     1      -0.904  12.977  10.919  0.00  0.00    -0.220 N 
ATOM     36  N   UNL     1      -1.456  12.232  11.907  0.00  0.00    -0.060 NA
BRANCH  35  37
ATOM     37  C   UNL     1       0.058  13.985  11.189  0.00  0.00    +0.074 A 
ATOM     38  C   UNL     1      -0.212  14.966  12.160  0.00  0.00    +0.032 A 
ATOM     39  C   UNL     1       0.719  15.976  12.436  0.00  0.00    +0.054 A 
ATOM     40  C   UNL     1       1.927  16.018  11.744  0.00  0.00    +0.195 A 
ATOM     41  C   UNL     1       2.190  15.043  10.783  0.00  0.00    +0.316 A 
ATOM     42  C   UNL     1       1.275  14.019  10.498  0.00  0.00    +0.116 A 
BRANCH  41  43
ATOM     43  N   UNL     1       3.434  15.065  10.039  0.00  0.00    +0.083 N 
ATOM     44  O   UNL     1       4.139  14.047  10.071  0.00  0.00    +0.042 OA
ATOM     45  O   UNL     1       3.740  16.139   9.502  0.00  0.00    -0.576 OA
ENDBRANCH  41  43
BRANCH  40  46
ATOM     46  O   UNL     1       2.841  16.988  12.028  0.00  0.00    -0.501 OA
ATOM     47  H   UNL     1       3.144  16.902  12.949  0.00  0.00    +0.292 HD
ENDBRANCH  40  46
ENDBRANCH  35  37
ENDBRANCH  31  33
ENDBRANCH  30  31
ENDBRANCH  26  30
ENDBRANCH  25  28
ENDBRANCH   1  25
TORSDOF 16
