REMARK VINA RESULT:    -5.838     11.494     17.207
REMARK INTER + INTRA:         -13.769
REMARK INTER:                 -10.387
REMARK INTRA:                  -3.382
REMARK UNBOUND:                -2.640
REMARK  Name = lig_assembled_29.pdb
REMARK  21 active torsions:
REMARK  status: ('A' for Active; 'I' for Inactive)
REMARK    1  A    between atoms: _2  and  _9
REMARK    2  A    between atoms: _4  and  _23
REMARK    3  A    between atoms: _6  and  _7
REMARK    4  A    between atoms: _6  and  _23
REMARK    5  A    between atoms: _9  and  _10
REMARK    6  A    between atoms: _12  and  _18
REMARK    7  A    between atoms: _13  and  _18
REMARK    8  A    between atoms: _14  and  _17
REMARK    9  A    between atoms: _15  and  _17
REMARK   10  A    between atoms: _19  and  _39
REMARK   11  A    between atoms: _21  and  _27
REMARK   12  A    between atoms: _22  and  _26
REMARK   13  A    between atoms: _26  and  _27
REMARK   14  A    between atoms: _29  and  _30
REMARK   15  A    between atoms: _31  and  _32
REMARK   16  A    between atoms: _33  and  _35
REMARK   17  A    between atoms: _35  and  _36
REMARK   18  A    between atoms: _35  and  _37
REMARK   19  A    between atoms: _37  and  _38
REMARK   20  A    between atoms: _37  and  _39
REMARK   21  A    between atoms: _40  and  _42
REMARK                            x       y       z     vdW  Elec       q    Type
REMARK                         _______ _______ _______ _____ _____    ______ ____
ROOT
ATOM      1  C   UNL     1       3.665   4.921  36.807  0.00  0.00    +0.163 C 
ENDROOT
BRANCH   1   2
ATOM      2  O   UNL     1       3.700   5.801  35.671  0.00  0.00    -0.388 OA
ATOM      3  H   UNL     1       3.252   5.386  34.930  0.00  0.00    +0.210 HD
ENDBRANCH   1   2
BRANCH   1   4
ATOM      4  C   UNL     1       4.474   5.503  37.979  0.00  0.00    +0.175 C 
BRANCH   4   5
ATOM      5  C   UNL     1       5.726   6.255  37.500  0.00  0.00    +0.176 C 
ATOM      6  O   UNL     1       6.315   5.493  36.410  0.00  0.00    -0.332 OA
ATOM      7  C   UNL     1       7.468   6.116  35.753  0.00  0.00    +0.277 C 
ATOM      8  C   UNL     1       8.558   6.469  36.794  0.00  0.00    +0.110 C 
ATOM      9  C   UNL     1       7.973   7.252  37.988  0.00  0.00    +0.143 C 
ATOM     10  C   UNL     1       6.778   6.516  38.594  0.00  0.00    +0.133 C 
BRANCH  10  11
ATOM     11  N   UNL     1       6.175   7.313  39.674  0.00  0.00    -0.308 N 
ATOM     12  H   UNL     1       5.700   8.168  39.421  0.00  0.00    +0.149 HD
ATOM     13  C   UNL     1       6.216   6.981  40.967  0.00  0.00    +0.210 C 
ATOM     14  C   UNL     1       6.970   5.686  41.323  0.00  0.00    +0.109 C 
ATOM     15  O   UNL     1       5.690   7.660  41.849  0.00  0.00    -0.276 OA
ENDBRANCH  10  11
BRANCH   7  16
ATOM     16  C   UNL     1       7.043   7.392  34.997  0.00  0.00    +0.414 C 
ATOM     17  O   UNL     1       5.896   7.505  34.567  0.00  0.00    -0.240 OA
ATOM     18  O   UNL     1       7.847   8.308  34.818  0.00  0.00    -0.240 OA
ENDBRANCH   7  16
BRANCH   7  19
ATOM     19  O   UNL     1       8.023   5.156  34.817  0.00  0.00    -0.343 OA
ATOM     20  C   UNL     1       7.066   4.221  34.259  0.00  0.00    +0.198 C 
ENDBRANCH   7  19
BRANCH   9  21
ATOM     21  O   UNL     1       8.977   7.425  38.990  0.00  0.00    -0.390 OA
ATOM     22  H   UNL     1       8.631   7.146  39.841  0.00  0.00    +0.210 HD
ENDBRANCH   9  21
ENDBRANCH   4   5
BRANCH   4  23
ATOM     23  O   UNL     1       4.845   4.455  38.896  0.00  0.00    -0.387 OA
ATOM     24  H   UNL     1       5.107   4.841  39.735  0.00  0.00    +0.210 HD
ENDBRANCH   4  23
ENDBRANCH   1   4
BRANCH   1  25
ATOM     25  C   UNL     1       2.223   4.694  37.247  0.00  0.00    +0.141 C 
BRANCH  25  28
ATOM     26  C   UNL     1       1.106   5.064  39.420  0.00  0.00    +0.401 C 
ATOM     27  O   UNL     1       0.597   3.942  39.456  0.00  0.00    -0.226 OA
ATOM     28  N   UNL     1       1.875   5.502  38.422  0.00  0.00    -0.279 N 
ATOM     29  H   UNL     1       2.240   6.443  38.478  0.00  0.00    +0.152 HD
BRANCH  26  30
ATOM     30  O   UNL     1       0.868   5.970  40.500  0.00  0.00    -0.444 OA
BRANCH  30  31
ATOM     31  C   UNL     1       2.114   6.490  40.971  0.00  0.00    +0.292 C 
BRANCH  31  33
ATOM     32  N   UNL     1       1.150   8.675  41.640  0.00  0.00    -0.131 NA
ATOM     33  C   UNL     1       2.098   7.965  40.951  0.00  0.00    +0.120 A 
ATOM     34  C   UNL     1       2.955   8.844  40.330  0.00  0.00    +0.137 A 
ATOM     35  N   UNL     1       2.531  10.070  40.755  0.00  0.00    -0.247 N 
ATOM     36  N   UNL     1       1.419   9.968  41.504  0.00  0.00    -0.065 NA
BRANCH  35  37
ATOM     37  C   UNL     1       3.157  11.360  40.533  0.00  0.00    +0.180 C 
BRANCH  37  38
ATOM     38  C   UNL     1       4.097  11.703  41.666  0.00  0.00    -0.022 A 
ATOM     39  C   UNL     1       5.440  11.288  41.621  0.00  0.00    +0.054 A 
ATOM     40  C   UNL     1       6.341  11.667  42.626  0.00  0.00    +0.162 A 
ATOM     41  C   UNL     1       5.893  12.465  43.697  0.00  0.00    +0.162 A 
ATOM     42  C   UNL     1       4.559  12.876  43.740  0.00  0.00    +0.050 A 
ATOM     43  C   UNL     1       3.667  12.497  42.733  0.00  0.00    +0.009 A 
BRANCH  40  44
ATOM     44  O   UNL     1       7.670  11.320  42.644  0.00  0.00    -0.491 OA
ATOM     45  C   UNL     1       8.012   9.983  42.305  0.00  0.00    +0.277 C 
ENDBRANCH  40  44
BRANCH  41  46
ATOM     46  O   UNL     1       6.834  12.788  44.645  0.00  0.00    -0.491 OA
ATOM     47  C   UNL     1       6.705  12.201  45.932  0.00  0.00    +0.277 C 
ENDBRANCH  41  46
ENDBRANCH  37  38
ENDBRANCH  35  37
ENDBRANCH  31  33
ENDBRANCH  30  31
ENDBRANCH  26  30
ENDBRANCH  25  28
ENDBRANCH   1  25
TORSDOF 17
