REMARK VINA RESULT:    -5.397     15.191     19.062
REMARK INTER + INTRA:         -13.054
REMARK INTER:                 -10.363
REMARK INTRA:                  -2.691
REMARK UNBOUND:                -3.239
REMARK  Name = lig_assembled_88.pdb
REMARK  18 active torsions:
REMARK  status: ('A' for Active; 'I' for Inactive)
REMARK    1  A    between atoms: _2  and  _9
REMARK    2  A    between atoms: _4  and  _20
REMARK    3  A    between atoms: _5  and  _15
REMARK    4  A    between atoms: _6  and  _7
REMARK    5  A    between atoms: _6  and  _20
REMARK    6  A    between atoms: _9  and  _10
REMARK    7  A    between atoms: _16  and  _36
REMARK    8  A    between atoms: _18  and  _24
REMARK    9  A    between atoms: _19  and  _23
REMARK   10  A    between atoms: _23  and  _24
REMARK   11  A    between atoms: _26  and  _27
REMARK   12  A    between atoms: _28  and  _29
REMARK   13  A    between atoms: _30  and  _32
REMARK   14  A    between atoms: _32  and  _33
REMARK   15  A    between atoms: _32  and  _34
REMARK   16  A    between atoms: _34  and  _35
REMARK   17  A    between atoms: _34  and  _36
REMARK   18  A    between atoms: _37  and  _39
REMARK                            x       y       z     vdW  Elec       q    Type
REMARK                         _______ _______ _______ _____ _____    ______ ____
ROOT
ATOM      1  C   UNL     1      19.133   6.379  24.092  0.00  0.00    +0.163 C 
ENDROOT
BRANCH   1   2
ATOM      2  O   UNL     1      17.896   6.465  23.367  0.00  0.00    -0.388 OA
ATOM      3  H   UNL     1      17.899   5.826  22.650  0.00  0.00    +0.210 HD
ENDBRANCH   1   2
BRANCH   1   4
ATOM      4  C   UNL     1      19.676   4.939  24.085  0.00  0.00    +0.175 C 
BRANCH   4   5
ATOM      5  C   UNL     1      18.958   4.046  25.107  0.00  0.00    +0.176 C 
ATOM      6  O   UNL     1      19.938   3.612  26.090  0.00  0.00    -0.332 OA
ATOM      7  C   UNL     1      19.409   2.830  27.211  0.00  0.00    +0.277 C 
ATOM      8  C   UNL     1      18.614   1.608  26.691  0.00  0.00    +0.110 C 
ATOM      9  C   UNL     1      17.580   2.015  25.621  0.00  0.00    +0.143 C 
ATOM     10  C   UNL     1      18.237   2.826  24.503  0.00  0.00    +0.133 C 
BRANCH  10  11
ATOM     11  N   UNL     1      17.227   3.282  23.535  0.00  0.00    -0.308 N 
ATOM     12  H   UNL     1      16.537   3.948  23.852  0.00  0.00    +0.149 HD
ATOM     13  C   UNL     1      17.163   2.873  22.265  0.00  0.00    +0.210 C 
ATOM     14  C   UNL     1      18.214   1.838  21.820  0.00  0.00    +0.109 C 
ATOM     15  O   UNL     1      16.315   3.283  21.472  0.00  0.00    -0.276 OA
ENDBRANCH  10  11
BRANCH   7  16
ATOM     16  C   UNL     1      18.496   3.699  28.101  0.00  0.00    +0.414 C 
ATOM     17  O   UNL     1      17.531   3.197  28.676  0.00  0.00    -0.240 OA
ATOM     18  O   UNL     1      18.725   4.901  28.244  0.00  0.00    -0.240 OA
ENDBRANCH   7  16
BRANCH   7  19
ATOM     19  O   UNL     1      20.534   2.347  27.991  0.00  0.00    -0.343 OA
ATOM     20  C   UNL     1      21.815   2.928  27.643  0.00  0.00    +0.198 C 
ENDBRANCH   7  19
BRANCH   9  21
ATOM     21  O   UNL     1      16.978   0.846  25.063  0.00  0.00    -0.390 OA
ATOM     22  H   UNL     1      16.706   0.257  25.770  0.00  0.00    +0.210 HD
ENDBRANCH   9  21
ENDBRANCH   4   5
BRANCH   4  23
ATOM     23  O   UNL     1      21.095   4.942  24.338  0.00  0.00    -0.387 OA
ATOM     24  H   UNL     1      21.533   5.507  23.699  0.00  0.00    +0.210 HD
ENDBRANCH   4  23
ENDBRANCH   1   4
BRANCH   1  25
ATOM     25  C   UNL     1      20.167   7.315  23.476  0.00  0.00    +0.141 C 
BRANCH  25  28
ATOM     26  C   UNL     1      21.505   8.374  25.263  0.00  0.00    +0.401 C 
ATOM     27  O   UNL     1      22.235   7.394  25.427  0.00  0.00    -0.226 OA
ATOM     28  N   UNL     1      20.509   8.422  24.377  0.00  0.00    -0.279 N 
ATOM     29  H   UNL     1      19.959   9.268  24.323  0.00  0.00    +0.152 HD
BRANCH  26  30
ATOM     30  O   UNL     1      21.718   9.540  26.063  0.00  0.00    -0.444 OA
BRANCH  30  31
ATOM     31  C   UNL     1      22.036   9.149  27.401  0.00  0.00    +0.292 C 
BRANCH  31  33
ATOM     32  N   UNL     1      20.207   7.957  28.569  0.00  0.00    -0.131 NA
ATOM     33  C   UNL     1      20.822   9.136  28.239  0.00  0.00    +0.120 A 
ATOM     34  C   UNL     1      20.114  10.182  28.788  0.00  0.00    +0.137 A 
ATOM     35  N   UNL     1      19.041   9.578  29.374  0.00  0.00    -0.247 N 
ATOM     36  N   UNL     1      19.127   8.238  29.285  0.00  0.00    -0.065 NA
BRANCH  35  37
ATOM     37  C   UNL     1      17.872  10.206  29.970  0.00  0.00    +0.184 C 
BRANCH  37  38
ATOM     38  C   UNL     1      17.862  10.136  31.484  0.00  0.00    +0.017 A 
ATOM     39  C   UNL     1      18.325  11.193  32.292  0.00  0.00    +0.024 A 
ATOM     40  C   UNL     1      18.302  11.093  33.686  0.00  0.00    +0.019 A 
ATOM     41 BR   UNL     1      18.979  12.512  34.737  0.00  0.00    -0.050 Br
ATOM     42  C   UNL     1      17.789   9.961  34.310  0.00  0.00    +0.034 A 
ATOM     43  C   UNL     1      17.283   8.928  33.525  0.00  0.00    +0.061 A 
ATOM     44 BR   UNL     1      16.552   7.403  34.381  0.00  0.00    -0.046 Br
ATOM     45  C   UNL     1      17.315   9.017  32.127  0.00  0.00    +0.136 A 
BRANCH  45  46
ATOM     46  O   UNL     1      16.806   8.013  31.346  0.00  0.00    -0.505 OA
ATOM     47  H   UNL     1      16.360   7.377  31.937  0.00  0.00    +0.292 HD
ENDBRANCH  45  46
ENDBRANCH  37  38
ENDBRANCH  35  37
ENDBRANCH  31  33
ENDBRANCH  30  31
ENDBRANCH  26  30
ENDBRANCH  25  28
ENDBRANCH   1  25
TORSDOF 16
