REMARK VINA RESULT:    -6.326     15.052     17.621
REMARK INTER + INTRA:         -13.239
REMARK INTER:                 -10.219
REMARK INTRA:                  -3.020
REMARK UNBOUND:                -1.736
REMARK  Name = lig_assembled_59.pdb
REMARK  18 active torsions:
REMARK  status: ('A' for Active; 'I' for Inactive)
REMARK    1  A    between atoms: _2  and  _10
REMARK    2  A    between atoms: _5  and  _20
REMARK    3  A    between atoms: _7  and  _8
REMARK    4  A    between atoms: _7  and  _20
REMARK    5  A    between atoms: _13  and  _14
REMARK    6  A    between atoms: _14  and  _15
REMARK    7  A    between atoms: _16  and  _36
REMARK    8  A    between atoms: _18  and  _24
REMARK    9  A    between atoms: _19  and  _23
REMARK   10  A    between atoms: _23  and  _24
REMARK   11  A    between atoms: _26  and  _27
REMARK   12  A    between atoms: _28  and  _29
REMARK   13  A    between atoms: _30  and  _32
REMARK   14  A    between atoms: _32  and  _33
REMARK   15  A    between atoms: _32  and  _34
REMARK   16  A    between atoms: _34  and  _35
REMARK   17  A    between atoms: _34  and  _36
REMARK   18  A    between atoms: _37  and  _39
REMARK                            x       y       z     vdW  Elec       q    Type
REMARK                         _______ _______ _______ _____ _____    ______ ____
ROOT
ATOM      1  C   UNL     1      18.086  -1.302  22.299  0.00  0.00    +0.163 C 
ENDROOT
BRANCH   1   2
ATOM      2  O   UNL     1      18.581  -2.651  22.297  0.00  0.00    -0.388 OA
ATOM      3  H   UNL     1      17.861  -3.257  22.487  0.00  0.00    +0.210 HD
ENDBRANCH   1   2
BRANCH   1   4
ATOM      4  C   UNL     1      18.055  -0.729  23.726  0.00  0.00    +0.175 C 
BRANCH   4   5
ATOM      5  C   UNL     1      17.857  -1.824  24.785  0.00  0.00    +0.176 C 
ATOM      6  O   UNL     1      16.759  -2.672  24.350  0.00  0.00    -0.332 OA
ATOM      7  C   UNL     1      16.492  -3.843  25.190  0.00  0.00    +0.277 C 
ATOM      8  C   UNL     1      16.272  -3.415  26.662  0.00  0.00    +0.110 C 
ATOM      9  C   UNL     1      17.399  -2.486  27.159  0.00  0.00    +0.143 C 
ATOM     10  C   UNL     1      17.594  -1.303  26.210  0.00  0.00    +0.133 C 
BRANCH  10  11
ATOM     11  N   UNL     1      18.727  -0.472  26.647  0.00  0.00    -0.308 N 
ATOM     12  H   UNL     1      19.648  -0.889  26.640  0.00  0.00    +0.149 HD
ATOM     13  C   UNL     1      18.619   0.796  27.051  0.00  0.00    +0.210 C 
ATOM     14  C   UNL     1      17.200   1.394  27.074  0.00  0.00    +0.109 C 
ATOM     15  O   UNL     1      19.588   1.472  27.398  0.00  0.00    -0.276 OA
ENDBRANCH  10  11
BRANCH   7  16
ATOM     16  C   UNL     1      17.660  -4.848  25.115  0.00  0.00    +0.414 C 
ATOM     17  O   UNL     1      17.817  -5.684  26.004  0.00  0.00    -0.240 OA
ATOM     18  O   UNL     1      18.444  -4.824  24.165  0.00  0.00    -0.240 OA
ENDBRANCH   7  16
BRANCH   7  19
ATOM     19  O   UNL     1      15.275  -4.472  24.711  0.00  0.00    -0.343 OA
ATOM     20  C   UNL     1      15.173  -4.586  23.269  0.00  0.00    +0.198 C 
ENDBRANCH   7  19
BRANCH   9  21
ATOM     21  O   UNL     1      17.081  -1.996  28.462  0.00  0.00    -0.390 OA
ATOM     22  H   UNL     1      16.658  -2.691  28.971  0.00  0.00    +0.210 HD
ENDBRANCH   9  21
ENDBRANCH   4   5
BRANCH   4  23
ATOM     23  O   UNL     1      17.018   0.266  23.840  0.00  0.00    -0.387 OA
ATOM     24  H   UNL     1      17.237   0.878  24.547  0.00  0.00    +0.210 HD
ENDBRANCH   4  23
ENDBRANCH   1   4
BRANCH   1  25
ATOM     25  C   UNL     1      18.964  -0.422  21.415  0.00  0.00    +0.141 C 
BRANCH  25  28
ATOM     26  C   UNL     1      17.715   1.533  20.565  0.00  0.00    +0.401 C 
ATOM     27  O   UNL     1      17.223   0.924  19.613  0.00  0.00    -0.226 OA
ATOM     28  N   UNL     1      18.544   0.984  21.454  0.00  0.00    -0.279 N 
ATOM     29  H   UNL     1      18.904   1.569  22.195  0.00  0.00    +0.152 HD
BRANCH  26  30
ATOM     30  O   UNL     1      17.395   2.915  20.745  0.00  0.00    -0.444 OA
BRANCH  30  31
ATOM     31  C   UNL     1      16.684   3.085  21.975  0.00  0.00    +0.292 C 
BRANCH  31  33
ATOM     32  N   UNL     1      18.172   3.125  23.949  0.00  0.00    -0.131 NA
ATOM     33  C   UNL     1      17.522   3.802  22.955  0.00  0.00    +0.121 A 
ATOM     34  C   UNL     1      17.797   5.145  23.071  0.00  0.00    +0.145 A 
ATOM     35  N   UNL     1      18.629   5.241  24.163  0.00  0.00    -0.202 N 
ATOM     36  N   UNL     1      18.846   4.003  24.677  0.00  0.00    -0.059 NA
BRANCH  35  37
ATOM     37  C   UNL     1      19.190   6.421  24.720  0.00  0.00    +0.156 A 
ATOM     38  C   UNL     1      18.508   7.080  25.741  0.00  0.00    +0.048 A 
ATOM     39  C   UNL     1      19.044   8.260  26.253  0.00  0.00    +0.011 A 
ATOM     40  C   UNL     1      20.246   8.759  25.747  0.00  0.00    -0.004 A 
ATOM     41  C   UNL     1      20.857   8.033  24.728  0.00  0.00    +0.119 A 
ATOM     42  N   UNL     1      20.368   6.880  24.212  0.00  0.00    -0.236 NA
BRANCH  40  43
ATOM     43  C   UNL     1      20.792  10.075  26.219  0.00  0.00    +0.192 C 
BRANCH  43  44
ATOM     44  O   UNL     1      19.911  11.143  25.904  0.00  0.00    -0.390 OA
ATOM     45  H   UNL     1      19.361  11.297  26.692  0.00  0.00    +0.210 HD
ENDBRANCH  43  44
ENDBRANCH  40  43
ENDBRANCH  35  37
ENDBRANCH  31  33
ENDBRANCH  30  31
ENDBRANCH  26  30
ENDBRANCH  25  28
ENDBRANCH   1  25
TORSDOF 16
