REMARK VINA RESULT:    -5.886     14.795     18.854
REMARK INTER + INTRA:         -12.954
REMARK INTER:                 -11.148
REMARK INTRA:                  -1.807
REMARK UNBOUND:                -2.078
REMARK  Name = lig_assembled_14.pdb
REMARK  18 active torsions:
REMARK  status: ('A' for Active; 'I' for Inactive)
REMARK    1  A    between atoms: _2  and  _10
REMARK    2  A    between atoms: _3  and  _11
REMARK    3  A    between atoms: _5  and  _19
REMARK    4  A    between atoms: _7  and  _8
REMARK    5  A    between atoms: _7  and  _19
REMARK    6  A    between atoms: _10  and  _11
REMARK    7  A    between atoms: _15  and  _35
REMARK    8  A    between atoms: _17  and  _23
REMARK    9  A    between atoms: _18  and  _22
REMARK   10  A    between atoms: _22  and  _23
REMARK   11  A    between atoms: _25  and  _26
REMARK   12  A    between atoms: _27  and  _28
REMARK   13  A    between atoms: _29  and  _31
REMARK   14  A    between atoms: _31  and  _32
REMARK   15  A    between atoms: _31  and  _33
REMARK   16  A    between atoms: _33  and  _34
REMARK   17  A    between atoms: _33  and  _35
REMARK   18  A    between atoms: _36  and  _38
REMARK                            x       y       z     vdW  Elec       q    Type
REMARK                         _______ _______ _______ _____ _____    ______ ____
ROOT
ATOM      1  C   UNL     1       3.517   3.373  32.261  0.00  0.00    +0.163 C 
ENDROOT
BRANCH   1   2
ATOM      2  O   UNL     1       3.305   4.788  32.129  0.00  0.00    -0.388 OA
ATOM      3  H   UNL     1       2.913   5.131  32.937  0.00  0.00    +0.210 HD
ENDBRANCH   1   2
BRANCH   1   4
ATOM      4  C   UNL     1       3.332   2.923  33.720  0.00  0.00    +0.175 C 
BRANCH   4   5
ATOM      5  C   UNL     1       4.130   3.795  34.700  0.00  0.00    +0.176 C 
ATOM      6  O   UNL     1       5.463   3.981  34.149  0.00  0.00    -0.332 OA
ATOM      7  C   UNL     1       6.341   4.881  34.903  0.00  0.00    +0.277 C 
ATOM      8  C   UNL     1       6.444   4.427  36.379  0.00  0.00    +0.110 C 
ATOM      9  C   UNL     1       5.051   4.186  36.999  0.00  0.00    +0.143 C 
ATOM     10  C   UNL     1       4.221   3.238  36.133  0.00  0.00    +0.133 C 
BRANCH  10  11
ATOM     11  N   UNL     1       2.867   3.085  36.687  0.00  0.00    -0.308 N 
ATOM     12  H   UNL     1       2.251   3.885  36.654  0.00  0.00    +0.149 HD
ATOM     13  C   UNL     1       2.399   1.958  37.231  0.00  0.00    +0.210 C 
ATOM     14  C   UNL     1       3.372   0.765  37.290  0.00  0.00    +0.109 C 
ATOM     15  O   UNL     1       1.255   1.855  37.675  0.00  0.00    -0.276 OA
ENDBRANCH  10  11
BRANCH   7  16
ATOM     16  C   UNL     1       5.817   6.331  34.845  0.00  0.00    +0.414 C 
ATOM     17  O   UNL     1       5.049   6.677  33.948  0.00  0.00    -0.240 OA
ATOM     18  O   UNL     1       6.161   7.154  35.694  0.00  0.00    -0.240 OA
ENDBRANCH   7  16
BRANCH   9  19
ATOM     19  O   UNL     1       5.195   3.626  38.305  0.00  0.00    -0.390 OA
ATOM     20  H   UNL     1       4.420   3.836  38.831  0.00  0.00    +0.210 HD
ENDBRANCH   9  19
BRANCH   7  21
ATOM     21  O   UNL     1       7.665   4.817  34.311  0.00  0.00    -0.343 OA
ATOM     22  C   UNL     1       8.424   3.625  34.638  0.00  0.00    +0.198 C 
ENDBRANCH   7  21
ENDBRANCH   4   5
BRANCH   4  23
ATOM     23  O   UNL     1       3.711   1.539  33.865  0.00  0.00    -0.387 OA
ATOM     24  H   UNL     1       2.985   0.978  33.583  0.00  0.00    +0.210 HD
ENDBRANCH   4  23
ENDBRANCH   1   4
BRANCH   1  25
ATOM     25  C   UNL     1       2.542   2.614  31.366  0.00  0.00    +0.141 C 
BRANCH  25  28
ATOM     26  C   UNL     1       1.840   3.537  29.184  0.00  0.00    +0.401 C 
ATOM     27  O   UNL     1       0.731   3.896  29.587  0.00  0.00    -0.226 OA
ATOM     28  N   UNL     1       2.747   2.925  29.946  0.00  0.00    -0.279 N 
ATOM     29  H   UNL     1       3.626   2.660  29.522  0.00  0.00    +0.152 HD
BRANCH  26  30
ATOM     30  O   UNL     1       2.195   3.777  27.820  0.00  0.00    -0.444 OA
BRANCH  30  31
ATOM     31  C   UNL     1       1.240   3.150  26.960  0.00  0.00    +0.292 C 
BRANCH  31  33
ATOM     32  N   UNL     1       0.123   4.980  25.724  0.00  0.00    -0.131 NA
ATOM     33  C   UNL     1       1.035   3.956  25.743  0.00  0.00    +0.120 A 
ATOM     34  C   UNL     1       1.630   3.861  24.505  0.00  0.00    +0.137 A 
ATOM     35  N   UNL     1       1.029   4.843  23.779  0.00  0.00    -0.250 N 
ATOM     36  N   UNL     1       0.131   5.519  24.515  0.00  0.00    -0.065 NA
BRANCH  35  37
ATOM     37  C   UNL     1       1.213   5.161  22.378  0.00  0.00    +0.160 C 
BRANCH  37  38
ATOM     38  C   UNL     1       1.817   3.986  21.600  0.00  0.00    +0.107 C 
BRANCH  38  39
ATOM     39  N   UNL     1       1.054   3.648  20.386  0.00  0.00    -0.301 NA
ATOM     40  C   UNL     1      -0.043   4.581  20.117  0.00  0.00    +0.084 C 
ATOM     41  C   UNL     1      -0.378   4.286  18.669  0.00  0.00    +0.017 C 
ATOM     42  C   UNL     1       0.974   4.030  18.030  0.00  0.00    +0.017 C 
ATOM     43  C   UNL     1       1.903   3.670  19.185  0.00  0.00    +0.084 C 
ENDBRANCH  38  39
ENDBRANCH  37  38
ENDBRANCH  35  37
ENDBRANCH  31  33
ENDBRANCH  30  31
ENDBRANCH  26  30
ENDBRANCH  25  28
ENDBRANCH   1  25
TORSDOF 16
