REMARK VINA RESULT:    -6.206      1.785      2.380
REMARK INTER + INTRA:         -14.835
REMARK INTER:                 -12.966
REMARK INTRA:                  -1.869
REMARK UNBOUND:                -2.643
REMARK  Name = lig_assembled_37.pdb
REMARK  21 active torsions:
REMARK  status: ('A' for Active; 'I' for Inactive)
REMARK    1  A    between atoms: _2  and  _9
REMARK    2  A    between atoms: _4  and  _24
REMARK    3  A    between atoms: _6  and  _7
REMARK    4  A    between atoms: _6  and  _24
REMARK    5  A    between atoms: _9  and  _10
REMARK    6  A    between atoms: _9  and  _11
REMARK    7  A    between atoms: _11  and  _18
REMARK    8  A    between atoms: _12  and  _13
REMARK    9  A    between atoms: _12  and  _18
REMARK   10  A    between atoms: _20  and  _40
REMARK   11  A    between atoms: _22  and  _28
REMARK   12  A    between atoms: _23  and  _27
REMARK   13  A    between atoms: _27  and  _28
REMARK   14  A    between atoms: _30  and  _31
REMARK   15  A    between atoms: _32  and  _33
REMARK   16  A    between atoms: _34  and  _36
REMARK   17  A    between atoms: _36  and  _37
REMARK   18  A    between atoms: _36  and  _38
REMARK   19  A    between atoms: _38  and  _39
REMARK   20  A    between atoms: _38  and  _40
REMARK   21  A    between atoms: _41  and  _43
REMARK                            x       y       z     vdW  Elec       q    Type
REMARK                         _______ _______ _______ _____ _____    ______ ____
ROOT
ATOM      1  C   UNL     1       3.412   2.017  32.187  0.00  0.00    +0.141 C 
ENDROOT
BRANCH   1   4
ATOM      2  C   UNL     1       1.432   1.249  30.923  0.00  0.00    +0.401 C 
ATOM      3  O   UNL     1       0.863   0.785  31.914  0.00  0.00    -0.226 OA
ATOM      4  N   UNL     1       2.629   1.837  30.958  0.00  0.00    -0.279 N 
ATOM      5  H   UNL     1       3.018   2.178  30.091  0.00  0.00    +0.152 HD
BRANCH   2   6
ATOM      6  O   UNL     1       0.792   1.158  29.648  0.00  0.00    -0.444 OA
BRANCH   6   7
ATOM      7  C   UNL     1       0.267   2.438  29.285  0.00  0.00    +0.292 C 
BRANCH   7   9
ATOM      8  N   UNL     1       2.203   3.594  28.253  0.00  0.00    -0.131 NA
ATOM      9  C   UNL     1       0.987   2.976  28.115  0.00  0.00    +0.120 A 
ATOM     10  C   UNL     1       0.634   2.971  26.785  0.00  0.00    +0.138 A 
ATOM     11  N   UNL     1       1.659   3.624  26.166  0.00  0.00    -0.238 N 
ATOM     12  N   UNL     1       2.608   3.980  27.052  0.00  0.00    -0.065 NA
BRANCH  11  13
ATOM     13  C   UNL     1       1.858   3.894  24.756  0.00  0.00    +0.214 C 
ATOM     14  C   UNL     1       2.083   2.605  23.966  0.00  0.00    +0.045 C 
BRANCH  13  15
ATOM     15  C   UNL     1       0.694   4.667  24.177  0.00  0.00    +0.332 C 
ATOM     16  O   UNL     1       0.196   5.654  24.706  0.00  0.00    -0.248 OA
BRANCH  15  17
ATOM     17  O   UNL     1       0.277   4.120  23.004  0.00  0.00    -0.458 OA
BRANCH  17  18
ATOM     18  C   UNL     1      -0.087   5.046  21.969  0.00  0.00    +0.267 C 
BRANCH  18  19
ATOM     19  C   UNL     1       0.405   4.546  20.635  0.00  0.00    -0.010 A 
ATOM     20  C   UNL     1       1.671   3.954  20.521  0.00  0.00    +0.007 A 
ATOM     21  C   UNL     1       2.116   3.466  19.291  0.00  0.00    +0.000 A 
ATOM     22  C   UNL     1       1.303   3.567  18.164  0.00  0.00    +0.000 A 
ATOM     23  C   UNL     1       0.046   4.159  18.264  0.00  0.00    +0.000 A 
ATOM     24  C   UNL     1      -0.401   4.650  19.492  0.00  0.00    +0.007 A 
ENDBRANCH  18  19
ENDBRANCH  17  18
ENDBRANCH  15  17
ENDBRANCH  13  15
ENDBRANCH  11  13
ENDBRANCH   7   9
ENDBRANCH   6   7
ENDBRANCH   2   6
ENDBRANCH   1   4
BRANCH   1  25
ATOM     25  C   UNL     1       4.367   3.202  32.084  0.00  0.00    +0.163 C 
BRANCH  25  26
ATOM     26  O   UNL     1       3.840   4.323  32.812  0.00  0.00    -0.388 OA
ATOM     27  H   UNL     1       3.089   4.039  33.339  0.00  0.00    +0.210 HD
ENDBRANCH  25  26
BRANCH  25  28
ATOM     28  C   UNL     1       5.749   2.796  32.624  0.00  0.00    +0.175 C 
BRANCH  28  29
ATOM     29  C   UNL     1       6.013   3.368  34.025  0.00  0.00    +0.176 C 
ATOM     30  O   UNL     1       6.726   4.625  33.868  0.00  0.00    -0.332 OA
ATOM     31  C   UNL     1       6.972   5.373  35.105  0.00  0.00    +0.277 C 
ATOM     32  C   UNL     1       7.704   4.482  36.138  0.00  0.00    +0.110 C 
ATOM     33  C   UNL     1       7.000   3.120  36.316  0.00  0.00    +0.143 C 
ATOM     34  C   UNL     1       6.791   2.431  34.967  0.00  0.00    +0.133 C 
BRANCH  34  35
ATOM     35  N   UNL     1       6.043   1.176  35.141  0.00  0.00    -0.308 N 
ATOM     36  H   UNL     1       5.142   1.223  35.597  0.00  0.00    +0.149 HD
ATOM     37  C   UNL     1       6.475  -0.021  34.735  0.00  0.00    +0.210 C 
ATOM     38  C   UNL     1       7.863  -0.062  34.066  0.00  0.00    +0.109 C 
ATOM     39  O   UNL     1       5.820  -1.053  34.880  0.00  0.00    -0.276 OA
ENDBRANCH  34  35
BRANCH  31  40
ATOM     40  C   UNL     1       5.648   5.883  35.709  0.00  0.00    +0.414 C 
ATOM     41  O   UNL     1       4.667   6.066  34.989  0.00  0.00    -0.240 OA
ATOM     42  O   UNL     1       5.559   6.110  36.916  0.00  0.00    -0.240 OA
ENDBRANCH  31  40
BRANCH  31  43
ATOM     43  O   UNL     1       7.829   6.500  34.785  0.00  0.00    -0.343 OA
ATOM     44  C   UNL     1       7.564   7.705  35.546  0.00  0.00    +0.198 C 
ENDBRANCH  31  43
BRANCH  33  45
ATOM     45  O   UNL     1       7.787   2.277  37.158  0.00  0.00    -0.390 OA
ATOM     46  H   UNL     1       8.682   2.621  37.209  0.00  0.00    +0.210 HD
ENDBRANCH  33  45
ENDBRANCH  28  29
BRANCH  28  47
ATOM     47  O   UNL     1       6.782   3.220  31.712  0.00  0.00    -0.387 OA
ATOM     48  H   UNL     1       7.184   4.029  32.037  0.00  0.00    +0.210 HD
ENDBRANCH  28  47
ENDBRANCH  25  28
ENDBRANCH   1  25
TORSDOF 18
