REMARK VINA RESULT:    -6.049     14.587     19.499
REMARK INTER + INTRA:         -15.547
REMARK INTER:                 -12.872
REMARK INTRA:                  -2.674
REMARK UNBOUND:                -3.133
REMARK  Name = lig_assembled_90.pdb
REMARK  22 active torsions:
REMARK  status: ('A' for Active; 'I' for Inactive)
REMARK    1  A    between atoms: _2  and  _13
REMARK    2  A    between atoms: _3  and  _15
REMARK    3  A    between atoms: _4  and  _17
REMARK    4  A    between atoms: _8  and  _28
REMARK    5  A    between atoms: _10  and  _11
REMARK    6  A    between atoms: _10  and  _28
REMARK    7  A    between atoms: _13  and  _14
REMARK    8  A    between atoms: _15  and  _16
REMARK    9  A    between atoms: _16  and  _17
REMARK   10  A    between atoms: _16  and  _22
REMARK   11  A    between atoms: _24  and  _44
REMARK   12  A    between atoms: _26  and  _32
REMARK   13  A    between atoms: _27  and  _31
REMARK   14  A    between atoms: _31  and  _32
REMARK   15  A    between atoms: _34  and  _35
REMARK   16  A    between atoms: _36  and  _37
REMARK   17  A    between atoms: _38  and  _40
REMARK   18  A    between atoms: _40  and  _41
REMARK   19  A    between atoms: _40  and  _42
REMARK   20  A    between atoms: _42  and  _43
REMARK   21  A    between atoms: _42  and  _44
REMARK   22  A    between atoms: _45  and  _47
REMARK                            x       y       z     vdW  Elec       q    Type
REMARK                         _______ _______ _______ _____ _____    ______ ____
ROOT
ATOM      1  C   UNL     1       1.783   3.623  29.461  0.00  0.00    +0.401 C 
ATOM      2  O   UNL     1       0.734   4.042  29.956  0.00  0.00    -0.226 OA
ATOM      3  N   UNL     1       2.709   2.944  30.139  0.00  0.00    -0.279 N 
ATOM      4  H   UNL     1       3.532   2.633  29.642  0.00  0.00    +0.152 HD
ENDROOT
BRANCH   3   5
ATOM      5  C   UNL     1       2.600   2.623  31.567  0.00  0.00    +0.141 C 
BRANCH   5   6
ATOM      6  C   UNL     1       3.387   3.603  32.432  0.00  0.00    +0.163 C 
BRANCH   6   7
ATOM      7  O   UNL     1       2.606   3.988  33.574  0.00  0.00    -0.388 OA
ATOM      8  H   UNL     1       1.680   4.043  33.326  0.00  0.00    +0.210 HD
ENDBRANCH   6   7
BRANCH   6   9
ATOM      9  C   UNL     1       4.714   2.956  32.865  0.00  0.00    +0.175 C 
BRANCH   9  10
ATOM     10  C   UNL     1       5.334   3.666  34.077  0.00  0.00    +0.176 C 
ATOM     11  O   UNL     1       5.374   5.091  33.788  0.00  0.00    -0.332 OA
ATOM     12  C   UNL     1       5.843   5.947  34.883  0.00  0.00    +0.277 C 
ATOM     13  C   UNL     1       7.231   5.475  35.382  0.00  0.00    +0.110 C 
ATOM     14  C   UNL     1       7.246   3.959  35.672  0.00  0.00    +0.143 C 
ATOM     15  C   UNL     1       6.737   3.165  34.469  0.00  0.00    +0.133 C 
BRANCH  15  16
ATOM     16  N   UNL     1       6.675   1.730  34.788  0.00  0.00    -0.308 N 
ATOM     17  H   UNL     1       5.991   1.427  35.467  0.00  0.00    +0.149 HD
ATOM     18  C   UNL     1       7.463   0.802  34.238  0.00  0.00    +0.210 C 
ATOM     19  C   UNL     1       8.512   1.299  33.226  0.00  0.00    +0.109 C 
ATOM     20  O   UNL     1       7.378  -0.396  34.513  0.00  0.00    -0.276 OA
ENDBRANCH  15  16
BRANCH  12  21
ATOM     21  C   UNL     1       4.841   5.933  36.055  0.00  0.00    +0.414 C 
ATOM     22  O   UNL     1       5.210   6.230  37.191  0.00  0.00    -0.240 OA
ATOM     23  O   UNL     1       3.663   5.625  35.867  0.00  0.00    -0.240 OA
ENDBRANCH  12  21
BRANCH  14  24
ATOM     24  O   UNL     1       8.576   3.542  35.982  0.00  0.00    -0.390 OA
ATOM     25  H   UNL     1       9.162   4.303  35.973  0.00  0.00    +0.210 HD
ENDBRANCH  14  24
BRANCH  12  26
ATOM     26  O   UNL     1       5.976   7.297  34.370  0.00  0.00    -0.343 OA
ATOM     27  C   UNL     1       7.260   7.923  34.620  0.00  0.00    +0.198 C 
ENDBRANCH  12  26
ENDBRANCH   9  10
BRANCH   9  28
ATOM     28  O   UNL     1       5.644   2.946  31.764  0.00  0.00    -0.387 OA
ATOM     29  H   UNL     1       5.167   3.062  30.940  0.00  0.00    +0.210 HD
ENDBRANCH   9  28
ENDBRANCH   6   9
ENDBRANCH   5   6
ENDBRANCH   3   5
BRANCH   1  30
ATOM     30  O   UNL     1       2.040   3.863  28.075  0.00  0.00    -0.444 OA
BRANCH  30  31
ATOM     31  C   UNL     1       1.333   2.904  27.284  0.00  0.00    +0.292 C 
BRANCH  31  33
ATOM     32  N   UNL     1       0.041   4.825  26.396  0.00  0.00    -0.131 NA
ATOM     33  C   UNL     1       0.578   3.577  26.210  0.00  0.00    +0.120 A 
ATOM     34  C   UNL     1       0.281   3.147  24.937  0.00  0.00    +0.137 A 
ATOM     35  N   UNL     1      -0.417   4.182  24.392  0.00  0.00    -0.242 N 
ATOM     36  N   UNL     1      -0.576   5.183  25.277  0.00  0.00    -0.065 NA
BRANCH  35  37
ATOM     37  C   UNL     1      -1.048   4.252  23.096  0.00  0.00    +0.240 C 
BRANCH  37  38
ATOM     38  C   UNL     1      -0.114   4.835  22.060  0.00  0.00    +0.235 C 
ATOM     39  O   UNL     1      -0.161   6.015  21.716  0.00  0.00    -0.274 OA
ATOM     40  N   UNL     1       0.837   3.962  21.566  0.00  0.00    -0.311 N 
ATOM     41  H   UNL     1       0.675   2.963  21.659  0.00  0.00    +0.149 HD
BRANCH  40  42
ATOM     42  C   UNL     1       1.739   4.379  20.502  0.00  0.00    +0.137 C 
BRANCH  42  43
ATOM     43  C   UNL     1       1.609   3.467  19.273  0.00  0.00    +0.151 C 
BRANCH  43  44
ATOM     44  O   UNL     1       2.582   3.867  18.300  0.00  0.00    -0.388 OA
ATOM     45  H   UNL     1       2.841   4.795  18.474  0.00  0.00    +0.210 HD
ENDBRANCH  43  44
BRANCH  43  46
ATOM     46  C   UNL     1       1.770   1.988  19.646  0.00  0.00    +0.162 C 
BRANCH  46  47
ATOM     47  N   UNL     1       0.687   1.163  19.129  0.00  0.00    -0.269 N 
ATOM     48  C   UNL     1      -0.482   0.936  19.823  0.00  0.00    +0.113 A 
ATOM     49  C   UNL     1      -1.224   0.087  19.038  0.00  0.00    +0.137 A 
ATOM     50  N   UNL     1      -0.549  -0.219  17.885  0.00  0.00    -0.172 NA
ATOM     51  C   UNL     1       0.591   0.450  17.959  0.00  0.00    +0.450 A 
ATOM     52  N   UNL     1       1.586   0.397  16.915  0.00  0.00    +0.120 N 
ATOM     53  O   UNL     1       2.571   1.140  17.021  0.00  0.00    +0.045 OA
ATOM     54  O   UNL     1       1.392  -0.398  15.987  0.00  0.00    -0.573 OA
ENDBRANCH  46  47
ENDBRANCH  43  46
ENDBRANCH  42  43
ENDBRANCH  40  42
ENDBRANCH  37  38
ENDBRANCH  35  37
ENDBRANCH  31  33
ENDBRANCH  30  31
ENDBRANCH   1  30
TORSDOF 20
