REMARK VINA RESULT:    -5.854      4.344      9.465
REMARK INTER + INTRA:         -12.729
REMARK INTER:                 -10.434
REMARK INTRA:                  -2.295
REMARK UNBOUND:                -2.083
REMARK  Name = lig_assembled_35.pdb
REMARK  19 active torsions:
REMARK  status: ('A' for Active; 'I' for Inactive)
REMARK    1  A    between atoms: _2  and  _9
REMARK    2  A    between atoms: _4  and  _17
REMARK    3  A    between atoms: _5  and  _9
REMARK    4  A    between atoms: _5  and  _11
REMARK    5  A    between atoms: _6  and  _7
REMARK    6  A    between atoms: _6  and  _17
REMARK    7  A    between atoms: _9  and  _10
REMARK    8  A    between atoms: _13  and  _33
REMARK    9  A    between atoms: _15  and  _21
REMARK   10  A    between atoms: _16  and  _20
REMARK   11  A    between atoms: _20  and  _21
REMARK   12  A    between atoms: _23  and  _24
REMARK   13  A    between atoms: _25  and  _26
REMARK   14  A    between atoms: _27  and  _29
REMARK   15  A    between atoms: _29  and  _30
REMARK   16  A    between atoms: _29  and  _31
REMARK   17  A    between atoms: _31  and  _32
REMARK   18  A    between atoms: _31  and  _33
REMARK   19  A    between atoms: _34  and  _36
REMARK                            x       y       z     vdW  Elec       q    Type
REMARK                         _______ _______ _______ _____ _____    ______ ____
ROOT
ATOM      1  C   UNL     1      17.031   1.656  26.988  0.00  0.00    +0.163 C 
ENDROOT
BRANCH   1   2
ATOM      2  O   UNL     1      16.411   2.864  26.518  0.00  0.00    -0.388 OA
ATOM      3  H   UNL     1      16.877   3.181  25.740  0.00  0.00    +0.210 HD
ENDBRANCH   1   2
BRANCH   1   4
ATOM      4  C   UNL     1      16.652   0.460  26.097  0.00  0.00    +0.175 C 
BRANCH   4   5
ATOM      5  C   UNL     1      17.469   0.426  24.797  0.00  0.00    +0.176 C 
ATOM      6  O   UNL     1      16.957   1.467  23.920  0.00  0.00    -0.332 OA
ATOM      7  C   UNL     1      17.689   1.655  22.664  0.00  0.00    +0.277 C 
ATOM      8  C   UNL     1      17.786   0.318  21.889  0.00  0.00    +0.110 C 
ATOM      9  C   UNL     1      18.297  -0.826  22.790  0.00  0.00    +0.143 C 
ATOM     10  C   UNL     1      17.466  -0.930  24.069  0.00  0.00    +0.133 C 
BRANCH  10  11
ATOM     11  N   UNL     1      18.015  -1.966  24.958  0.00  0.00    -0.308 N 
ATOM     12  H   UNL     1      18.968  -1.858  25.276  0.00  0.00    +0.149 HD
ATOM     13  C   UNL     1      17.338  -3.041  25.371  0.00  0.00    +0.210 C 
ATOM     14  C   UNL     1      15.897  -3.191  24.847  0.00  0.00    +0.109 C 
ATOM     15  O   UNL     1      17.819  -3.885  26.127  0.00  0.00    -0.276 OA
ENDBRANCH  10  11
BRANCH   7  16
ATOM     16  C   UNL     1      19.107   2.199  22.934  0.00  0.00    +0.414 C 
ATOM     17  O   UNL     1      19.283   3.086  23.768  0.00  0.00    -0.240 OA
ATOM     18  O   UNL     1      20.075   1.750  22.319  0.00  0.00    -0.240 OA
ENDBRANCH   7  16
BRANCH   7  19
ATOM     19  O   UNL     1      16.950   2.602  21.851  0.00  0.00    -0.343 OA
ATOM     20  C   UNL     1      16.745   2.198  20.474  0.00  0.00    +0.198 C 
ENDBRANCH   7  19
BRANCH   9  21
ATOM     21  O   UNL     1      18.227  -2.064  22.081  0.00  0.00    -0.390 OA
ATOM     22  H   UNL     1      19.005  -2.591  22.278  0.00  0.00    +0.210 HD
ENDBRANCH   9  21
ENDBRANCH   4   5
BRANCH   4  23
ATOM     23  O   UNL     1      15.243   0.491  25.798  0.00  0.00    -0.387 OA
ATOM     24  H   UNL     1      14.978   1.391  25.595  0.00  0.00    +0.210 HD
ENDBRANCH   4  23
ENDBRANCH   1   4
BRANCH   1  25
ATOM     25  C   UNL     1      18.547   1.819  27.004  0.00  0.00    +0.141 C 
BRANCH  25  28
ATOM     26  C   UNL     1      20.216   3.632  26.823  0.00  0.00    +0.401 C 
ATOM     27  O   UNL     1      21.183   2.889  27.007  0.00  0.00    -0.226 OA
ATOM     28  N   UNL     1      18.949   3.218  26.811  0.00  0.00    -0.279 N 
ATOM     29  H   UNL     1      18.224   3.906  26.661  0.00  0.00    +0.152 HD
BRANCH  26  30
ATOM     30  O   UNL     1      20.445   5.028  26.610  0.00  0.00    -0.444 OA
BRANCH  30  31
ATOM     31  C   UNL     1      19.190   5.707  26.509  0.00  0.00    +0.292 C 
BRANCH  31  33
ATOM     32  N   UNL     1      18.957   6.908  28.660  0.00  0.00    -0.131 NA
ATOM     33  C   UNL     1      19.211   6.943  27.315  0.00  0.00    +0.120 A 
ATOM     34  C   UNL     1      19.455   8.244  26.937  0.00  0.00    +0.138 A 
ATOM     35  N   UNL     1      19.350   8.950  28.100  0.00  0.00    -0.238 N 
ATOM     36  N   UNL     1      19.029   8.146  29.127  0.00  0.00    -0.065 NA
BRANCH  35  37
ATOM     37  C   UNL     1      19.502  10.373  28.337  0.00  0.00    +0.214 C 
ATOM     38  C   UNL     1      19.067  11.179  27.116  0.00  0.00    +0.045 C 
BRANCH  37  39
ATOM     39  C   UNL     1      18.777  10.806  29.595  0.00  0.00    +0.329 C 
ATOM     40  O   UNL     1      19.333  11.168  30.623  0.00  0.00    -0.249 OA
BRANCH  39  41
ATOM     41  O   UNL     1      17.425  10.737  29.514  0.00  0.00    -0.479 OA
ATOM     42  H   UNL     1      17.070  10.161  28.807  0.00  0.00    +0.295 HD
ENDBRANCH  39  41
ENDBRANCH  37  39
ENDBRANCH  35  37
ENDBRANCH  31  33
ENDBRANCH  30  31
ENDBRANCH  26  30
ENDBRANCH  25  28
ENDBRANCH   1  25
TORSDOF 16
