REMARK VINA RESULT:    -7.201     20.753     24.045
REMARK INTER + INTRA:         -15.372
REMARK INTER:                 -12.802
REMARK INTRA:                  -2.569
REMARK UNBOUND:                -2.067
REMARK  Name = lig_assembled_79.pdb
REMARK  20 active torsions:
REMARK  status: ('A' for Active; 'I' for Inactive)
REMARK    1  A    between atoms: _2  and  _10
REMARK    2  A    between atoms: _5  and  _26
REMARK    3  A    between atoms: _7  and  _8
REMARK    4  A    between atoms: _7  and  _26
REMARK    5  A    between atoms: _10  and  _11
REMARK    6  A    between atoms: _10  and  _12
REMARK    7  A    between atoms: _10  and  _13
REMARK    8  A    between atoms: _13  and  _14
REMARK    9  A    between atoms: _22  and  _42
REMARK   10  A    between atoms: _24  and  _30
REMARK   11  A    between atoms: _25  and  _29
REMARK   12  A    between atoms: _29  and  _30
REMARK   13  A    between atoms: _32  and  _33
REMARK   14  A    between atoms: _34  and  _35
REMARK   15  A    between atoms: _36  and  _38
REMARK   16  A    between atoms: _38  and  _39
REMARK   17  A    between atoms: _38  and  _40
REMARK   18  A    between atoms: _40  and  _41
REMARK   19  A    between atoms: _40  and  _42
REMARK   20  A    between atoms: _43  and  _45
REMARK                            x       y       z     vdW  Elec       q    Type
REMARK                         _______ _______ _______ _____ _____    ______ ____
ROOT
ATOM      1  C   UNL     1      18.612   3.244  27.627  0.00  0.00    +0.401 C 
ATOM      2  O   UNL     1      18.140   3.348  28.761  0.00  0.00    -0.226 OA
ATOM      3  N   UNL     1      18.282   2.279  26.768  0.00  0.00    -0.279 N 
ATOM      4  H   UNL     1      18.716   2.283  25.856  0.00  0.00    +0.152 HD
ENDROOT
BRANCH   3   5
ATOM      5  C   UNL     1      17.324   1.210  27.073  0.00  0.00    +0.141 C 
BRANCH   5   6
ATOM      6  C   UNL     1      16.260   1.073  25.989  0.00  0.00    +0.163 C 
BRANCH   6   7
ATOM      7  O   UNL     1      16.338   2.184  25.081  0.00  0.00    -0.388 OA
ATOM      8  H   UNL     1      17.254   2.333  24.834  0.00  0.00    +0.210 HD
ENDBRANCH   6   7
BRANCH   6   9
ATOM      9  C   UNL     1      16.452  -0.260  25.246  0.00  0.00    +0.175 C 
BRANCH   9  10
ATOM     10  C   UNL     1      17.560  -0.176  24.186  0.00  0.00    +0.176 C 
ATOM     11  O   UNL     1      17.133   0.767  23.165  0.00  0.00    -0.332 OA
ATOM     12  C   UNL     1      18.117   1.057  22.118  0.00  0.00    +0.277 C 
ATOM     13  C   UNL     1      18.599  -0.254  21.450  0.00  0.00    +0.110 C 
ATOM     14  C   UNL     1      19.034  -1.300  22.498  0.00  0.00    +0.143 C 
ATOM     15  C   UNL     1      17.938  -1.522  23.540  0.00  0.00    +0.133 C 
BRANCH  15  16
ATOM     16  N   UNL     1      18.397  -2.455  24.581  0.00  0.00    -0.308 N 
ATOM     17  H   UNL     1      19.150  -2.155  25.184  0.00  0.00    +0.149 HD
ATOM     18  C   UNL     1      17.885  -3.672  24.781  0.00  0.00    +0.210 C 
ATOM     19  C   UNL     1      16.756  -4.110  23.828  0.00  0.00    +0.109 C 
ATOM     20  O   UNL     1      18.280  -4.427  25.670  0.00  0.00    -0.276 OA
ENDBRANCH  15  16
BRANCH  12  21
ATOM     21  C   UNL     1      19.328   1.815  22.700  0.00  0.00    +0.414 C 
ATOM     22  O   UNL     1      19.224   2.427  23.763  0.00  0.00    -0.240 OA
ATOM     23  O   UNL     1      20.408   1.814  22.108  0.00  0.00    -0.240 OA
ENDBRANCH  12  21
BRANCH  14  24
ATOM     24  O   UNL     1      19.325  -2.539  21.850  0.00  0.00    -0.390 OA
ATOM     25  H   UNL     1      19.579  -2.372  20.939  0.00  0.00    +0.210 HD
ENDBRANCH  14  24
BRANCH  12  26
ATOM     26  O   UNL     1      17.470   1.874  21.108  0.00  0.00    -0.343 OA
ATOM     27  C   UNL     1      16.710   2.996  21.623  0.00  0.00    +0.198 C 
ENDBRANCH  12  26
ENDBRANCH   9  10
BRANCH   9  28
ATOM     28  O   UNL     1      15.212  -0.672  24.636  0.00  0.00    -0.387 OA
ATOM     29  H   UNL     1      14.477  -0.261  25.096  0.00  0.00    +0.210 HD
ENDBRANCH   9  28
ENDBRANCH   6   9
ENDBRANCH   5   6
ENDBRANCH   3   5
BRANCH   1  30
ATOM     30  O   UNL     1      19.570   4.208  27.182  0.00  0.00    -0.444 OA
BRANCH  30  31
ATOM     31  C   UNL     1      18.974   5.051  26.191  0.00  0.00    +0.292 C 
BRANCH  31  33
ATOM     32  N   UNL     1      18.402   7.432  25.896  0.00  0.00    -0.131 NA
ATOM     33  C   UNL     1      18.995   6.455  26.640  0.00  0.00    +0.120 A 
ATOM     34  C   UNL     1      19.554   7.020  27.765  0.00  0.00    +0.138 A 
ATOM     35  N   UNL     1      19.193   8.338  27.703  0.00  0.00    -0.238 N 
ATOM     36  N   UNL     1      18.566   8.584  26.526  0.00  0.00    -0.064 NA
BRANCH  35  37
ATOM     37  C   UNL     1      19.547   9.490  28.582  0.00  0.00    +0.122 C 
ATOM     38  C   UNL     1      18.357  10.476  28.515  0.00  0.00    +0.044 C 
ATOM     39  C   UNL     1      20.870  10.035  28.009  0.00  0.00    +0.044 C 
BRANCH  37  40
ATOM     40  C   UNL     1      19.737   9.098  30.062  0.00  0.00    +0.192 C 
ATOM     41  O   UNL     1      20.869   9.061  30.556  0.00  0.00    -0.289 OA
BRANCH  40  42
ATOM     42  C   UNL     1      18.596   8.731  30.950  0.00  0.00    +0.045 A 
ATOM     43  C   UNL     1      18.221   7.398  31.079  0.00  0.00    +0.095 A 
ATOM     44  N   UNL     1      17.147   7.301  31.911  0.00  0.00    -0.360 N 
ATOM     45  H   UNL     1      16.677   6.442  32.161  0.00  0.00    +0.165 HD
ATOM     46  C   UNL     1      16.785   8.546  32.355  0.00  0.00    +0.047 A 
ATOM     47  C   UNL     1      15.734   8.901  33.213  0.00  0.00    +0.026 A 
ATOM     48  C   UNL     1      15.559  10.250  33.519  0.00  0.00    +0.002 A 
ATOM     49  C   UNL     1      16.408  11.207  32.986  0.00  0.00    +0.001 A 
ATOM     50  C   UNL     1      17.452  10.832  32.132  0.00  0.00    +0.011 A 
ATOM     51  C   UNL     1      17.669   9.474  31.786  0.00  0.00    +0.010 A 
ENDBRANCH  40  42
ENDBRANCH  37  40
ENDBRANCH  35  37
ENDBRANCH  31  33
ENDBRANCH  30  31
ENDBRANCH   1  30
TORSDOF 16
