REMARK VINA RESULT:    -6.369      8.315     13.063
REMARK INTER + INTRA:         -13.456
REMARK INTER:                 -11.060
REMARK INTRA:                  -2.396
REMARK UNBOUND:                -1.873
REMARK  Name = lig_assembled_60.pdb
REMARK  18 active torsions:
REMARK  status: ('A' for Active; 'I' for Inactive)
REMARK    1  A    between atoms: _2  and  _10
REMARK    2  A    between atoms: _3  and  _41
REMARK    3  A    between atoms: _5  and  _21
REMARK    4  A    between atoms: _7  and  _8
REMARK    5  A    between atoms: _7  and  _21
REMARK    6  A    between atoms: _13  and  _41
REMARK    7  A    between atoms: _17  and  _37
REMARK    8  A    between atoms: _19  and  _25
REMARK    9  A    between atoms: _20  and  _24
REMARK   10  A    between atoms: _24  and  _25
REMARK   11  A    between atoms: _27  and  _28
REMARK   12  A    between atoms: _29  and  _30
REMARK   13  A    between atoms: _31  and  _33
REMARK   14  A    between atoms: _33  and  _34
REMARK   15  A    between atoms: _33  and  _35
REMARK   16  A    between atoms: _35  and  _36
REMARK   17  A    between atoms: _35  and  _37
REMARK   18  A    between atoms: _38  and  _40
REMARK                            x       y       z     vdW  Elec       q    Type
REMARK                         _______ _______ _______ _____ _____    ______ ____
ROOT
ATOM      1  C   UNL     1       8.942   0.851  35.528  0.00  0.00    +0.141 C 
ENDROOT
BRANCH   1   4
ATOM      2  C   UNL     1      11.182   0.793  36.570  0.00  0.00    +0.401 C 
ATOM      3  O   UNL     1      10.765   0.408  37.665  0.00  0.00    -0.226 OA
ATOM      4  N   UNL     1      10.399   1.031  35.517  0.00  0.00    -0.279 N 
ATOM      5  H   UNL     1      10.833   1.354  34.664  0.00  0.00    +0.152 HD
BRANCH   2   6
ATOM      6  O   UNL     1      12.585   1.008  36.397  0.00  0.00    -0.444 OA
BRANCH   6   7
ATOM      7  C   UNL     1      12.963   2.231  37.035  0.00  0.00    +0.292 C 
BRANCH   7   9
ATOM      8  N   UNL     1      13.346   3.002  34.714  0.00  0.00    -0.131 NA
ATOM      9  C   UNL     1      13.553   3.160  36.054  0.00  0.00    +0.121 A 
ATOM     10  C   UNL     1      14.339   4.271  36.259  0.00  0.00    +0.143 A 
ATOM     11  N   UNL     1      14.561   4.787  35.002  0.00  0.00    -0.220 N 
ATOM     12  N   UNL     1      13.969   3.988  34.081  0.00  0.00    -0.060 NA
BRANCH  11  13
ATOM     13  C   UNL     1      15.244   5.978  34.642  0.00  0.00    +0.067 A 
ATOM     14  C   UNL     1      15.517   6.963  35.603  0.00  0.00    +0.030 A 
ATOM     15  C   UNL     1      16.126   8.161  35.225  0.00  0.00    +0.030 A 
ATOM     16  C   UNL     1      16.477   8.370  33.888  0.00  0.00    +0.105 A 
ATOM     17  C   UNL     1      16.224   7.389  32.925  0.00  0.00    +0.030 A 
ATOM     18  C   UNL     1      15.614   6.190  33.304  0.00  0.00    +0.030 A 
BRANCH  16  19
ATOM     19  S   UNL     1      17.176   9.922  33.409  0.00  0.00    +0.056 S 
ATOM     20  O   UNL     1      18.535  10.001  33.889  0.00  0.00    -0.153 OA
ATOM     21  O   UNL     1      16.820  10.196  32.036  0.00  0.00    -0.153 OA
BRANCH  19  22
ATOM     22  N   UNL     1      16.290  10.997  34.342  0.00  0.00    -0.204 NA
ATOM     23  H   UNL     1      16.806  11.870  34.449  0.00  0.00    +0.144 HD
ATOM     24  H   UNL     1      16.036  10.557  35.228  0.00  0.00    +0.144 HD
ENDBRANCH  19  22
ENDBRANCH  16  19
ENDBRANCH  11  13
ENDBRANCH   7   9
ENDBRANCH   6   7
ENDBRANCH   2   6
ENDBRANCH   1   4
BRANCH   1  25
ATOM     25  C   UNL     1       8.213   2.135  35.906  0.00  0.00    +0.163 C 
BRANCH  25  26
ATOM     26  O   UNL     1       8.421   2.427  37.298  0.00  0.00    -0.388 OA
ATOM     27  H   UNL     1       7.814   3.117  37.575  0.00  0.00    +0.210 HD
ENDBRANCH  25  26
BRANCH  25  28
ATOM     28  C   UNL     1       8.713   3.290  35.022  0.00  0.00    +0.175 C 
BRANCH  28  29
ATOM     29  C   UNL     1       7.682   4.423  34.912  0.00  0.00    +0.176 C 
ATOM     30  O   UNL     1       7.619   5.096  36.200  0.00  0.00    -0.332 OA
ATOM     31  C   UNL     1       6.757   6.281  36.255  0.00  0.00    +0.277 C 
ATOM     32  C   UNL     1       5.326   5.931  35.776  0.00  0.00    +0.110 C 
ATOM     33  C   UNL     1       5.344   5.186  34.425  0.00  0.00    +0.143 C 
ATOM     34  C   UNL     1       6.274   3.973  34.480  0.00  0.00    +0.133 C 
BRANCH  34  35
ATOM     35  N   UNL     1       6.350   3.322  33.162  0.00  0.00    -0.308 N 
ATOM     36  H   UNL     1       6.818   3.818  32.417  0.00  0.00    +0.149 HD
ATOM     37  C   UNL     1       5.840   2.118  32.887  0.00  0.00    +0.210 C 
ATOM     38  C   UNL     1       5.110   1.399  34.037  0.00  0.00    +0.109 C 
ATOM     39  O   UNL     1       5.931   1.591  31.778  0.00  0.00    -0.276 OA
ENDBRANCH  34  35
BRANCH  31  40
ATOM     40  C   UNL     1       7.330   7.415  35.380  0.00  0.00    +0.414 C 
ATOM     41  O   UNL     1       8.505   7.759  35.503  0.00  0.00    -0.240 OA
ATOM     42  O   UNL     1       6.619   7.986  34.553  0.00  0.00    -0.240 OA
ENDBRANCH  31  40
BRANCH  33  43
ATOM     43  O   UNL     1       4.023   4.751  34.097  0.00  0.00    -0.390 OA
ATOM     44  H   UNL     1       3.582   5.430  33.581  0.00  0.00    +0.210 HD
ENDBRANCH  33  43
BRANCH  31  45
ATOM     45  O   UNL     1       6.683   6.719  37.636  0.00  0.00    -0.343 OA
ATOM     46  C   UNL     1       5.461   6.357  38.328  0.00  0.00    +0.198 C 
ENDBRANCH  31  45
ENDBRANCH  28  29
BRANCH  28  47
ATOM     47  O   UNL     1       9.053   2.800  33.710  0.00  0.00    -0.387 OA
ATOM     48  H   UNL     1       9.330   1.882  33.772  0.00  0.00    +0.210 HD
ENDBRANCH  28  47
ENDBRANCH  25  28
ENDBRANCH   1  25
TORSDOF 16
