REMARK VINA RESULT:    -5.772      4.420      6.450
REMARK INTER + INTRA:         -12.864
REMARK INTER:                 -10.816
REMARK INTRA:                  -2.047
REMARK UNBOUND:                -2.536
REMARK  Name = lig_assembled_44.pdb
REMARK  17 active torsions:
REMARK  status: ('A' for Active; 'I' for Inactive)
REMARK    1  A    between atoms: _2  and  _9
REMARK    2  A    between atoms: _4  and  _19
REMARK    3  A    between atoms: _6  and  _7
REMARK    4  A    between atoms: _6  and  _19
REMARK    5  A    between atoms: _9  and  _10
REMARK    6  A    between atoms: _15  and  _35
REMARK    7  A    between atoms: _17  and  _23
REMARK    8  A    between atoms: _18  and  _22
REMARK    9  A    between atoms: _22  and  _23
REMARK   10  A    between atoms: _25  and  _26
REMARK   11  A    between atoms: _27  and  _28
REMARK   12  A    between atoms: _29  and  _31
REMARK   13  A    between atoms: _31  and  _32
REMARK   14  A    between atoms: _31  and  _33
REMARK   15  A    between atoms: _33  and  _34
REMARK   16  A    between atoms: _33  and  _35
REMARK   17  A    between atoms: _36  and  _38
REMARK                            x       y       z     vdW  Elec       q    Type
REMARK                         _______ _______ _______ _____ _____    ______ ____
ROOT
ATOM      1  C   UNL     1       7.952   2.445  34.337  0.00  0.00    +0.163 C 
ENDROOT
BRANCH   1   2
ATOM      2  O   UNL     1       8.741   2.708  35.509  0.00  0.00    -0.388 OA
ATOM      3  H   UNL     1       9.341   1.974  35.663  0.00  0.00    +0.210 HD
ENDBRANCH   1   2
BRANCH   1   4
ATOM      4  C   UNL     1       8.526   1.252  33.579  0.00  0.00    +0.141 C 
BRANCH   4   7
ATOM      5  C   UNL     1       7.380  -0.787  32.781  0.00  0.00    +0.401 C 
ATOM      6  O   UNL     1       8.135  -1.558  33.377  0.00  0.00    -0.226 OA
ATOM      7  N   UNL     1       7.493   0.542  32.814  0.00  0.00    -0.279 N 
ATOM      8  H   UNL     1       6.831   1.090  32.284  0.00  0.00    +0.152 HD
BRANCH   5   9
ATOM      9  O   UNL     1       6.314  -1.327  31.996  0.00  0.00    -0.444 OA
BRANCH   9  10
ATOM     10  C   UNL     1       6.777  -2.482  31.291  0.00  0.00    +0.292 C 
BRANCH  10  12
ATOM     11  N   UNL     1       7.216  -1.911  28.920  0.00  0.00    -0.131 NA
ATOM     12  C   UNL     1       6.374  -2.418  29.874  0.00  0.00    +0.120 A 
ATOM     13  C   UNL     1       5.205  -2.825  29.273  0.00  0.00    +0.137 A 
ATOM     14  N   UNL     1       5.429  -2.612  27.944  0.00  0.00    -0.247 N 
ATOM     15  N   UNL     1       6.622  -2.024  27.739  0.00  0.00    -0.065 NA
BRANCH  14  16
ATOM     16  C   UNL     1       4.567  -2.937  26.825  0.00  0.00    +0.180 C 
BRANCH  16  17
ATOM     17  C   UNL     1       3.876  -1.709  26.283  0.00  0.00    -0.026 A 
ATOM     18  C   UNL     1       4.039  -1.329  24.941  0.00  0.00    +0.006 A 
ATOM     19  C   UNL     1       3.413  -0.184  24.446  0.00  0.00    +0.015 A 
ATOM     20  C   UNL     1       2.619   0.590  25.291  0.00  0.00    +0.018 A 
ATOM     21 BR   UNL     1       1.758   2.131  24.615  0.00  0.00    -0.050 Br
ATOM     22  C   UNL     1       2.456   0.237  26.628  0.00  0.00    +0.015 A 
ATOM     23  C   UNL     1       3.088  -0.908  27.125  0.00  0.00    +0.006 A 
ENDBRANCH  16  17
ENDBRANCH  14  16
ENDBRANCH  10  12
ENDBRANCH   9  10
ENDBRANCH   5   9
ENDBRANCH   4   7
ENDBRANCH   1   4
BRANCH   1  24
ATOM     24  C   UNL     1       7.916   3.673  33.411  0.00  0.00    +0.175 C 
BRANCH  24  25
ATOM     25  C   UNL     1       7.026   4.792  33.970  0.00  0.00    +0.176 C 
ATOM     26  O   UNL     1       7.736   5.420  35.072  0.00  0.00    -0.332 OA
ATOM     27  C   UNL     1       7.080   6.588  35.666  0.00  0.00    +0.277 C 
ATOM     28  C   UNL     1       5.638   6.233  36.107  0.00  0.00    +0.110 C 
ATOM     29  C   UNL     1       4.853   5.535  34.977  0.00  0.00    +0.143 C 
ATOM     30  C   UNL     1       5.629   4.336  34.430  0.00  0.00    +0.133 C 
BRANCH  30  31
ATOM     31  N   UNL     1       4.911   3.731  33.297  0.00  0.00    -0.308 N 
ATOM     32  H   UNL     1       4.840   4.268  32.443  0.00  0.00    +0.149 HD
ATOM     33  C   UNL     1       4.349   2.520  33.322  0.00  0.00    +0.210 C 
ATOM     34  C   UNL     1       4.453   1.739  34.645  0.00  0.00    +0.109 C 
ATOM     35  O   UNL     1       3.766   2.033  32.352  0.00  0.00    -0.276 OA
ENDBRANCH  30  31
BRANCH  27  36
ATOM     36  C   UNL     1       7.039   7.761  34.664  0.00  0.00    +0.414 C 
ATOM     37  O   UNL     1       5.960   8.193  34.259  0.00  0.00    -0.240 OA
ATOM     38  O   UNL     1       8.083   8.275  34.262  0.00  0.00    -0.240 OA
ENDBRANCH  27  36
BRANCH  27  39
ATOM     39  O   UNL     1       7.835   6.978  36.843  0.00  0.00    -0.343 OA
ATOM     40  C   UNL     1       9.063   6.237  37.055  0.00  0.00    +0.198 C 
ENDBRANCH  27  39
BRANCH  29  41
ATOM     41  O   UNL     1       3.589   5.091  35.471  0.00  0.00    -0.390 OA
ATOM     42  H   UNL     1       3.132   5.826  35.887  0.00  0.00    +0.210 HD
ENDBRANCH  29  41
ENDBRANCH  24  25
BRANCH  24  43
ATOM     43  O   UNL     1       7.466   3.290  32.096  0.00  0.00    -0.387 OA
ATOM     44  H   UNL     1       7.871   3.862  31.439  0.00  0.00    +0.210 HD
ENDBRANCH  24  43
ENDBRANCH   1  24
TORSDOF 15
