REMARK VINA RESULT:    -5.910     14.362     17.977
REMARK INTER + INTRA:         -13.889
REMARK INTER:                 -11.455
REMARK INTRA:                  -2.434
REMARK UNBOUND:                -3.313
REMARK  Name = lig_assembled_71.pdb
REMARK  17 active torsions:
REMARK  status: ('A' for Active; 'I' for Inactive)
REMARK    1  A    between atoms: _2  and  _12
REMARK    2  A    between atoms: _7  and  _22
REMARK    3  A    between atoms: _9  and  _10
REMARK    4  A    between atoms: _9  and  _22
REMARK    5  A    between atoms: _12  and  _13
REMARK    6  A    between atoms: _18  and  _38
REMARK    7  A    between atoms: _20  and  _26
REMARK    8  A    between atoms: _21  and  _25
REMARK    9  A    between atoms: _25  and  _26
REMARK   10  A    between atoms: _28  and  _29
REMARK   11  A    between atoms: _30  and  _31
REMARK   12  A    between atoms: _32  and  _34
REMARK   13  A    between atoms: _34  and  _35
REMARK   14  A    between atoms: _34  and  _36
REMARK   15  A    between atoms: _36  and  _37
REMARK   16  A    between atoms: _36  and  _38
REMARK   17  A    between atoms: _39  and  _41
REMARK                            x       y       z     vdW  Elec       q    Type
REMARK                         _______ _______ _______ _____ _____    ______ ____
ROOT
ATOM      1  C   UNL     1      17.113   1.611  26.917  0.00  0.00    +0.163 C 
ENDROOT
BRANCH   1   2
ATOM      2  O   UNL     1      16.587   2.876  26.483  0.00  0.00    -0.388 OA
ATOM      3  H   UNL     1      16.351   3.404  27.249  0.00  0.00    +0.210 HD
ENDBRANCH   1   2
BRANCH   1   4
ATOM      4  C   UNL     1      18.636   1.662  26.950  0.00  0.00    +0.141 C 
BRANCH   4   7
ATOM      5  C   UNL     1      20.254   3.529  27.008  0.00  0.00    +0.401 C 
ATOM      6  O   UNL     1      20.953   3.020  27.887  0.00  0.00    -0.226 OA
ATOM      7  N   UNL     1      19.150   2.967  26.515  0.00  0.00    -0.279 N 
ATOM      8  H   UNL     1      18.637   3.467  25.802  0.00  0.00    +0.152 HD
BRANCH   5   9
ATOM      9  O   UNL     1      20.628   4.801  26.473  0.00  0.00    -0.444 OA
BRANCH   9  10
ATOM     10  C   UNL     1      19.455   5.587  26.245  0.00  0.00    +0.292 C 
BRANCH  10  12
ATOM     11  N   UNL     1      19.020   6.315  28.578  0.00  0.00    -0.131 NA
ATOM     12  C   UNL     1      19.327   6.630  27.280  0.00  0.00    +0.120 A 
ATOM     13  C   UNL     1      19.477   7.993  27.175  0.00  0.00    +0.137 A 
ATOM     14  N   UNL     1      19.234   8.455  28.435  0.00  0.00    -0.242 N 
ATOM     15  N   UNL     1      18.974   7.441  29.280  0.00  0.00    -0.065 NA
BRANCH  14  16
ATOM     16  C   UNL     1      19.340   9.810  28.939  0.00  0.00    +0.241 C 
BRANCH  16  17
ATOM     17  C   UNL     1      18.266  10.116  29.949  0.00  0.00    +0.241 C 
ATOM     18  O   UNL     1      17.250  10.718  29.605  0.00  0.00    -0.273 OA
ATOM     19  N   UNL     1      18.570   9.739  31.240  0.00  0.00    -0.253 N 
ATOM     20  H   UNL     1      19.493   9.435  31.509  0.00  0.00    +0.158 HD
ATOM     21  C   UNL     1      17.709   9.907  32.320  0.00  0.00    +0.221 A 
ATOM     22  N   UNL     1      18.269   9.758  33.529  0.00  0.00    -0.223 NA
ATOM     23  C   UNL     1      17.466   9.992  34.590  0.00  0.00    +0.116 A 
ATOM     24  C   UNL     1      16.140  10.334  34.484  0.00  0.00    +0.039 A 
ATOM     25  C   UNL     1      15.658  10.414  33.204  0.00  0.00    +0.116 A 
ATOM     26  N   UNL     1      16.422  10.206  32.121  0.00  0.00    -0.223 NA
ENDBRANCH  16  17
ENDBRANCH  14  16
ENDBRANCH  10  12
ENDBRANCH   9  10
ENDBRANCH   5   9
ENDBRANCH   4   7
ENDBRANCH   1   4
BRANCH   1  27
ATOM     27  C   UNL     1      16.657   0.476  25.983  0.00  0.00    +0.175 C 
BRANCH  27  28
ATOM     28  C   UNL     1      17.488   0.420  24.693  0.00  0.00    +0.176 C 
ATOM     29  O   UNL     1      17.031   1.488  23.819  0.00  0.00    -0.332 OA
ATOM     30  C   UNL     1      17.787   1.656  22.574  0.00  0.00    +0.277 C 
ATOM     31  C   UNL     1      17.839   0.323  21.789  0.00  0.00    +0.110 C 
ATOM     32  C   UNL     1      18.290  -0.849  22.685  0.00  0.00    +0.143 C 
ATOM     33  C   UNL     1      17.439  -0.929  23.953  0.00  0.00    +0.133 C 
BRANCH  33  34
ATOM     34  N   UNL     1      17.934  -1.995  24.839  0.00  0.00    -0.308 N 
ATOM     35  H   UNL     1      18.890  -1.936  25.158  0.00  0.00    +0.149 HD
ATOM     36  C   UNL     1      17.201  -3.033  25.249  0.00  0.00    +0.210 C 
ATOM     37  C   UNL     1      15.755  -3.107  24.724  0.00  0.00    +0.109 C 
ATOM     38  O   UNL     1      17.637  -3.903  26.004  0.00  0.00    -0.276 OA
ENDBRANCH  33  34
BRANCH  30  39
ATOM     39  C   UNL     1      19.223   2.139  22.867  0.00  0.00    +0.414 C 
ATOM     40  O   UNL     1      20.177   1.649  22.264  0.00  0.00    -0.240 OA
ATOM     41  O   UNL     1      19.427   3.017  23.706  0.00  0.00    -0.240 OA
ENDBRANCH  30  39
BRANCH  30  42
ATOM     42  O   UNL     1      17.098   2.640  21.760  0.00  0.00    -0.343 OA
ATOM     43  C   UNL     1      16.687   2.172  20.451  0.00  0.00    +0.198 C 
ENDBRANCH  30  42
BRANCH  32  44
ATOM     44  O   UNL     1      18.179  -2.077  21.965  0.00  0.00    -0.390 OA
ATOM     45  H   UNL     1      18.177  -2.812  22.583  0.00  0.00    +0.210 HD
ENDBRANCH  32  44
ENDBRANCH  27  28
BRANCH  27  46
ATOM     46  O   UNL     1      15.258   0.626  25.666  0.00  0.00    -0.387 OA
ATOM     47  H   UNL     1      14.859  -0.241  25.563  0.00  0.00    +0.210 HD
ENDBRANCH  27  46
ENDBRANCH   1  27
TORSDOF 15
