REMARK VINA RESULT:    -6.775     14.967     17.238
REMARK INTER + INTRA:         -16.130
REMARK INTER:                 -13.497
REMARK INTRA:                  -2.633
REMARK UNBOUND:                -2.424
REMARK  Name = lig_assembled_81.pdb
REMARK  22 active torsions:
REMARK  status: ('A' for Active; 'I' for Inactive)
REMARK    1  A    between atoms: _2  and  _12
REMARK    2  A    between atoms: _7  and  _30
REMARK    3  A    between atoms: _8  and  _24
REMARK    4  A    between atoms: _9  and  _10
REMARK    5  A    between atoms: _9  and  _30
REMARK    6  A    between atoms: _14  and  _15
REMARK    7  A    between atoms: _21  and  _22
REMARK    8  A    between atoms: _22  and  _23
REMARK    9  A    between atoms: _23  and  _25
REMARK   10  A    between atoms: _24  and  _25
REMARK   11  A    between atoms: _26  and  _46
REMARK   12  A    between atoms: _28  and  _34
REMARK   13  A    between atoms: _29  and  _33
REMARK   14  A    between atoms: _33  and  _34
REMARK   15  A    between atoms: _36  and  _37
REMARK   16  A    between atoms: _38  and  _39
REMARK   17  A    between atoms: _40  and  _42
REMARK   18  A    between atoms: _42  and  _43
REMARK   19  A    between atoms: _42  and  _44
REMARK   20  A    between atoms: _44  and  _45
REMARK   21  A    between atoms: _44  and  _46
REMARK   22  A    between atoms: _47  and  _49
REMARK                            x       y       z     vdW  Elec       q    Type
REMARK                         _______ _______ _______ _____ _____    ______ ____
ROOT
ATOM      1  C   UNL     1       0.297   2.069  31.084  0.00  0.00    +0.401 C 
ATOM      2  O   UNL     1      -0.373   1.385  31.862  0.00  0.00    -0.226 OA
ATOM      3  N   UNL     1       1.323   2.834  31.458  0.00  0.00    -0.279 N 
ATOM      4  H   UNL     1       1.817   3.351  30.744  0.00  0.00    +0.152 HD
ENDROOT
BRANCH   1   5
ATOM      5  O   UNL     1      -0.027   2.053  29.691  0.00  0.00    -0.444 OA
BRANCH   5   6
ATOM      6  C   UNL     1       0.194   3.351  29.135  0.00  0.00    +0.289 C 
BRANCH   6   8
ATOM      7  N   UNL     1       2.062   3.825  27.618  0.00  0.00    -0.130 NA
ATOM      8  C   UNL     1       0.848   3.239  27.815  0.00  0.00    +0.100 C 
ATOM      9  C   UNL     1       0.447   2.645  26.633  0.00  0.00    +0.124 C 
ATOM     10  N   UNL     1       1.535   2.783  25.783  0.00  0.00    -0.187 N 
ATOM     11  N   UNL     1       2.393   3.655  26.350  0.00  0.00    -0.010 NA
BRANCH  10  12
ATOM     12  C   UNL     1       1.677   2.297  24.440  0.00  0.00    +0.150 A 
ATOM     13  C   UNL     1       1.488   3.059  23.260  0.00  0.00    +0.022 A 
ATOM     14  C   UNL     1       1.616   2.294  22.072  0.00  0.00    +0.081 A 
ATOM     15  N   UNL     1       1.823   0.949  22.106  0.00  0.00    -0.214 NA
ATOM     16  C   UNL     1       1.956   0.342  23.273  0.00  0.00    +0.215 A 
ATOM     17  N   UNL     1       2.074  -1.027  23.287  0.00  0.00    -0.327 N 
ATOM     18  H   UNL     1       2.404  -1.376  22.400  0.00  0.00    +0.145 HD
ATOM     19  H   UNL     1       2.509  -1.357  24.135  0.00  0.00    +0.145 HD
ATOM     20  N   UNL     1       1.986   0.971  24.432  0.00  0.00    -0.198 NA
BRANCH  14  21
ATOM     21  C   UNL     1       1.528   2.775  20.640  0.00  0.00    +0.001 A 
ATOM     22  C   UNL     1       0.559   3.668  20.146  0.00  0.00    +0.010 A 
ATOM     23  C   UNL     1       0.536   4.088  18.806  0.00  0.00    +0.001 A 
ATOM     24  C   UNL     1       1.517   3.679  17.922  0.00  0.00    +0.000 A 
ATOM     25  C   UNL     1       2.530   2.839  18.378  0.00  0.00    +0.001 A 
ATOM     26  C   UNL     1       2.520   2.391  19.707  0.00  0.00    +0.010 A 
ENDBRANCH  14  21
BRANCH  13  27
ATOM     27  C   UNL     1       1.283   4.571  23.123  0.00  0.00    +0.069 C 
BRANCH  27  28
ATOM     28  C   UNL     1      -0.011   5.231  23.560  0.00  0.00    +0.164 C 
BRANCH  28  29
ATOM     29  O   UNL     1      -0.074   5.666  24.923  0.00  0.00    -0.380 OA
BRANCH  29  30
ATOM     30  C   UNL     1      -1.393   5.326  25.394  0.00  0.00    +0.156 C 
ATOM     31  C   UNL     1      -2.075   4.334  24.480  0.00  0.00    +0.034 C 
ENDBRANCH  29  30
ENDBRANCH  28  29
ENDBRANCH  27  28
ENDBRANCH  13  27
ENDBRANCH  10  12
ENDBRANCH   6   8
ENDBRANCH   5   6
ENDBRANCH   1   5
BRANCH   3  32
ATOM     32  C   UNL     1       1.776   2.967  32.848  0.00  0.00    +0.141 C 
BRANCH  32  33
ATOM     33  C   UNL     1       3.265   3.282  32.933  0.00  0.00    +0.163 C 
BRANCH  33  34
ATOM     34  O   UNL     1       3.513   4.618  32.464  0.00  0.00    -0.388 OA
ATOM     35  H   UNL     1       4.090   5.073  33.083  0.00  0.00    +0.210 HD
ENDBRANCH  33  34
BRANCH  33  36
ATOM     36  C   UNL     1       3.744   3.111  34.385  0.00  0.00    +0.175 C 
BRANCH  36  37
ATOM     37  C   UNL     1       5.273   3.201  34.504  0.00  0.00    +0.176 C 
ATOM     38  O   UNL     1       5.658   4.586  34.282  0.00  0.00    -0.332 OA
ATOM     39  C   UNL     1       7.082   4.885  34.462  0.00  0.00    +0.277 C 
ATOM     40  C   UNL     1       7.946   3.953  33.577  0.00  0.00    +0.110 C 
ATOM     41  C   UNL     1       7.552   2.472  33.755  0.00  0.00    +0.143 C 
ATOM     42  C   UNL     1       6.049   2.275  33.549  0.00  0.00    +0.133 C 
BRANCH  42  43
ATOM     43  N   UNL     1       5.672   0.877  33.807  0.00  0.00    -0.308 N 
ATOM     44  H   UNL     1       5.779   0.525  34.748  0.00  0.00    +0.149 HD
ATOM     45  C   UNL     1       5.198   0.042  32.878  0.00  0.00    +0.210 C 
ATOM     46  C   UNL     1       5.071   0.600  31.448  0.00  0.00    +0.109 C 
ATOM     47  O   UNL     1       4.877  -1.121  33.126  0.00  0.00    -0.276 OA
ENDBRANCH  42  43
BRANCH  39  48
ATOM     48  C   UNL     1       7.493   4.720  35.939  0.00  0.00    +0.414 C 
ATOM     49  O   UNL     1       8.642   4.387  36.230  0.00  0.00    -0.240 OA
ATOM     50  O   UNL     1       6.678   4.919  36.840  0.00  0.00    -0.240 OA
ENDBRANCH  39  48
BRANCH  39  51
ATOM     51  O   UNL     1       7.310   6.255  34.042  0.00  0.00    -0.343 OA
ATOM     52  C   UNL     1       6.202   7.160  34.280  0.00  0.00    +0.198 C 
ENDBRANCH  39  51
BRANCH  41  53
ATOM     53  O   UNL     1       8.264   1.667  32.815  0.00  0.00    -0.390 OA
ATOM     54  H   UNL     1       7.656   1.335  32.151  0.00  0.00    +0.210 HD
ENDBRANCH  41  53
ENDBRANCH  36  37
BRANCH  36  55
ATOM     55  O   UNL     1       3.278   1.855  34.918  0.00  0.00    -0.387 OA
ATOM     56  H   UNL     1       2.347   1.928  35.141  0.00  0.00    +0.210 HD
ENDBRANCH  36  55
ENDBRANCH  33  36
ENDBRANCH  32  33
ENDBRANCH   3  32
TORSDOF 19
