REMARK VINA RESULT:    -6.951      3.555      6.754
REMARK INTER + INTRA:         -14.023
REMARK INTER:                 -11.543
REMARK INTRA:                  -2.480
REMARK UNBOUND:                -1.992
REMARK  Name = lig_assembled_25.pdb
REMARK  16 active torsions:
REMARK  status: ('A' for Active; 'I' for Inactive)
REMARK    1  A    between atoms: _2  and  _9
REMARK    2  A    between atoms: _4  and  _25
REMARK    3  A    between atoms: _6  and  _7
REMARK    4  A    between atoms: _6  and  _25
REMARK    5  A    between atoms: _21  and  _41
REMARK    6  A    between atoms: _23  and  _29
REMARK    7  A    between atoms: _24  and  _28
REMARK    8  A    between atoms: _28  and  _29
REMARK    9  A    between atoms: _31  and  _32
REMARK   10  A    between atoms: _33  and  _34
REMARK   11  A    between atoms: _35  and  _37
REMARK   12  A    between atoms: _37  and  _38
REMARK   13  A    between atoms: _37  and  _39
REMARK   14  A    between atoms: _39  and  _40
REMARK   15  A    between atoms: _39  and  _41
REMARK   16  A    between atoms: _42  and  _44
REMARK                            x       y       z     vdW  Elec       q    Type
REMARK                         _______ _______ _______ _____ _____    ______ ____
ROOT
ATOM      1  C   UNL     1       8.903   1.296  34.100  0.00  0.00    +0.141 C 
ENDROOT
BRANCH   1   4
ATOM      2  C   UNL     1       7.763  -0.842  33.616  0.00  0.00    +0.401 C 
ATOM      3  O   UNL     1       8.422  -1.487  34.436  0.00  0.00    -0.226 OA
ATOM      4  N   UNL     1       7.926   0.462  33.390  0.00  0.00    -0.279 N 
ATOM      5  H   UNL     1       7.344   0.901  32.690  0.00  0.00    +0.152 HD
BRANCH   2   6
ATOM      6  O   UNL     1       6.762  -1.514  32.848  0.00  0.00    -0.444 OA
BRANCH   6   7
ATOM      7  C   UNL     1       6.418  -0.717  31.711  0.00  0.00    +0.292 C 
BRANCH   7   9
ATOM      8  N   UNL     1       5.513  -2.869  30.904  0.00  0.00    -0.131 NA
ATOM      9  C   UNL     1       5.801  -1.553  30.663  0.00  0.00    +0.120 A 
ATOM     10  C   UNL     1       5.445  -1.243  29.370  0.00  0.00    +0.138 A 
ATOM     11  N   UNL     1       4.961  -2.417  28.865  0.00  0.00    -0.240 N 
ATOM     12  N   UNL     1       4.996  -3.390  29.801  0.00  0.00    -0.064 NA
BRANCH  11  13
ATOM     13  C   UNL     1       4.528  -2.746  27.517  0.00  0.00    +0.170 C 
ATOM     14  C   UNL     1       5.671  -2.703  26.512  0.00  0.00    -0.011 A 
ATOM     15  C   UNL     1       5.352  -1.822  25.455  0.00  0.00    -0.012 A 
ATOM     16  C   UNL     1       4.047  -1.243  25.703  0.00  0.00    -0.012 A 
ATOM     17  C   UNL     1       3.299  -0.361  24.941  0.00  0.00    +0.009 A 
ATOM     18  C   UNL     1       2.036   0.016  25.409  0.00  0.00    +0.001 A 
ATOM     19  C   UNL     1       1.540  -0.484  26.625  0.00  0.00    +0.000 A 
ATOM     20  C   UNL     1       2.293  -1.373  27.395  0.00  0.00    +0.006 A 
ATOM     21  C   UNL     1       6.235  -1.637  24.405  0.00  0.00    +0.009 A 
ATOM     22  C   UNL     1       7.443  -2.343  24.418  0.00  0.00    +0.001 A 
ATOM     23  C   UNL     1       7.754  -3.221  25.469  0.00  0.00    +0.000 A 
ATOM     24  C   UNL     1       6.865  -3.412  26.528  0.00  0.00    +0.006 A 
ATOM     25  C   UNL     1       3.544  -1.744  26.926  0.00  0.00    -0.011 A 
ENDBRANCH  11  13
ENDBRANCH   7   9
ENDBRANCH   6   7
ENDBRANCH   2   6
ENDBRANCH   1   4
BRANCH   1  26
ATOM     26  C   UNL     1       8.251   2.519  34.737  0.00  0.00    +0.163 C 
BRANCH  26  27
ATOM     27  O   UNL     1       9.015   2.946  35.877  0.00  0.00    -0.388 OA
ATOM     28  H   UNL     1       8.632   3.750  36.236  0.00  0.00    +0.210 HD
ENDBRANCH  26  27
BRANCH  26  29
ATOM     29  C   UNL     1       8.142   3.644  33.694  0.00  0.00    +0.175 C 
BRANCH  29  30
ATOM     30  C   UNL     1       7.171   4.749  34.136  0.00  0.00    +0.176 C 
ATOM     31  O   UNL     1       7.777   5.459  35.250  0.00  0.00    -0.332 OA
ATOM     32  C   UNL     1       7.034   6.624  35.739  0.00  0.00    +0.277 C 
ATOM     33  C   UNL     1       5.582   6.227  36.100  0.00  0.00    +0.110 C 
ATOM     34  C   UNL     1       4.905   5.441  34.957  0.00  0.00    +0.143 C 
ATOM     35  C   UNL     1       5.765   4.253  34.525  0.00  0.00    +0.133 C 
BRANCH  35  36
ATOM     36  N   UNL     1       5.153   3.564  33.378  0.00  0.00    -0.308 N 
ATOM     37  H   UNL     1       5.116   4.056  32.496  0.00  0.00    +0.149 HD
ATOM     38  C   UNL     1       4.642   2.330  33.426  0.00  0.00    +0.210 C 
ATOM     39  C   UNL     1       4.689   1.617  34.791  0.00  0.00    +0.109 C 
ATOM     40  O   UNL     1       4.148   1.772  32.446  0.00  0.00    -0.276 OA
ENDBRANCH  35  36
BRANCH  32  41
ATOM     41  C   UNL     1       7.013   7.745  34.679  0.00  0.00    +0.414 C 
ATOM     42  O   UNL     1       5.943   8.180  34.257  0.00  0.00    -0.240 OA
ATOM     43  O   UNL     1       8.067   8.213  34.245  0.00  0.00    -0.240 OA
ENDBRANCH  32  41
BRANCH  34  44
ATOM     44  O   UNL     1       3.629   4.966  35.388  0.00  0.00    -0.390 OA
ATOM     45  H   UNL     1       3.101   5.704  35.701  0.00  0.00    +0.210 HD
ENDBRANCH  34  44
BRANCH  32  46
ATOM     46  O   UNL     1       7.690   7.102  36.942  0.00  0.00    -0.343 OA
ATOM     47  C   UNL     1       8.944   6.447  37.257  0.00  0.00    +0.198 C 
ENDBRANCH  32  46
ENDBRANCH  29  30
BRANCH  29  48
ATOM     48  O   UNL     1       7.736   3.104  32.421  0.00  0.00    -0.387 OA
ATOM     49  H   UNL     1       8.479   3.120  31.814  0.00  0.00    +0.210 HD
ENDBRANCH  29  48
ENDBRANCH  26  29
ENDBRANCH   1  26
TORSDOF 14
