REMARK VINA RESULT:    -5.150      2.903      9.124
REMARK INTER + INTRA:         -13.197
REMARK INTER:                 -10.637
REMARK INTRA:                  -2.561
REMARK UNBOUND:                -3.380
REMARK  Name = lig_assembled_62.pdb
REMARK  20 active torsions:
REMARK  status: ('A' for Active; 'I' for Inactive)
REMARK    1  A    between atoms: _2  and  _10
REMARK    2  A    between atoms: _5  and  _19
REMARK    3  A    between atoms: _6  and  _10
REMARK    4  A    between atoms: _7  and  _8
REMARK    5  A    between atoms: _7  and  _19
REMARK    6  A    between atoms: _10  and  _11
REMARK    7  A    between atoms: _11  and  _14
REMARK    8  A    between atoms: _12  and  _14
REMARK    9  A    between atoms: _15  and  _35
REMARK   10  A    between atoms: _17  and  _23
REMARK   11  A    between atoms: _18  and  _22
REMARK   12  A    between atoms: _22  and  _23
REMARK   13  A    between atoms: _25  and  _26
REMARK   14  A    between atoms: _27  and  _28
REMARK   15  A    between atoms: _29  and  _31
REMARK   16  A    between atoms: _31  and  _32
REMARK   17  A    between atoms: _31  and  _33
REMARK   18  A    between atoms: _33  and  _34
REMARK   19  A    between atoms: _33  and  _35
REMARK   20  A    between atoms: _36  and  _38
REMARK                            x       y       z     vdW  Elec       q    Type
REMARK                         _______ _______ _______ _____ _____    ______ ____
ROOT
ATOM      1  C   UNL     1      16.496   0.165  26.457  0.00  0.00    +0.163 C 
ENDROOT
BRANCH   1   2
ATOM      2  O   UNL     1      16.077   1.427  25.911  0.00  0.00    -0.388 OA
ATOM      3  H   UNL     1      16.795   1.809  25.401  0.00  0.00    +0.210 HD
ENDBRANCH   1   2
BRANCH   1   4
ATOM      4  C   UNL     1      16.605  -0.902  25.354  0.00  0.00    +0.175 C 
BRANCH   4   5
ATOM      5  C   UNL     1      17.627  -0.517  24.275  0.00  0.00    +0.176 C 
ATOM      6  O   UNL     1      17.033   0.521  23.447  0.00  0.00    -0.332 OA
ATOM      7  C   UNL     1      17.909   1.092  22.420  0.00  0.00    +0.277 C 
ATOM      8  C   UNL     1      18.489  -0.027  21.521  0.00  0.00    +0.110 C 
ATOM      9  C   UNL     1      19.104  -1.169  22.357  0.00  0.00    +0.143 C 
ATOM     10  C   UNL     1      18.108  -1.686  23.396  0.00  0.00    +0.133 C 
BRANCH  10  11
ATOM     11  N   UNL     1      18.733  -2.713  24.243  0.00  0.00    -0.308 N 
ATOM     12  H   UNL     1      19.597  -2.476  24.711  0.00  0.00    +0.149 HD
ATOM     13  C   UNL     1      18.235  -3.937  24.435  0.00  0.00    +0.210 C 
ATOM     14  C   UNL     1      16.931  -4.275  23.687  0.00  0.00    +0.109 C 
ATOM     15  O   UNL     1      18.773  -4.772  25.162  0.00  0.00    -0.276 OA
ENDBRANCH  10  11
BRANCH   7  16
ATOM     16  C   UNL     1      19.064   1.885  23.066  0.00  0.00    +0.414 C 
ATOM     17  O   UNL     1      18.923   2.391  24.179  0.00  0.00    -0.240 OA
ATOM     18  O   UNL     1      20.137   2.018  22.476  0.00  0.00    -0.240 OA
ENDBRANCH   7  16
BRANCH   7  19
ATOM     19  O   UNL     1      17.112   1.978  21.592  0.00  0.00    -0.343 OA
ATOM     20  C   UNL     1      17.147   1.685  20.173  0.00  0.00    +0.198 C 
ENDBRANCH   7  19
BRANCH   9  21
ATOM     21  O   UNL     1      19.488  -2.243  21.498  0.00  0.00    -0.390 OA
ATOM     22  H   UNL     1      19.459  -1.948  20.584  0.00  0.00    +0.210 HD
ENDBRANCH   9  21
ENDBRANCH   4   5
BRANCH   4  23
ATOM     23  O   UNL     1      15.313  -1.132  24.756  0.00  0.00    -0.387 OA
ATOM     24  H   UNL     1      15.324  -1.965  24.280  0.00  0.00    +0.210 HD
ENDBRANCH   4  23
ENDBRANCH   1   4
BRANCH   1  25
ATOM     25  C   UNL     1      17.845   0.319  27.151  0.00  0.00    +0.141 C 
BRANCH  25  28
ATOM     26  C   UNL     1      19.481   2.104  27.645  0.00  0.00    +0.401 C 
ATOM     27  O   UNL     1      20.294   1.343  28.174  0.00  0.00    -0.226 OA
ATOM     28  N   UNL     1      18.308   1.712  27.145  0.00  0.00    -0.279 N 
ATOM     29  H   UNL     1      17.704   2.413  26.740  0.00  0.00    +0.152 HD
BRANCH  26  30
ATOM     30  O   UNL     1      19.791   3.497  27.555  0.00  0.00    -0.444 OA
BRANCH  30  31
ATOM     31  C   UNL     1      18.622   4.267  27.852  0.00  0.00    +0.292 C 
BRANCH  31  33
ATOM     32  N   UNL     1      18.592   5.806  25.912  0.00  0.00    -0.131 NA
ATOM     33  C   UNL     1      18.731   5.614  27.260  0.00  0.00    +0.120 A 
ATOM     34  C   UNL     1      18.967   6.829  27.865  0.00  0.00    +0.138 A 
ATOM     35  N   UNL     1      18.974   7.720  26.831  0.00  0.00    -0.237 N 
ATOM     36  N   UNL     1      18.740   7.100  25.659  0.00  0.00    -0.065 NA
BRANCH  35  37
ATOM     37  C   UNL     1      19.156   9.161  26.853  0.00  0.00    +0.219 C 
BRANCH  37  38
ATOM     38  C   UNL     1      20.455   9.540  26.160  0.00  0.00    +0.237 C 
ATOM     39  O   UNL     1      21.488   8.878  26.216  0.00  0.00    -0.274 OA
ATOM     40  N   UNL     1      20.415  10.666  25.381  0.00  0.00    -0.328 N 
ATOM     41  H   UNL     1      19.575  11.206  25.218  0.00  0.00    +0.145 HD
ATOM     42  H   UNL     1      21.264  10.936  24.901  0.00  0.00    +0.145 HD
ENDBRANCH  37  38
BRANCH  37  43
ATOM     43  C   UNL     1      19.128   9.688  28.286  0.00  0.00    +0.195 C 
BRANCH  43  44
ATOM     44  O   UNL     1      19.267  11.116  28.271  0.00  0.00    -0.380 OA
ATOM     45  C   UNL     1      19.971  11.589  29.412  0.00  0.00    +0.194 C 
ENDBRANCH  43  44
ENDBRANCH  37  43
ENDBRANCH  35  37
ENDBRANCH  31  33
ENDBRANCH  30  31
ENDBRANCH  26  30
ENDBRANCH  25  28
ENDBRANCH   1  25
TORSDOF 17
