REMARK VINA RESULT:    -7.066      1.710      2.066
REMARK INTER + INTRA:         -14.018
REMARK INTER:                 -12.350
REMARK INTRA:                  -1.668
REMARK UNBOUND:                -1.788
REMARK  Name = lig_assembled_20.pdb
REMARK  16 active torsions:
REMARK  status: ('A' for Active; 'I' for Inactive)
REMARK    1  A    between atoms: _2  and  _11
REMARK    2  A    between atoms: _6  and  _21
REMARK    3  A    between atoms: _8  and  _9
REMARK    4  A    between atoms: _8  and  _21
REMARK    5  A    between atoms: _17  and  _37
REMARK    6  A    between atoms: _19  and  _25
REMARK    7  A    between atoms: _20  and  _24
REMARK    8  A    between atoms: _24  and  _25
REMARK    9  A    between atoms: _27  and  _28
REMARK   10  A    between atoms: _29  and  _30
REMARK   11  A    between atoms: _31  and  _33
REMARK   12  A    between atoms: _33  and  _34
REMARK   13  A    between atoms: _33  and  _35
REMARK   14  A    between atoms: _35  and  _36
REMARK   15  A    between atoms: _35  and  _37
REMARK   16  A    between atoms: _38  and  _40
REMARK                            x       y       z     vdW  Elec       q    Type
REMARK                         _______ _______ _______ _____ _____    ______ ____
ROOT
ATOM      1  C   UNL     1       3.553   3.631  32.422  0.00  0.00    +0.163 C 
ENDROOT
BRANCH   1   2
ATOM      2  O   UNL     1       2.634   3.854  33.504  0.00  0.00    -0.388 OA
ATOM      3  H   UNL     1       2.376   4.779  33.520  0.00  0.00    +0.210 HD
ENDBRANCH   1   2
BRANCH   1   4
ATOM      4  C   UNL     1       2.911   2.734  31.368  0.00  0.00    +0.141 C 
BRANCH   4   7
ATOM      5  C   UNL     1       2.200   2.913  29.009  0.00  0.00    +0.401 C 
ATOM      6  O   UNL     1       2.186   1.694  28.822  0.00  0.00    -0.226 OA
ATOM      7  N   UNL     1       2.533   3.487  30.166  0.00  0.00    -0.279 N 
ATOM      8  H   UNL     1       2.524   4.496  30.218  0.00  0.00    +0.152 HD
BRANCH   5   9
ATOM      9  O   UNL     1       1.846   3.785  27.932  0.00  0.00    -0.444 OA
BRANCH   9  10
ATOM     10  C   UNL     1       0.729   3.240  27.224  0.00  0.00    +0.292 C 
BRANCH  10  12
ATOM     11  N   UNL     1       0.423   5.162  25.687  0.00  0.00    -0.131 NA
ATOM     12  C   UNL     1       0.635   3.827  25.874  0.00  0.00    +0.121 A 
ATOM     13  C   UNL     1       0.732   3.213  24.648  0.00  0.00    +0.143 A 
ATOM     14  N   UNL     1       0.572   4.222  23.727  0.00  0.00    -0.220 N 
ATOM     15  N   UNL     1       0.386   5.396  24.381  0.00  0.00    -0.060 NA
BRANCH  14  16
ATOM     16  C   UNL     1       0.587   4.134  22.311  0.00  0.00    +0.068 A 
ATOM     17  C   UNL     1       1.802   3.926  21.636  0.00  0.00    +0.030 A 
ATOM     18  C   UNL     1       1.852   3.830  20.238  0.00  0.00    +0.030 A 
ATOM     19  C   UNL     1       0.642   3.948  19.547  0.00  0.00    +0.066 A 
ATOM     20  C   UNL     1      -0.574   4.155  20.184  0.00  0.00    +0.021 A 
ATOM     21  C   UNL     1      -1.520   4.216  19.137  0.00  0.00    +0.142 A 
ATOM     22  N   UNL     1      -0.965   4.060  17.933  0.00  0.00    -0.181 NA
ATOM     23  N   UNL     1       0.341   3.898  18.210  0.00  0.00    -0.277 N 
ATOM     24  H   UNL     1       0.983   3.760  17.439  0.00  0.00    +0.189 HD
ATOM     25  C   UNL     1      -0.614   4.251  21.586  0.00  0.00    +0.039 A 
ENDBRANCH  14  16
ENDBRANCH  10  12
ENDBRANCH   9  10
ENDBRANCH   5   9
ENDBRANCH   4   7
ENDBRANCH   1   4
BRANCH   1  26
ATOM     26  C   UNL     1       4.852   2.981  32.929  0.00  0.00    +0.175 C 
BRANCH  26  27
ATOM     27  C   UNL     1       5.387   3.668  34.194  0.00  0.00    +0.176 C 
ATOM     28  O   UNL     1       5.382   5.103  33.959  0.00  0.00    -0.332 OA
ATOM     29  C   UNL     1       5.765   5.933  35.105  0.00  0.00    +0.277 C 
ATOM     30  C   UNL     1       7.146   5.497  35.653  0.00  0.00    +0.110 C 
ATOM     31  C   UNL     1       7.209   3.973  35.888  0.00  0.00    +0.143 C 
ATOM     32  C   UNL     1       6.788   3.206  34.634  0.00  0.00    +0.133 C 
BRANCH  32  33
ATOM     33  N   UNL     1       6.769   1.758  34.897  0.00  0.00    -0.308 N 
ATOM     34  H   UNL     1       6.103   1.411  35.573  0.00  0.00    +0.149 HD
ATOM     35  C   UNL     1       7.574   0.874  34.301  0.00  0.00    +0.210 C 
ATOM     36  C   UNL     1       8.595   1.439  33.296  0.00  0.00    +0.109 C 
ATOM     37  O   UNL     1       7.525  -0.335  34.531  0.00  0.00    -0.276 OA
ENDBRANCH  32  33
BRANCH  29  38
ATOM     38  C   UNL     1       4.711   5.836  36.227  0.00  0.00    +0.414 C 
ATOM     39  O   UNL     1       3.559   5.489  35.968  0.00  0.00    -0.240 OA
ATOM     40  O   UNL     1       5.012   6.104  37.391  0.00  0.00    -0.240 OA
ENDBRANCH  29  38
BRANCH  31  41
ATOM     41  O   UNL     1       8.539   3.595  36.246  0.00  0.00    -0.390 OA
ATOM     42  H   UNL     1       9.158   4.252  35.919  0.00  0.00    +0.210 HD
ENDBRANCH  31  41
BRANCH  29  43
ATOM     43  O   UNL     1       5.868   7.307  34.649  0.00  0.00    -0.343 OA
ATOM     44  C   UNL     1       7.222   7.794  34.472  0.00  0.00    +0.198 C 
ENDBRANCH  29  43
ENDBRANCH  26  27
BRANCH  26  45
ATOM     45  O   UNL     1       5.854   2.999  31.892  0.00  0.00    -0.387 OA
ATOM     46  H   UNL     1       5.580   2.426  31.172  0.00  0.00    +0.210 HD
ENDBRANCH  26  45
ENDBRANCH   1  26
TORSDOF 14
