REMARK VINA RESULT:    -5.945      1.080      1.971
REMARK INTER + INTRA:         -14.546
REMARK INTER:                 -12.071
REMARK INTRA:                  -2.475
REMARK UNBOUND:                -2.172
REMARK  Name = lig_assembled_54.pdb
REMARK  24 active torsions:
REMARK  status: ('A' for Active; 'I' for Inactive)
REMARK    1  A    between atoms: _2  and  _9
REMARK    2  A    between atoms: _4  and  _21
REMARK    3  A    between atoms: _5  and  _14
REMARK    4  A    between atoms: _6  and  _7
REMARK    5  A    between atoms: _6  and  _21
REMARK    6  A    between atoms: _9  and  _10
REMARK    7  A    between atoms: _10  and  _11
REMARK    8  A    between atoms: _11  and  _15
REMARK    9  A    between atoms: _11  and  _16
REMARK   10  A    between atoms: _12  and  _13
REMARK   11  A    between atoms: _12  and  _16
REMARK   12  A    between atoms: _14  and  _15
REMARK   13  A    between atoms: _17  and  _37
REMARK   14  A    between atoms: _19  and  _25
REMARK   15  A    between atoms: _20  and  _24
REMARK   16  A    between atoms: _24  and  _25
REMARK   17  A    between atoms: _27  and  _28
REMARK   18  A    between atoms: _29  and  _30
REMARK   19  A    between atoms: _31  and  _33
REMARK   20  A    between atoms: _33  and  _34
REMARK   21  A    between atoms: _33  and  _35
REMARK   22  A    between atoms: _35  and  _36
REMARK   23  A    between atoms: _35  and  _37
REMARK   24  A    between atoms: _38  and  _40
REMARK                            x       y       z     vdW  Elec       q    Type
REMARK                         _______ _______ _______ _____ _____    ______ ____
ROOT
ATOM      1  C   UNL     1       3.932   3.472  32.249  0.00  0.00    +0.163 C 
ENDROOT
BRANCH   1   2
ATOM      2  O   UNL     1       3.020   3.886  33.279  0.00  0.00    -0.388 OA
ATOM      3  H   UNL     1       3.150   4.818  33.468  0.00  0.00    +0.210 HD
ENDBRANCH   1   2
BRANCH   1   4
ATOM      4  C   UNL     1       5.235   2.923  32.855  0.00  0.00    +0.175 C 
BRANCH   4   5
ATOM      5  C   UNL     1       5.568   3.581  34.201  0.00  0.00    +0.176 C 
ATOM      6  O   UNL     1       5.506   5.023  34.021  0.00  0.00    -0.332 OA
ATOM      7  C   UNL     1       5.695   5.822  35.236  0.00  0.00    +0.277 C 
ATOM      8  C   UNL     1       7.022   5.439  35.935  0.00  0.00    +0.110 C 
ATOM      9  C   UNL     1       7.149   3.912  36.119  0.00  0.00    +0.143 C 
ATOM     10  C   UNL     1       6.931   3.179  34.795  0.00  0.00    +0.133 C 
BRANCH  10  11
ATOM     11  N   UNL     1       6.968   1.723  35.000  0.00  0.00    -0.308 N 
ATOM     12  H   UNL     1       6.218   1.302  35.531  0.00  0.00    +0.149 HD
ATOM     13  C   UNL     1       7.927   0.920  34.530  0.00  0.00    +0.210 C 
ATOM     14  C   UNL     1       9.069   1.595  33.747  0.00  0.00    +0.109 C 
ATOM     15  O   UNL     1       7.923  -0.299  34.705  0.00  0.00    -0.276 OA
ENDBRANCH  10  11
BRANCH   7  16
ATOM     16  C   UNL     1       4.519   5.617  36.214  0.00  0.00    +0.414 C 
ATOM     17  O   UNL     1       3.366   5.548  35.791  0.00  0.00    -0.240 OA
ATOM     18  O   UNL     1       4.724   5.521  37.425  0.00  0.00    -0.240 OA
ENDBRANCH   7  16
BRANCH   9  19
ATOM     19  O   UNL     1       8.445   3.594  36.626  0.00  0.00    -0.390 OA
ATOM     20  H   UNL     1       8.374   3.330  37.547  0.00  0.00    +0.210 HD
ENDBRANCH   9  19
BRANCH   7  21
ATOM     21  O   UNL     1       5.769   7.218  34.847  0.00  0.00    -0.343 OA
ATOM     22  C   UNL     1       7.071   7.656  34.382  0.00  0.00    +0.198 C 
ENDBRANCH   7  21
ENDBRANCH   4   5
BRANCH   4  23
ATOM     23  O   UNL     1       6.326   3.101  31.930  0.00  0.00    -0.387 OA
ATOM     24  H   UNL     1       7.023   2.472  32.133  0.00  0.00    +0.210 HD
ENDBRANCH   4  23
ENDBRANCH   1   4
BRANCH   1  25
ATOM     25  C   UNL     1       3.284   2.402  31.377  0.00  0.00    +0.141 C 
BRANCH  25  28
ATOM     26  C   UNL     1       1.336   3.424  30.251  0.00  0.00    +0.401 C 
ATOM     27  O   UNL     1       0.617   3.381  31.252  0.00  0.00    -0.226 OA
ATOM     28  N   UNL     1       2.594   2.983  30.218  0.00  0.00    -0.279 N 
ATOM     29  H   UNL     1       3.101   3.052  29.347  0.00  0.00    +0.152 HD
BRANCH  26  30
ATOM     30  O   UNL     1       0.810   3.972  29.040  0.00  0.00    -0.444 OA
BRANCH  30  31
ATOM     31  C   UNL     1       0.862   2.985  28.007  0.00  0.00    +0.292 C 
BRANCH  31  33
ATOM     32  N   UNL     1       2.441   3.808  26.286  0.00  0.00    -0.131 NA
ATOM     33  C   UNL     1       1.151   3.627  26.709  0.00  0.00    +0.120 A 
ATOM     34  C   UNL     1       0.289   4.106  25.747  0.00  0.00    +0.137 A 
ATOM     35  N   UNL     1       1.113   4.529  24.749  0.00  0.00    -0.251 N 
ATOM     36  N   UNL     1       2.405   4.355  25.077  0.00  0.00    -0.065 NA
BRANCH  35  37
ATOM     37  C   UNL     1       0.753   5.048  23.445  0.00  0.00    +0.150 C 
BRANCH  37  38
ATOM     38  C   UNL     1       1.774   4.665  22.385  0.00  0.00    +0.084 C 
BRANCH  38  39
ATOM     39  C   UNL     1       1.292   3.553  21.445  0.00  0.00    +0.252 C 
BRANCH  39  40
ATOM     40  O   UNL     1       2.060   2.365  21.653  0.00  0.00    -0.352 OA
BRANCH  40  41
ATOM     41  C   UNL     1       1.488   1.458  22.594  0.00  0.00    +0.159 C 
ATOM     42  C   UNL     1       2.496   1.198  23.696  0.00  0.00    +0.034 C 
ENDBRANCH  40  41
ENDBRANCH  39  40
BRANCH  39  43
ATOM     43  O   UNL     1       1.466   4.016  20.101  0.00  0.00    -0.352 OA
BRANCH  43  44
ATOM     44  C   UNL     1       2.137   3.060  19.276  0.00  0.00    +0.159 C 
ATOM     45  C   UNL     1       1.447   2.997  17.928  0.00  0.00    +0.034 C 
ENDBRANCH  43  44
ENDBRANCH  39  43
ENDBRANCH  38  39
ENDBRANCH  37  38
ENDBRANCH  35  37
ENDBRANCH  31  33
ENDBRANCH  30  31
ENDBRANCH  26  30
ENDBRANCH  25  28
ENDBRANCH   1  25
TORSDOF 20
