REMARK VINA RESULT:    -5.064     15.456     17.461
REMARK INTER + INTRA:         -11.881
REMARK INTER:                 -10.250
REMARK INTRA:                  -1.630
REMARK UNBOUND:                -2.671
REMARK  Name = lig_assembled_1.pdb
REMARK  18 active torsions:
REMARK  status: ('A' for Active; 'I' for Inactive)
REMARK    1  A    between atoms: _2  and  _9
REMARK    2  A    between atoms: _4  and  _15
REMARK    3  A    between atoms: _5  and  _9
REMARK    4  A    between atoms: _5  and  _10
REMARK    5  A    between atoms: _6  and  _7
REMARK    6  A    between atoms: _6  and  _15
REMARK    7  A    between atoms: _11  and  _31
REMARK    8  A    between atoms: _13  and  _19
REMARK    9  A    between atoms: _14  and  _18
REMARK   10  A    between atoms: _18  and  _19
REMARK   11  A    between atoms: _21  and  _22
REMARK   12  A    between atoms: _23  and  _24
REMARK   13  A    between atoms: _25  and  _27
REMARK   14  A    between atoms: _27  and  _28
REMARK   15  A    between atoms: _27  and  _29
REMARK   16  A    between atoms: _29  and  _30
REMARK   17  A    between atoms: _29  and  _31
REMARK   18  A    between atoms: _32  and  _34
REMARK                            x       y       z     vdW  Elec       q    Type
REMARK                         _______ _______ _______ _____ _____    ______ ____
ROOT
ATOM      1  C   UNL     1       1.790   2.025  26.476  0.00  0.00    +0.175 C 
ENDROOT
BRANCH   1   2
ATOM      2  C   UNL     1       1.793   2.470  25.006  0.00  0.00    +0.176 C 
ATOM      3  O   UNL     1       0.571   3.220  24.763  0.00  0.00    -0.332 OA
ATOM      4  C   UNL     1       0.449   3.819  23.430  0.00  0.00    +0.277 C 
ATOM      5  C   UNL     1       0.626   2.740  22.334  0.00  0.00    +0.110 C 
ATOM      6  C   UNL     1       1.896   1.895  22.568  0.00  0.00    +0.143 C 
ATOM      7  C   UNL     1       1.922   1.323  23.986  0.00  0.00    +0.133 C 
BRANCH   7   8
ATOM      8  N   UNL     1       3.177   0.593  24.224  0.00  0.00    -0.308 N 
ATOM      9  H   UNL     1       4.036   1.125  24.241  0.00  0.00    +0.149 HD
ATOM     10  C   UNL     1       3.255  -0.726  24.419  0.00  0.00    +0.210 C 
ATOM     11  C   UNL     1       1.931  -1.511  24.361  0.00  0.00    +0.109 C 
ATOM     12  O   UNL     1       4.319  -1.309  24.631  0.00  0.00    -0.276 OA
ENDBRANCH   7   8
BRANCH   4  13
ATOM     13  C   UNL     1       1.498   4.932  23.232  0.00  0.00    +0.414 C 
ATOM     14  O   UNL     1       1.928   5.558  24.200  0.00  0.00    -0.240 OA
ATOM     15  O   UNL     1       1.914   5.205  22.106  0.00  0.00    -0.240 OA
ENDBRANCH   4  13
BRANCH   4  16
ATOM     16  O   UNL     1      -0.885   4.378  23.310  0.00  0.00    -0.343 OA
ATOM     17  C   UNL     1      -1.568   4.069  22.069  0.00  0.00    +0.198 C 
ENDBRANCH   4  16
BRANCH   6  18
ATOM     18  O   UNL     1       1.940   0.821  21.627  0.00  0.00    -0.390 OA
ATOM     19  H   UNL     1       1.049   0.507  21.457  0.00  0.00    +0.210 HD
ENDBRANCH   6  18
ENDBRANCH   1   2
BRANCH   1  20
ATOM     20  O   UNL     1       0.894   0.911  26.656  0.00  0.00    -0.387 OA
ATOM     21  H   UNL     1       0.029   1.234  26.917  0.00  0.00    +0.210 HD
ENDBRANCH   1  20
BRANCH   1  22
ATOM     22  C   UNL     1       1.407   3.172  27.427  0.00  0.00    +0.163 C 
BRANCH  22  23
ATOM     23  O   UNL     1       2.548   3.992  27.729  0.00  0.00    -0.388 OA
ATOM     24  H   UNL     1       2.782   3.887  28.654  0.00  0.00    +0.210 HD
ENDBRANCH  22  23
BRANCH  22  25
ATOM     25  C   UNL     1       0.824   2.595  28.712  0.00  0.00    +0.141 C 
BRANCH  25  28
ATOM     26  C   UNL     1       0.934   4.116  30.657  0.00  0.00    +0.401 C 
ATOM     27  O   UNL     1      -0.156   4.645  30.424  0.00  0.00    -0.226 OA
ATOM     28  N   UNL     1       1.471   3.154  29.906  0.00  0.00    -0.279 N 
ATOM     29  H   UNL     1       2.375   2.789  30.173  0.00  0.00    +0.152 HD
BRANCH  26  30
ATOM     30  O   UNL     1       1.686   4.547  31.794  0.00  0.00    -0.444 OA
BRANCH  30  31
ATOM     31  C   UNL     1       1.991   3.420  32.620  0.00  0.00    +0.292 C 
BRANCH  31  33
ATOM     32  N   UNL     1       3.870   4.316  33.962  0.00  0.00    -0.131 NA
ATOM     33  C   UNL     1       3.413   3.441  33.013  0.00  0.00    +0.120 A 
ATOM     34  C   UNL     1       4.465   2.674  32.563  0.00  0.00    +0.137 A 
ATOM     35  N   UNL     1       5.533   3.137  33.271  0.00  0.00    -0.249 N 
ATOM     36  N   UNL     1       5.175   4.125  34.107  0.00  0.00    -0.065 NA
BRANCH  35  37
ATOM     37  C   UNL     1       6.905   2.684  33.210  0.00  0.00    +0.173 C 
BRANCH  37  38
ATOM     38  C   UNL     1       7.901   3.777  33.578  0.00  0.00    +0.179 C 
BRANCH  38  39
ATOM     39  O   UNL     1       7.793   4.892  32.693  0.00  0.00    -0.393 OA
ATOM     40  H   UNL     1       6.871   5.208  32.748  0.00  0.00    +0.209 HD
ENDBRANCH  38  39
ENDBRANCH  37  38
ENDBRANCH  35  37
ENDBRANCH  31  33
ENDBRANCH  30  31
ENDBRANCH  26  30
ENDBRANCH  25  28
ENDBRANCH  22  25
ENDBRANCH   1  22
TORSDOF 16
