REMARK VINA RESULT:    -6.502     14.851     16.618
REMARK INTER + INTRA:         -13.623
REMARK INTER:                 -11.539
REMARK INTRA:                  -2.084
REMARK UNBOUND:                -2.370
REMARK  Name = lig_assembled_87.pdb
REMARK  17 active torsions:
REMARK  status: ('A' for Active; 'I' for Inactive)
REMARK    1  A    between atoms: _2  and  _10
REMARK    2  A    between atoms: _3  and  _13
REMARK    3  A    between atoms: _5  and  _21
REMARK    4  A    between atoms: _7  and  _8
REMARK    5  A    between atoms: _7  and  _21
REMARK    6  A    between atoms: _17  and  _37
REMARK    7  A    between atoms: _19  and  _25
REMARK    8  A    between atoms: _20  and  _24
REMARK    9  A    between atoms: _24  and  _25
REMARK   10  A    between atoms: _27  and  _28
REMARK   11  A    between atoms: _29  and  _30
REMARK   12  A    between atoms: _31  and  _33
REMARK   13  A    between atoms: _33  and  _34
REMARK   14  A    between atoms: _33  and  _35
REMARK   15  A    between atoms: _35  and  _36
REMARK   16  A    between atoms: _35  and  _37
REMARK   17  A    between atoms: _38  and  _40
REMARK                            x       y       z     vdW  Elec       q    Type
REMARK                         _______ _______ _______ _____ _____    ______ ____
ROOT
ATOM      1  C   UNL     1      18.730  10.347  29.115  0.00  0.00    +0.163 C 
ENDROOT
BRANCH   1   2
ATOM      2  O   UNL     1      17.425  10.941  29.219  0.00  0.00    -0.388 OA
ATOM      3  H   UNL     1      17.493  11.889  29.083  0.00  0.00    +0.210 HD
ENDBRANCH   1   2
BRANCH   1   4
ATOM      4  C   UNL     1      19.131  10.224  27.648  0.00  0.00    +0.141 C 
BRANCH   4   7
ATOM      5  C   UNL     1      19.397   8.240  26.200  0.00  0.00    +0.401 C 
ATOM      6  O   UNL     1      20.518   8.565  25.800  0.00  0.00    -0.226 OA
ATOM      7  N   UNL     1      18.675   8.959  27.060  0.00  0.00    -0.279 N 
ATOM      8  H   UNL     1      17.762   8.614  27.321  0.00  0.00    +0.152 HD
BRANCH   5   9
ATOM      9  O   UNL     1      18.816   7.024  25.723  0.00  0.00    -0.444 OA
BRANCH   9  10
ATOM     10  C   UNL     1      19.272   6.765  24.393  0.00  0.00    +0.292 C 
BRANCH  10  12
ATOM     11  N   UNL     1      17.587   5.946  22.782  0.00  0.00    -0.131 NA
ATOM     12  C   UNL     1      18.477   5.682  23.786  0.00  0.00    +0.120 A 
ATOM     13  C   UNL     1      18.471   4.332  24.051  0.00  0.00    +0.137 A 
ATOM     14  N   UNL     1      17.648   3.803  23.093  0.00  0.00    -0.248 N 
ATOM     15  N   UNL     1      17.038   4.800  22.418  0.00  0.00    -0.065 NA
BRANCH  14  16
ATOM     16  C   UNL     1      17.351   2.403  22.736  0.00  0.00    +0.112 C 
ATOM     17  C   UNL     1      17.715   1.360  23.829  0.00  0.00    +0.045 C 
ATOM     18  C   UNL     1      18.734   0.286  23.412  0.00  0.00    +0.059 C 
ATOM     19  C   UNL     1      18.091  -0.817  22.560  0.00  0.00    +0.020 C 
ATOM     20  C   UNL     1      18.370  -0.403  21.116  0.00  0.00    +0.020 C 
ATOM     21  C   UNL     1      18.990   0.989  21.246  0.00  0.00    +0.059 C 
ATOM     22  N   UNL     1      19.737   0.794  22.485  0.00  0.00    -0.299 NA
ATOM     23  C   UNL     1      20.580   1.879  22.939  0.00  0.00    +0.105 C 
ATOM     24  C   UNL     1      17.898   2.058  21.318  0.00  0.00    +0.045 C 
ENDBRANCH  14  16
ENDBRANCH  10  12
ENDBRANCH   9  10
ENDBRANCH   5   9
ENDBRANCH   4   7
ENDBRANCH   1   4
BRANCH   1  25
ATOM     25  C   UNL     1      18.756   8.957  29.773  0.00  0.00    +0.175 C 
BRANCH  25  26
ATOM     26  C   UNL     1      18.030   8.945  31.126  0.00  0.00    +0.176 C 
ATOM     27  O   UNL     1      18.330  10.195  31.806  0.00  0.00    -0.332 OA
ATOM     28  C   UNL     1      17.634  10.408  33.078  0.00  0.00    +0.277 C 
ATOM     29  C   UNL     1      17.884   9.219  34.037  0.00  0.00    +0.110 C 
ATOM     30  C   UNL     1      17.608   7.865  33.349  0.00  0.00    +0.143 C 
ATOM     31  C   UNL     1      18.380   7.751  32.034  0.00  0.00    +0.133 C 
BRANCH  31  32
ATOM     32  N   UNL     1      18.043   6.495  31.346  0.00  0.00    -0.308 N 
ATOM     33  H   UNL     1      17.116   6.407  30.953  0.00  0.00    +0.149 HD
ATOM     34  C   UNL     1      18.881   5.464  31.206  0.00  0.00    +0.210 C 
ATOM     35  C   UNL     1      20.277   5.620  31.838  0.00  0.00    +0.109 C 
ATOM     36  O   UNL     1      18.575   4.430  30.611  0.00  0.00    -0.276 OA
ENDBRANCH  31  32
BRANCH  28  37
ATOM     37  C   UNL     1      16.118  10.577  32.850  0.00  0.00    +0.414 C 
ATOM     38  O   UNL     1      15.703  11.202  31.875  0.00  0.00    -0.240 OA
ATOM     39  O   UNL     1      15.309  10.089  33.641  0.00  0.00    -0.240 OA
ENDBRANCH  28  37
BRANCH  30  40
ATOM     40  O   UNL     1      17.994   6.797  34.215  0.00  0.00    -0.390 OA
ATOM     41  H   UNL     1      17.354   6.084  34.150  0.00  0.00    +0.210 HD
ENDBRANCH  30  40
BRANCH  28  42
ATOM     42  O   UNL     1      18.173  11.609  33.689  0.00  0.00    -0.343 OA
ATOM     43  C   UNL     1      19.360  12.142  33.049  0.00  0.00    +0.198 C 
ENDBRANCH  28  42
ENDBRANCH  25  26
BRANCH  25  44
ATOM     44  O   UNL     1      20.116   8.509  29.934  0.00  0.00    -0.387 OA
ATOM     45  H   UNL     1      20.668   8.911  29.259  0.00  0.00    +0.210 HD
ENDBRANCH  25  44
ENDBRANCH   1  25
TORSDOF 14
