REMARK VINA RESULT:    -7.537      1.547      3.744
REMARK INTER + INTRA:         -14.246
REMARK INTER:                 -12.688
REMARK INTRA:                  -1.558
REMARK UNBOUND:                -1.202
REMARK  Name = lig_assembled_40.pdb
REMARK  17 active torsions:
REMARK  status: ('A' for Active; 'I' for Inactive)
REMARK    1  A    between atoms: _2  and  _9
REMARK    2  A    between atoms: _4  and  _19
REMARK    3  A    between atoms: _6  and  _7
REMARK    4  A    between atoms: _6  and  _19
REMARK    5  A    between atoms: _12  and  _13
REMARK    6  A    between atoms: _15  and  _35
REMARK    7  A    between atoms: _17  and  _23
REMARK    8  A    between atoms: _18  and  _22
REMARK    9  A    between atoms: _22  and  _23
REMARK   10  A    between atoms: _25  and  _26
REMARK   11  A    between atoms: _27  and  _28
REMARK   12  A    between atoms: _29  and  _31
REMARK   13  A    between atoms: _31  and  _32
REMARK   14  A    between atoms: _31  and  _33
REMARK   15  A    between atoms: _33  and  _34
REMARK   16  A    between atoms: _33  and  _35
REMARK   17  A    between atoms: _36  and  _38
REMARK                            x       y       z     vdW  Elec       q    Type
REMARK                         _______ _______ _______ _____ _____    ______ ____
ROOT
ATOM      1  C   UNL     1       3.479   3.064  32.389  0.00  0.00    +0.163 C 
ENDROOT
BRANCH   1   2
ATOM      2  O   UNL     1       3.865   3.197  31.011  0.00  0.00    -0.388 OA
ATOM      3  H   UNL     1       4.329   4.029  30.887  0.00  0.00    +0.210 HD
ENDBRANCH   1   2
BRANCH   1   4
ATOM      4  C   UNL     1       1.988   3.345  32.543  0.00  0.00    +0.141 C 
BRANCH   4   7
ATOM      5  C   UNL     1       0.146   4.278  31.185  0.00  0.00    +0.401 C 
ATOM      6  O   UNL     1      -0.618   4.413  32.144  0.00  0.00    -0.226 OA
ATOM      7  N   UNL     1       1.380   3.780  31.280  0.00  0.00    -0.279 N 
ATOM      8  H   UNL     1       1.927   3.699  30.434  0.00  0.00    +0.152 HD
BRANCH   5   9
ATOM      9  O   UNL     1      -0.299   4.666  29.883  0.00  0.00    -0.444 OA
BRANCH   9  10
ATOM     10  C   UNL     1      -0.388   3.511  29.044  0.00  0.00    +0.292 C 
BRANCH  10  12
ATOM     11  N   UNL     1       1.818   3.746  27.948  0.00  0.00    -0.131 NA
ATOM     12  C   UNL     1       0.459   3.678  27.848  0.00  0.00    +0.121 A 
ATOM     13  C   UNL     1       0.100   3.774  26.525  0.00  0.00    +0.143 A 
ATOM     14  N   UNL     1       1.289   3.868  25.838  0.00  0.00    -0.220 N 
ATOM     15  N   UNL     1       2.316   3.870  26.724  0.00  0.00    -0.060 NA
BRANCH  14  16
ATOM     16  C   UNL     1       1.499   3.913  24.435  0.00  0.00    +0.067 A 
ATOM     17  C   UNL     1       1.435   5.125  23.739  0.00  0.00    +0.028 A 
ATOM     18  C   UNL     1       1.575   5.144  22.348  0.00  0.00    +0.005 A 
ATOM     19  C   UNL     1       1.778   3.958  21.636  0.00  0.00    -0.050 A 
ATOM     20  C   UNL     1       1.878   2.751  22.338  0.00  0.00    +0.005 A 
ATOM     21  C   UNL     1       1.882   3.969  20.139  0.00  0.00    +0.044 C 
ATOM     22  C   UNL     1       1.740   2.725  23.729  0.00  0.00    +0.028 A 
ENDBRANCH  14  16
ENDBRANCH  10  12
ENDBRANCH   9  10
ENDBRANCH   5   9
ENDBRANCH   4   7
ENDBRANCH   1   4
BRANCH   1  23
ATOM     23  C   UNL     1       4.279   4.031  33.280  0.00  0.00    +0.175 C 
BRANCH  23  24
ATOM     24  C   UNL     1       5.663   3.473  33.640  0.00  0.00    +0.176 C 
ATOM     25  O   UNL     1       5.486   2.115  34.127  0.00  0.00    -0.332 OA
ATOM     26  C   UNL     1       6.720   1.381  34.423  0.00  0.00    +0.277 C 
ATOM     27  C   UNL     1       7.601   2.181  35.413  0.00  0.00    +0.110 C 
ATOM     28  C   UNL     1       7.793   3.641  34.953  0.00  0.00    +0.143 C 
ATOM     29  C   UNL     1       6.446   4.308  34.670  0.00  0.00    +0.133 C 
BRANCH  29  30
ATOM     30  N   UNL     1       6.645   5.670  34.150  0.00  0.00    -0.308 N 
ATOM     31  H   UNL     1       7.023   5.769  33.218  0.00  0.00    +0.149 HD
ATOM     32  C   UNL     1       6.358   6.784  34.829  0.00  0.00    +0.210 C 
ATOM     33  C   UNL     1       5.808   6.601  36.255  0.00  0.00    +0.109 C 
ATOM     34  O   UNL     1       6.521   7.912  34.362  0.00  0.00    -0.276 OA
ENDBRANCH  29  30
BRANCH  26  35
ATOM     35  C   UNL     1       7.515   1.106  33.130  0.00  0.00    +0.414 C 
ATOM     36  O   UNL     1       6.940   0.690  32.124  0.00  0.00    -0.240 OA
ATOM     37  O   UNL     1       8.731   1.299  33.092  0.00  0.00    -0.240 OA
ENDBRANCH  26  35
BRANCH  28  38
ATOM     38  O   UNL     1       8.480   4.379  35.964  0.00  0.00    -0.390 OA
ATOM     39  H   UNL     1       7.853   4.919  36.449  0.00  0.00    +0.210 HD
ENDBRANCH  28  38
BRANCH  26  40
ATOM     40  O   UNL     1       6.355   0.123  35.048  0.00  0.00    -0.343 OA
ATOM     41  C   UNL     1       5.005  -0.329  34.773  0.00  0.00    +0.198 C 
ENDBRANCH  26  40
ENDBRANCH  23  24
BRANCH  23  42
ATOM     42  O   UNL     1       3.536   4.330  34.479  0.00  0.00    -0.387 OA
ATOM     43  H   UNL     1       2.727   3.813  34.492  0.00  0.00    +0.210 HD
ENDBRANCH  23  42
ENDBRANCH   1  23
TORSDOF 14
