REMARK VINA RESULT:    -6.485      6.906     12.966
REMARK INTER + INTRA:         -14.271
REMARK INTER:                 -11.430
REMARK INTRA:                  -2.841
REMARK UNBOUND:                -1.911
REMARK  Name = lig_assembled_26.pdb
REMARK  20 active torsions:
REMARK  status: ('A' for Active; 'I' for Inactive)
REMARK    1  A    between atoms: _2  and  _9
REMARK    2  A    between atoms: _4  and  _23
REMARK    3  A    between atoms: _6  and  _7
REMARK    4  A    between atoms: _6  and  _23
REMARK    5  A    between atoms: _9  and  _10
REMARK    6  A    between atoms: _9  and  _11
REMARK    7  A    between atoms: _11  and  _12
REMARK    8  A    between atoms: _12  and  _13
REMARK    9  A    between atoms: _19  and  _39
REMARK   10  A    between atoms: _21  and  _27
REMARK   11  A    between atoms: _22  and  _26
REMARK   12  A    between atoms: _26  and  _27
REMARK   13  A    between atoms: _29  and  _30
REMARK   14  A    between atoms: _31  and  _32
REMARK   15  A    between atoms: _33  and  _35
REMARK   16  A    between atoms: _35  and  _36
REMARK   17  A    between atoms: _35  and  _37
REMARK   18  A    between atoms: _37  and  _38
REMARK   19  A    between atoms: _37  and  _39
REMARK   20  A    between atoms: _40  and  _42
REMARK                            x       y       z     vdW  Elec       q    Type
REMARK                         _______ _______ _______ _____ _____    ______ ____
ROOT
ATOM      1  C   UNL     1      -1.915   3.688  22.974  0.00  0.00    +0.163 C 
ENDROOT
BRANCH   1   2
ATOM      2  O   UNL     1      -2.746   2.667  22.397  0.00  0.00    -0.388 OA
ATOM      3  H   UNL     1      -2.361   2.371  21.568  0.00  0.00    +0.210 HD
ENDBRANCH   1   2
BRANCH   1   4
ATOM      4  C   UNL     1      -1.374   4.636  21.890  0.00  0.00    +0.175 C 
BRANCH   4   5
ATOM      5  C   UNL     1      -0.260   3.986  21.057  0.00  0.00    +0.176 C 
ATOM      6  O   UNL     1      -0.887   3.178  20.023  0.00  0.00    -0.332 OA
ATOM      7  C   UNL     1       0.028   2.561  19.058  0.00  0.00    +0.277 C 
ATOM      8  C   UNL     1       1.105   1.725  19.793  0.00  0.00    +0.110 C 
ATOM      9  C   UNL     1       1.779   2.532  20.923  0.00  0.00    +0.143 C 
ATOM     10  C   UNL     1       0.735   3.132  21.866  0.00  0.00    +0.133 C 
BRANCH  10  11
ATOM     11  N   UNL     1       1.384   3.969  22.887  0.00  0.00    -0.308 N 
ATOM     12  H   UNL     1       1.738   4.872  22.602  0.00  0.00    +0.149 HD
ATOM     13  C   UNL     1       1.535   3.615  24.166  0.00  0.00    +0.210 C 
ATOM     14  C   UNL     1       1.007   2.224  24.563  0.00  0.00    +0.109 C 
ATOM     15  O   UNL     1       2.069   4.343  25.003  0.00  0.00    -0.276 OA
ENDBRANCH  10  11
BRANCH   7  16
ATOM     16  C   UNL     1       0.713   3.635  18.189  0.00  0.00    +0.414 C 
ATOM     17  O   UNL     1       0.041   4.371  17.467  0.00  0.00    -0.240 OA
ATOM     18  O   UNL     1       1.938   3.767  18.209  0.00  0.00    -0.240 OA
ENDBRANCH   7  16
BRANCH   7  19
ATOM     19  O   UNL     1      -0.745   1.669  18.214  0.00  0.00    -0.343 OA
ATOM     20  C   UNL     1      -1.047   0.378  18.801  0.00  0.00    +0.198 C 
ENDBRANCH   7  19
BRANCH   9  21
ATOM     21  O   UNL     1       2.651   1.682  21.668  0.00  0.00    -0.390 OA
ATOM     22  H   UNL     1       2.173   1.301  22.409  0.00  0.00    +0.210 HD
ENDBRANCH   9  21
ENDBRANCH   4   5
BRANCH   4  23
ATOM     23  O   UNL     1      -0.898   5.857  22.490  0.00  0.00    -0.387 OA
ATOM     24  H   UNL     1      -1.491   6.118  23.199  0.00  0.00    +0.210 HD
ENDBRANCH   4  23
ENDBRANCH   1   4
BRANCH   1  25
ATOM     25  C   UNL     1      -2.708   4.488  24.001  0.00  0.00    +0.141 C 
BRANCH  25  28
ATOM     26  C   UNL     1      -1.268   5.147  25.898  0.00  0.00    +0.401 C 
ATOM     27  O   UNL     1      -0.784   6.120  25.315  0.00  0.00    -0.226 OA
ATOM     28  N   UNL     1      -2.169   4.326  25.357  0.00  0.00    -0.279 N 
ATOM     29  H   UNL     1      -2.500   3.549  25.912  0.00  0.00    +0.152 HD
BRANCH  26  30
ATOM     30  O   UNL     1      -0.849   4.859  27.235  0.00  0.00    -0.444 OA
BRANCH  30  31
ATOM     31  C   UNL     1      -1.233   3.525  27.579  0.00  0.00    +0.292 C 
BRANCH  31  33
ATOM     32  N   UNL     1       1.192   3.300  28.049  0.00  0.00    -0.131 NA
ATOM     33  C   UNL     1      -0.060   2.747  28.014  0.00  0.00    +0.120 A 
ATOM     34  C   UNL     1       0.012   1.441  28.438  0.00  0.00    +0.137 A 
ATOM     35  N   UNL     1       1.336   1.243  28.691  0.00  0.00    -0.248 N 
ATOM     36  N   UNL     1       2.039   2.374  28.483  0.00  0.00    -0.065 NA
BRANCH  35  37
ATOM     37  C   UNL     1       2.014   0.060  29.199  0.00  0.00    +0.113 C 
ATOM     38  C   UNL     1       1.076  -1.089  29.592  0.00  0.00    +0.033 C 
BRANCH  37  39
ATOM     39  C   UNL     1       3.145  -0.420  28.270  0.00  0.00    +0.106 C 
BRANCH  39  40
ATOM     40  C   UNL     1       4.381  -0.908  29.003  0.00  0.00    +0.165 C 
ATOM     41  O   UNL     1       4.526  -0.764  30.216  0.00  0.00    -0.292 OA
BRANCH  40  42
ATOM     42  C   UNL     1       5.478  -1.549  28.217  0.00  0.00    +0.017 A 
ATOM     43  C   UNL     1       5.382  -1.775  26.839  0.00  0.00    +0.011 A 
ATOM     44  C   UNL     1       6.456  -2.340  26.147  0.00  0.00    +0.001 A 
ATOM     45  C   UNL     1       7.624  -2.687  26.824  0.00  0.00    +0.000 A 
ATOM     46  C   UNL     1       7.723  -2.476  28.196  0.00  0.00    +0.001 A 
ATOM     47  C   UNL     1       6.654  -1.908  28.891  0.00  0.00    +0.011 A 
ENDBRANCH  40  42
ENDBRANCH  39  40
ENDBRANCH  37  39
ENDBRANCH  35  37
ENDBRANCH  31  33
ENDBRANCH  30  31
ENDBRANCH  26  30
ENDBRANCH  25  28
ENDBRANCH   1  25
TORSDOF 17
