REMARK VINA RESULT:    -6.779      5.621      8.105
REMARK INTER + INTRA:         -14.004
REMARK INTER:                 -11.653
REMARK INTRA:                  -2.351
REMARK UNBOUND:                -1.875
REMARK  Name = lig_assembled_82.pdb
REMARK  19 active torsions:
REMARK  status: ('A' for Active; 'I' for Inactive)
REMARK    1  A    between atoms: _2  and  _9
REMARK    2  A    between atoms: _4  and  _22
REMARK    3  A    between atoms: _5  and  _16
REMARK    4  A    between atoms: _6  and  _7
REMARK    5  A    between atoms: _6  and  _22
REMARK    6  A    between atoms: _9  and  _10
REMARK    7  A    between atoms: _16  and  _17
REMARK    8  A    between atoms: _18  and  _38
REMARK    9  A    between atoms: _20  and  _26
REMARK   10  A    between atoms: _21  and  _25
REMARK   11  A    between atoms: _25  and  _26
REMARK   12  A    between atoms: _28  and  _29
REMARK   13  A    between atoms: _30  and  _31
REMARK   14  A    between atoms: _32  and  _34
REMARK   15  A    between atoms: _34  and  _35
REMARK   16  A    between atoms: _34  and  _36
REMARK   17  A    between atoms: _36  and  _37
REMARK   18  A    between atoms: _36  and  _38
REMARK   19  A    between atoms: _39  and  _41
REMARK                            x       y       z     vdW  Elec       q    Type
REMARK                         _______ _______ _______ _____ _____    ______ ____
ROOT
ATOM      1  C   UNL     1       7.874   2.436  34.204  0.00  0.00    +0.163 C 
ENDROOT
BRANCH   1   2
ATOM      2  O   UNL     1       8.757   2.624  35.322  0.00  0.00    -0.388 OA
ATOM      3  H   UNL     1       9.460   3.231  35.077  0.00  0.00    +0.210 HD
ENDBRANCH   1   2
BRANCH   1   4
ATOM      4  C   UNL     1       8.330   1.242  33.372  0.00  0.00    +0.141 C 
BRANCH   4   7
ATOM      5  C   UNL     1       6.682  -0.594  33.518  0.00  0.00    +0.401 C 
ATOM      6  O   UNL     1       7.113  -1.021  34.592  0.00  0.00    -0.226 OA
ATOM      7  N   UNL     1       7.195   0.456  32.874  0.00  0.00    -0.279 N 
ATOM      8  H   UNL     1       6.779   0.725  31.994  0.00  0.00    +0.152 HD
BRANCH   5   9
ATOM      9  O   UNL     1       5.569  -1.249  32.906  0.00  0.00    -0.444 OA
BRANCH   9  10
ATOM     10  C   UNL     1       5.967  -2.548  32.457  0.00  0.00    +0.292 C 
BRANCH  10  12
ATOM     11  N   UNL     1       6.373  -1.405  30.300  0.00  0.00    -0.131 NA
ATOM     12  C   UNL     1       6.594  -2.476  31.134  0.00  0.00    +0.120 A 
ATOM     13  C   UNL     1       7.440  -3.362  30.493  0.00  0.00    +0.137 A 
ATOM     14  N   UNL     1       7.585  -2.838  29.239  0.00  0.00    -0.247 N 
ATOM     15  N   UNL     1       7.016  -1.620  29.162  0.00  0.00    -0.065 NA
BRANCH  14  16
ATOM     16  C   UNL     1       8.165  -3.466  28.049  0.00  0.00    +0.176 C 
BRANCH  16  17
ATOM     17  C   UNL     1       7.446  -3.078  26.780  0.00  0.00    -0.049 C 
ATOM     18  C   UNL     1       6.188  -3.812  26.440  0.00  0.00    +0.023 C 
ATOM     19  C   UNL     1       5.003  -3.005  25.742  0.00  0.00    -0.025 C 
ATOM     20  C   UNL     1       4.552  -1.546  25.889  0.00  0.00    +0.012 C 
ATOM     21  C   UNL     1       5.959  -3.137  24.467  0.00  0.00    -0.000 C 
ATOM     22  C   UNL     1       7.193  -2.179  24.474  0.00  0.00    +0.031 C 
ATOM     23  C   UNL     1       3.748  -3.869  26.025  0.00  0.00    +0.012 C 
ATOM     24  C   UNL     1       6.364  -4.522  25.037  0.00  0.00    +0.012 C 
ATOM     25  C   UNL     1       7.905  -2.257  25.816  0.00  0.00    -0.025 C 
ENDBRANCH  16  17
ENDBRANCH  14  16
ENDBRANCH  10  12
ENDBRANCH   9  10
ENDBRANCH   5   9
ENDBRANCH   4   7
ENDBRANCH   1   4
BRANCH   1  26
ATOM     26  C   UNL     1       7.833   3.693  33.318  0.00  0.00    +0.175 C 
BRANCH  26  27
ATOM     27  C   UNL     1       6.995   4.816  33.947  0.00  0.00    +0.176 C 
ATOM     28  O   UNL     1       7.763   5.388  35.041  0.00  0.00    -0.332 OA
ATOM     29  C   UNL     1       7.162   6.553  35.698  0.00  0.00    +0.277 C 
ATOM     30  C   UNL     1       5.729   6.221  36.182  0.00  0.00    +0.110 C 
ATOM     31  C   UNL     1       4.883   5.581  35.060  0.00  0.00    +0.143 C 
ATOM     32  C   UNL     1       5.605   4.381  34.445  0.00  0.00    +0.133 C 
BRANCH  32  33
ATOM     33  N   UNL     1       4.829   3.834  33.321  0.00  0.00    -0.308 N 
ATOM     34  H   UNL     1       4.782   4.378  32.471  0.00  0.00    +0.149 HD
ATOM     35  C   UNL     1       4.183   2.665  33.351  0.00  0.00    +0.210 C 
ATOM     36  C   UNL     1       4.252   1.872  34.669  0.00  0.00    +0.109 C 
ATOM     37  O   UNL     1       3.553   2.225  32.389  0.00  0.00    -0.276 OA
ENDBRANCH  32  33
BRANCH  29  38
ATOM     38  C   UNL     1       7.115   7.759  34.737  0.00  0.00    +0.414 C 
ATOM     39  O   UNL     1       8.159   8.267  34.328  0.00  0.00    -0.240 OA
ATOM     40  O   UNL     1       6.035   8.223  34.370  0.00  0.00    -0.240 OA
ENDBRANCH  29  38
BRANCH  29  41
ATOM     41  O   UNL     1       7.970   6.882  36.856  0.00  0.00    -0.343 OA
ATOM     42  C   UNL     1       7.232   7.041  38.094  0.00  0.00    +0.198 C 
ENDBRANCH  29  41
BRANCH  31  43
ATOM     43  O   UNL     1       3.627   5.154  35.588  0.00  0.00    -0.390 OA
ATOM     44  H   UNL     1       3.379   4.317  35.190  0.00  0.00    +0.210 HD
ENDBRANCH  31  43
ENDBRANCH  26  27
BRANCH  26  45
ATOM     45  O   UNL     1       7.321   3.364  32.011  0.00  0.00    -0.387 OA
ATOM     46  H   UNL     1       7.234   4.166  31.490  0.00  0.00    +0.210 HD
ENDBRANCH  26  45
ENDBRANCH   1  26
TORSDOF 15
