REMARK VINA RESULT:    -6.932      1.714      3.172
REMARK INTER + INTRA:         -15.125
REMARK INTER:                 -12.711
REMARK INTRA:                  -2.414
REMARK UNBOUND:                -1.911
REMARK  Name = lig_assembled_26.pdb
REMARK  20 active torsions:
REMARK  status: ('A' for Active; 'I' for Inactive)
REMARK    1  A    between atoms: _2  and  _9
REMARK    2  A    between atoms: _4  and  _23
REMARK    3  A    between atoms: _6  and  _7
REMARK    4  A    between atoms: _6  and  _23
REMARK    5  A    between atoms: _9  and  _10
REMARK    6  A    between atoms: _9  and  _11
REMARK    7  A    between atoms: _11  and  _12
REMARK    8  A    between atoms: _12  and  _13
REMARK    9  A    between atoms: _19  and  _39
REMARK   10  A    between atoms: _21  and  _27
REMARK   11  A    between atoms: _22  and  _26
REMARK   12  A    between atoms: _26  and  _27
REMARK   13  A    between atoms: _29  and  _30
REMARK   14  A    between atoms: _31  and  _32
REMARK   15  A    between atoms: _33  and  _35
REMARK   16  A    between atoms: _35  and  _36
REMARK   17  A    between atoms: _35  and  _37
REMARK   18  A    between atoms: _37  and  _38
REMARK   19  A    between atoms: _37  and  _39
REMARK   20  A    between atoms: _40  and  _42
REMARK                            x       y       z     vdW  Elec       q    Type
REMARK                         _______ _______ _______ _____ _____    ______ ____
ROOT
ATOM      1  C   UNL     1       7.584   3.091  33.645  0.00  0.00    +0.163 C 
ENDROOT
BRANCH   1   2
ATOM      2  O   UNL     1       7.467   4.246  32.798  0.00  0.00    -0.388 OA
ATOM      3  H   UNL     1       6.539   4.444  32.653  0.00  0.00    +0.210 HD
ENDBRANCH   1   2
BRANCH   1   4
ATOM      4  C   UNL     1       6.687   3.227  34.888  0.00  0.00    +0.175 C 
BRANCH   4   5
ATOM      5  C   UNL     1       7.287   4.179  35.932  0.00  0.00    +0.176 C 
ATOM      6  O   UNL     1       7.115   5.540  35.448  0.00  0.00    -0.332 OA
ATOM      7  C   UNL     1       7.537   6.599  36.370  0.00  0.00    +0.277 C 
ATOM      8  C   UNL     1       9.006   6.381  36.809  0.00  0.00    +0.110 C 
ATOM      9  C   UNL     1       9.245   4.938  37.302  0.00  0.00    +0.143 C 
ATOM     10  C   UNL     1       8.767   3.919  36.268  0.00  0.00    +0.133 C 
BRANCH  10  11
ATOM     11  N   UNL     1       8.920   2.550  36.785  0.00  0.00    -0.308 N 
ATOM     12  H   UNL     1       8.322   2.264  37.547  0.00  0.00    +0.149 HD
ATOM     13  C   UNL     1       9.797   1.660  36.313  0.00  0.00    +0.210 C 
ATOM     14  C   UNL     1      10.712   2.135  35.168  0.00  0.00    +0.109 C 
ATOM     15  O   UNL     1       9.893   0.515  36.756  0.00  0.00    -0.276 OA
ENDBRANCH  10  11
BRANCH   7  16
ATOM     16  C   UNL     1       6.627   6.635  37.615  0.00  0.00    +0.414 C 
ATOM     17  O   UNL     1       5.443   6.309  37.528  0.00  0.00    -0.240 OA
ATOM     18  O   UNL     1       7.075   6.988  38.706  0.00  0.00    -0.240 OA
ENDBRANCH   7  16
BRANCH   7  19
ATOM     19  O   UNL     1       7.452   7.865  35.667  0.00  0.00    -0.343 OA
ATOM     20  C   UNL     1       6.936   7.782  34.315  0.00  0.00    +0.198 C 
ENDBRANCH   7  19
BRANCH   9  21
ATOM     21  O   UNL     1      10.637   4.739  37.551  0.00  0.00    -0.390 OA
ATOM     22  H   UNL     1      10.831   3.799  37.549  0.00  0.00    +0.210 HD
ENDBRANCH   9  21
ENDBRANCH   4   5
BRANCH   4  23
ATOM     23  O   UNL     1       6.451   1.931  35.474  0.00  0.00    -0.387 OA
ATOM     24  H   UNL     1       6.443   2.009  36.431  0.00  0.00    +0.210 HD
ENDBRANCH   4  23
ENDBRANCH   1   4
BRANCH   1  25
ATOM     25  C   UNL     1       7.197   1.835  32.872  0.00  0.00    +0.141 C 
BRANCH  25  28
ATOM     26  C   UNL     1       5.203   0.883  31.766  0.00  0.00    +0.401 C 
ATOM     27  O   UNL     1       5.800  -0.105  31.331  0.00  0.00    -0.226 OA
ATOM     28  N   UNL     1       5.779   1.843  32.490  0.00  0.00    -0.279 N 
ATOM     29  H   UNL     1       5.208   2.619  32.794  0.00  0.00    +0.152 HD
BRANCH  26  30
ATOM     30  O   UNL     1       3.809   1.031  31.485  0.00  0.00    -0.444 OA
BRANCH  30  31
ATOM     31  C   UNL     1       3.412   2.382  31.736  0.00  0.00    +0.292 C 
BRANCH  31  33
ATOM     32  N   UNL     1       1.570   3.836  30.931  0.00  0.00    -0.131 NA
ATOM     33  C   UNL     1       2.486   2.848  30.689  0.00  0.00    +0.120 A 
ATOM     34  C   UNL     1       2.367   2.434  29.382  0.00  0.00    +0.137 A 
ATOM     35  N   UNL     1       1.345   3.184  28.884  0.00  0.00    -0.248 N 
ATOM     36  N   UNL     1       0.886   4.048  29.813  0.00  0.00    -0.065 NA
BRANCH  35  37
ATOM     37  C   UNL     1       0.786   3.212  27.541  0.00  0.00    +0.113 C 
ATOM     38  C   UNL     1      -0.491   4.054  27.403  0.00  0.00    +0.033 C 
BRANCH  37  39
ATOM     39  C   UNL     1       1.830   3.580  26.471  0.00  0.00    +0.106 C 
BRANCH  39  40
ATOM     40  C   UNL     1       1.855   2.638  25.282  0.00  0.00    +0.165 C 
ATOM     41  O   UNL     1       1.901   1.416  25.413  0.00  0.00    -0.292 OA
BRANCH  40  42
ATOM     42  C   UNL     1       1.864   3.217  23.904  0.00  0.00    +0.017 A 
ATOM     43  C   UNL     1       1.890   2.418  22.755  0.00  0.00    +0.011 A 
ATOM     44  C   UNL     1       1.855   3.012  21.490  0.00  0.00    +0.001 A 
ATOM     45  C   UNL     1       1.801   4.400  21.368  0.00  0.00    +0.000 A 
ATOM     46  C   UNL     1       1.786   5.200  22.506  0.00  0.00    +0.001 A 
ATOM     47  C   UNL     1       1.817   4.611  23.771  0.00  0.00    +0.011 A 
ENDBRANCH  40  42
ENDBRANCH  39  40
ENDBRANCH  37  39
ENDBRANCH  35  37
ENDBRANCH  31  33
ENDBRANCH  30  31
ENDBRANCH  26  30
ENDBRANCH  25  28
ENDBRANCH   1  25
TORSDOF 17
