REMARK VINA RESULT:    -6.227      4.548      7.139
REMARK INTER + INTRA:         -13.076
REMARK INTER:                 -10.331
REMARK INTRA:                  -2.745
REMARK UNBOUND:                -1.933
REMARK  Name = lig_assembled_39.pdb
REMARK  17 active torsions:
REMARK  status: ('A' for Active; 'I' for Inactive)
REMARK    1  A    between atoms: _2  and  _9
REMARK    2  A    between atoms: _4  and  _19
REMARK    3  A    between atoms: _6  and  _7
REMARK    4  A    between atoms: _6  and  _19
REMARK    5  A    between atoms: _9  and  _10
REMARK    6  A    between atoms: _15  and  _35
REMARK    7  A    between atoms: _17  and  _23
REMARK    8  A    between atoms: _18  and  _22
REMARK    9  A    between atoms: _22  and  _23
REMARK   10  A    between atoms: _25  and  _26
REMARK   11  A    between atoms: _27  and  _28
REMARK   12  A    between atoms: _29  and  _31
REMARK   13  A    between atoms: _31  and  _32
REMARK   14  A    between atoms: _31  and  _33
REMARK   15  A    between atoms: _33  and  _34
REMARK   16  A    between atoms: _33  and  _35
REMARK   17  A    between atoms: _36  and  _38
REMARK                            x       y       z     vdW  Elec       q    Type
REMARK                         _______ _______ _______ _____ _____    ______ ____
ROOT
ATOM      1  C   UNL     1      17.254   3.354  22.944  0.00  0.00    +0.163 C 
ENDROOT
BRANCH   1   2
ATOM      2  O   UNL     1      15.988   2.923  23.470  0.00  0.00    -0.388 OA
ATOM      3  H   UNL     1      15.334   3.613  23.337  0.00  0.00    +0.210 HD
ENDBRANCH   1   2
BRANCH   1   4
ATOM      4  C   UNL     1      17.510   2.694  21.594  0.00  0.00    +0.141 C 
BRANCH   4   7
ATOM      5  C   UNL     1      18.670   0.534  21.287  0.00  0.00    +0.401 C 
ATOM      6  O   UNL     1      19.658   1.034  20.745  0.00  0.00    -0.226 OA
ATOM      7  N   UNL     1      17.617   1.235  21.709  0.00  0.00    -0.279 N 
ATOM      8  H   UNL     1      16.849   0.733  22.133  0.00  0.00    +0.152 HD
BRANCH   5   9
ATOM      9  O   UNL     1      18.626  -0.882  21.480  0.00  0.00    -0.444 OA
BRANCH   9  10
ATOM     10  C   UNL     1      18.847  -1.183  22.860  0.00  0.00    +0.292 C 
BRANCH  10  12
ATOM     11  N   UNL     1      16.546  -1.129  23.773  0.00  0.00    -0.131 NA
ATOM     12  C   UNL     1      17.664  -1.848  23.438  0.00  0.00    +0.120 A 
ATOM     13  C   UNL     1      17.443  -3.179  23.711  0.00  0.00    +0.137 A 
ATOM     14  N   UNL     1      16.146  -3.214  24.131  0.00  0.00    -0.247 N 
ATOM     15  N   UNL     1      15.631  -1.975  24.226  0.00  0.00    -0.065 NA
BRANCH  14  16
ATOM     16  C   UNL     1      15.321  -4.385  24.391  0.00  0.00    +0.181 C 
BRANCH  16  17
ATOM     17  C   UNL     1      15.372  -4.845  25.837  0.00  0.00    -0.012 A 
ATOM     18  C   UNL     1      14.614  -4.197  26.833  0.00  0.00    +0.006 A 
ATOM     19  C   UNL     1      14.655  -4.607  28.168  0.00  0.00    +0.000 A 
ATOM     20  C   UNL     1      15.475  -5.662  28.545  0.00  0.00    +0.001 A 
ATOM     21  C   UNL     1      16.268  -6.294  27.590  0.00  0.00    +0.015 A 
ATOM     22  C   UNL     1      16.228  -5.884  26.250  0.00  0.00    +0.023 A 
ATOM     23 BR   UNL     1      17.397  -6.782  25.049  0.00  0.00    -0.050 Br
ENDBRANCH  16  17
ENDBRANCH  14  16
ENDBRANCH  10  12
ENDBRANCH   9  10
ENDBRANCH   5   9
ENDBRANCH   4   7
ENDBRANCH   1   4
BRANCH   1  24
ATOM     24  C   UNL     1      18.399   3.007  23.912  0.00  0.00    +0.175 C 
BRANCH  24  25
ATOM     25  C   UNL     1      18.444   3.956  25.118  0.00  0.00    +0.176 C 
ATOM     26  O   UNL     1      19.749   4.598  25.133  0.00  0.00    -0.332 OA
ATOM     27  C   UNL     1      19.938   5.625  26.163  0.00  0.00    +0.277 C 
ATOM     28  C   UNL     1      19.622   5.050  27.565  0.00  0.00    +0.110 C 
ATOM     29  C   UNL     1      18.258   4.329  27.590  0.00  0.00    +0.143 C 
ATOM     30  C   UNL     1      18.168   3.285  26.477  0.00  0.00    +0.133 C 
BRANCH  30  31
ATOM     31  N   UNL     1      16.832   2.667  26.456  0.00  0.00    -0.308 N 
ATOM     32  H   UNL     1      16.032   3.276  26.363  0.00  0.00    +0.149 HD
ATOM     33  C   UNL     1      16.609   1.354  26.554  0.00  0.00    +0.210 C 
ATOM     34  C   UNL     1      17.849   0.454  26.722  0.00  0.00    +0.109 C 
ATOM     35  O   UNL     1      15.481   0.863  26.520  0.00  0.00    -0.276 OA
ENDBRANCH  30  31
BRANCH  27  36
ATOM     36  C   UNL     1      19.035   6.846  25.890  0.00  0.00    +0.414 C 
ATOM     37  O   UNL     1      18.767   7.633  26.797  0.00  0.00    -0.240 OA
ATOM     38  O   UNL     1      18.576   7.043  24.765  0.00  0.00    -0.240 OA
ENDBRANCH  27  36
BRANCH  27  39
ATOM     39  O   UNL     1      21.331   6.032  26.139  0.00  0.00    -0.343 OA
ATOM     40  C   UNL     1      22.056   5.665  24.938  0.00  0.00    +0.198 C 
ENDBRANCH  27  39
BRANCH  29  41
ATOM     41  O   UNL     1      18.075   3.687  28.853  0.00  0.00    -0.390 OA
ATOM     42  H   UNL     1      18.836   3.859  29.413  0.00  0.00    +0.210 HD
ENDBRANCH  29  41
ENDBRANCH  24  25
BRANCH  24  43
ATOM     43  O   UNL     1      19.661   3.028  23.215  0.00  0.00    -0.387 OA
ATOM     44  H   UNL     1      19.822   3.909  22.870  0.00  0.00    +0.210 HD
ENDBRANCH  24  43
ENDBRANCH   1  24
TORSDOF 15
