REMARK VINA RESULT:    -6.126     14.283     16.591
REMARK INTER + INTRA:         -13.540
REMARK INTER:                 -11.234
REMARK INTRA:                  -2.305
REMARK UNBOUND:                -2.936
REMARK  Name = lig_assembled_93.pdb
REMARK  16 active torsions:
REMARK  status: ('A' for Active; 'I' for Inactive)
REMARK    1  A    between atoms: _2  and  _9
REMARK    2  A    between atoms: _4  and  _18
REMARK    3  A    between atoms: _6  and  _7
REMARK    4  A    between atoms: _6  and  _18
REMARK    5  A    between atoms: _14  and  _34
REMARK    6  A    between atoms: _16  and  _22
REMARK    7  A    between atoms: _17  and  _21
REMARK    8  A    between atoms: _21  and  _22
REMARK    9  A    between atoms: _24  and  _25
REMARK   10  A    between atoms: _26  and  _27
REMARK   11  A    between atoms: _28  and  _30
REMARK   12  A    between atoms: _30  and  _31
REMARK   13  A    between atoms: _30  and  _32
REMARK   14  A    between atoms: _32  and  _33
REMARK   15  A    between atoms: _32  and  _34
REMARK   16  A    between atoms: _35  and  _37
REMARK                            x       y       z     vdW  Elec       q    Type
REMARK                         _______ _______ _______ _____ _____    ______ ____
ROOT
ATOM      1  C   UNL     1      17.767   4.064  22.627  0.00  0.00    +0.163 C 
ENDROOT
BRANCH   1   2
ATOM      2  O   UNL     1      17.088   5.257  23.053  0.00  0.00    -0.388 OA
ATOM      3  H   UNL     1      17.645   6.021  22.884  0.00  0.00    +0.210 HD
ENDBRANCH   1   2
BRANCH   1   4
ATOM      4  C   UNL     1      16.800   3.154  21.877  0.00  0.00    +0.141 C 
BRANCH   4   7
ATOM      5  C   UNL     1      17.737   1.249  20.611  0.00  0.00    +0.401 C 
ATOM      6  O   UNL     1      17.724   1.840  19.529  0.00  0.00    -0.226 OA
ATOM      7  N   UNL     1      17.318   1.785  21.758  0.00  0.00    -0.279 N 
ATOM      8  H   UNL     1      17.359   1.217  22.593  0.00  0.00    +0.152 HD
BRANCH   5   9
ATOM      9  O   UNL     1      18.223  -0.095  20.663  0.00  0.00    -0.444 OA
BRANCH   9  10
ATOM     10  C   UNL     1      19.004  -0.275  21.847  0.00  0.00    +0.292 C 
BRANCH  10  12
ATOM     11  N   UNL     1      19.208  -2.665  22.426  0.00  0.00    -0.131 NA
ATOM     12  C   UNL     1      18.561  -1.480  22.574  0.00  0.00    +0.121 A 
ATOM     13  C   UNL     1      17.525  -1.647  23.462  0.00  0.00    +0.143 A 
ATOM     14  N   UNL     1      17.583  -2.974  23.856  0.00  0.00    -0.219 N 
ATOM     15  N   UNL     1      18.607  -3.558  23.198  0.00  0.00    -0.060 NA
BRANCH  14  16
ATOM     16  C   UNL     1      16.747  -3.653  24.798  0.00  0.00    +0.080 A 
ATOM     17  C   UNL     1      17.006  -3.443  26.174  0.00  0.00    +0.029 A 
ATOM     18  C   UNL     1      16.257  -4.076  27.169  0.00  0.00    +0.002 A 
ATOM     19  C   UNL     1      15.228  -4.935  26.820  0.00  0.00    +0.001 A 
ATOM     20  C   UNL     1      14.946  -5.155  25.474  0.00  0.00    +0.016 A 
ATOM     21  C   UNL     1      15.691  -4.523  24.456  0.00  0.00    +0.039 A 
ATOM     22  I   UNL     1      15.020  -5.054  22.520  0.00  0.00    -0.042 I 
ENDBRANCH  14  16
ENDBRANCH  10  12
ENDBRANCH   9  10
ENDBRANCH   5   9
ENDBRANCH   4   7
ENDBRANCH   1   4
BRANCH   1  23
ATOM     23  C   UNL     1      18.358   3.308  23.829  0.00  0.00    +0.175 C 
BRANCH  23  24
ATOM     24  C   UNL     1      18.365   4.164  25.104  0.00  0.00    +0.176 C 
ATOM     25  O   UNL     1      19.640   4.861  25.167  0.00  0.00    -0.332 OA
ATOM     26  C   UNL     1      19.787   5.814  26.271  0.00  0.00    +0.277 C 
ATOM     27  C   UNL     1      19.502   5.121  27.626  0.00  0.00    +0.110 C 
ATOM     28  C   UNL     1      18.171   4.340  27.597  0.00  0.00    +0.143 C 
ATOM     29  C   UNL     1      18.123   3.381  26.408  0.00  0.00    +0.133 C 
BRANCH  29  30
ATOM     30  N   UNL     1      16.817   2.707  26.341  0.00  0.00    -0.308 N 
ATOM     31  H   UNL     1      15.996   3.282  26.215  0.00  0.00    +0.149 HD
ATOM     32  C   UNL     1      16.646   1.386  26.437  0.00  0.00    +0.210 C 
ATOM     33  C   UNL     1      17.915   0.540  26.655  0.00  0.00    +0.109 C 
ATOM     34  O   UNL     1      15.541   0.847  26.363  0.00  0.00    -0.276 OA
ENDBRANCH  29  30
BRANCH  26  35
ATOM     35  C   UNL     1      18.830   7.011  26.092  0.00  0.00    +0.414 C 
ATOM     36  O   UNL     1      18.050   7.044  25.140  0.00  0.00    -0.240 OA
ATOM     37  O   UNL     1      18.836   7.941  26.899  0.00  0.00    -0.240 OA
ENDBRANCH  26  35
BRANCH  28  38
ATOM     38  O   UNL     1      18.022   3.597  28.808  0.00  0.00    -0.390 OA
ATOM     39  H   UNL     1      17.161   3.172  28.819  0.00  0.00    +0.210 HD
ENDBRANCH  28  38
BRANCH  26  40
ATOM     40  O   UNL     1      21.160   6.284  26.278  0.00  0.00    -0.343 OA
ATOM     41  C   UNL     1      21.766   6.424  24.968  0.00  0.00    +0.198 C 
ENDBRANCH  26  40
ENDBRANCH  23  24
BRANCH  23  42
ATOM     42  O   UNL     1      19.693   2.858  23.525  0.00  0.00    -0.387 OA
ATOM     43  H   UNL     1      19.672   2.294  22.748  0.00  0.00    +0.210 HD
ENDBRANCH  23  42
ENDBRANCH   1  23
TORSDOF 14
