REMARK VINA RESULT:    -5.587      7.585     10.444
REMARK INTER + INTRA:         -13.773
REMARK INTER:                 -10.004
REMARK INTRA:                  -3.769
REMARK UNBOUND:                -3.450
REMARK  Name = lig_assembled_66.pdb
REMARK  18 active torsions:
REMARK  status: ('A' for Active; 'I' for Inactive)
REMARK    1  A    between atoms: _2  and  _10
REMARK    2  A    between atoms: _5  and  _21
REMARK    3  A    between atoms: _7  and  _8
REMARK    4  A    between atoms: _7  and  _21
REMARK    5  A    between atoms: _10  and  _11
REMARK    6  A    between atoms: _15  and  _16
REMARK    7  A    between atoms: _17  and  _37
REMARK    8  A    between atoms: _19  and  _25
REMARK    9  A    between atoms: _20  and  _24
REMARK   10  A    between atoms: _24  and  _25
REMARK   11  A    between atoms: _27  and  _28
REMARK   12  A    between atoms: _29  and  _30
REMARK   13  A    between atoms: _31  and  _33
REMARK   14  A    between atoms: _33  and  _34
REMARK   15  A    between atoms: _33  and  _35
REMARK   16  A    between atoms: _35  and  _36
REMARK   17  A    between atoms: _35  and  _37
REMARK   18  A    between atoms: _38  and  _40
REMARK                            x       y       z     vdW  Elec       q    Type
REMARK                         _______ _______ _______ _____ _____    ______ ____
ROOT
ATOM      1  C   UNL     1       3.306   5.596  36.514  0.00  0.00    +0.163 C 
ENDROOT
BRANCH   1   2
ATOM      2  O   UNL     1       2.091   6.248  36.919  0.00  0.00    -0.388 OA
ATOM      3  H   UNL     1       1.374   5.979  36.338  0.00  0.00    +0.210 HD
ENDBRANCH   1   2
BRANCH   1   4
ATOM      4  C   UNL     1       4.371   5.682  37.621  0.00  0.00    +0.175 C 
BRANCH   4   5
ATOM      5  C   UNL     1       5.696   6.261  37.104  0.00  0.00    +0.176 C 
ATOM      6  O   UNL     1       5.982   5.643  35.818  0.00  0.00    -0.332 OA
ATOM      7  C   UNL     1       7.165   6.154  35.119  0.00  0.00    +0.277 C 
ATOM      8  C   UNL     1       8.413   6.067  36.030  0.00  0.00    +0.110 C 
ATOM      9  C   UNL     1       8.147   6.683  37.420  0.00  0.00    +0.143 C 
ATOM     10  C   UNL     1       6.893   6.082  38.056  0.00  0.00    +0.133 C 
BRANCH  10  11
ATOM     11  N   UNL     1       6.602   6.737  39.340  0.00  0.00    -0.308 N 
ATOM     12  H   UNL     1       6.305   7.703  39.320  0.00  0.00    +0.149 HD
ATOM     13  C   UNL     1       6.703   6.140  40.531  0.00  0.00    +0.210 C 
ATOM     14  C   UNL     1       7.183   4.676  40.529  0.00  0.00    +0.109 C 
ATOM     15  O   UNL     1       6.438   6.710  41.590  0.00  0.00    -0.276 OA
ENDBRANCH  10  11
BRANCH   7  16
ATOM     16  C   UNL     1       6.950   7.617  34.678  0.00  0.00    +0.414 C 
ATOM     17  O   UNL     1       7.890   8.411  34.683  0.00  0.00    -0.240 OA
ATOM     18  O   UNL     1       5.837   8.004  34.318  0.00  0.00    -0.240 OA
ENDBRANCH   7  16
BRANCH   7  19
ATOM     19  O   UNL     1       7.391   5.321  33.952  0.00  0.00    -0.343 OA
ATOM     20  C   UNL     1       7.859   3.979  34.240  0.00  0.00    +0.198 C 
ENDBRANCH   7  19
BRANCH   9  21
ATOM     21  O   UNL     1       9.267   6.446  38.274  0.00  0.00    -0.390 OA
ATOM     22  H   UNL     1      10.034   6.219  37.742  0.00  0.00    +0.210 HD
ENDBRANCH   9  21
ENDBRANCH   4   5
BRANCH   4  23
ATOM     23  O   UNL     1       4.590   4.382  38.202  0.00  0.00    -0.387 OA
ATOM     24  H   UNL     1       4.335   3.702  37.573  0.00  0.00    +0.210 HD
ENDBRANCH   4  23
ENDBRANCH   1   4
BRANCH   1  25
ATOM     25  C   UNL     1       3.029   4.132  36.187  0.00  0.00    +0.141 C 
BRANCH  25  28
ATOM     26  C   UNL     1       3.673   3.584  33.866  0.00  0.00    +0.401 C 
ATOM     27  O   UNL     1       2.610   3.975  33.378  0.00  0.00    -0.226 OA
ATOM     28  N   UNL     1       3.952   3.614  35.170  0.00  0.00    -0.279 N 
ATOM     29  H   UNL     1       4.848   3.261  35.475  0.00  0.00    +0.152 HD
BRANCH  26  30
ATOM     30  O   UNL     1       4.682   3.057  33.000  0.00  0.00    -0.444 OA
BRANCH  30  31
ATOM     31  C   UNL     1       4.599   1.629  32.982  0.00  0.00    +0.292 C 
BRANCH  31  33
ATOM     32  N   UNL     1       6.917   1.049  32.327  0.00  0.00    -0.131 NA
ATOM     33  C   UNL     1       5.919   1.033  33.266  0.00  0.00    +0.120 A 
ATOM     34  C   UNL     1       6.393   0.444  34.416  0.00  0.00    +0.137 A 
ATOM     35  N   UNL     1       7.702   0.174  34.134  0.00  0.00    -0.247 N 
ATOM     36  N   UNL     1       8.007   0.522  32.869  0.00  0.00    -0.065 NA
BRANCH  35  37
ATOM     37  C   UNL     1       8.754  -0.163  35.074  0.00  0.00    +0.180 C 
BRANCH  37  38
ATOM     38  C   UNL     1       9.430   1.044  35.673  0.00  0.00    -0.025 A 
ATOM     39  C   UNL     1       8.918   1.638  36.836  0.00  0.00    +0.005 A 
ATOM     40  C   UNL     1       9.584   2.705  37.444  0.00  0.00    +0.002 A 
ATOM     41  C   UNL     1      10.761   3.204  36.886  0.00  0.00    +0.019 A 
ATOM     42  C   UNL     1      11.265   2.646  35.708  0.00  0.00    +0.052 A 
ATOM     43  C   UNL     1      10.602   1.569  35.105  0.00  0.00    +0.024 A 
BRANCH  42  44
ATOM     44  C   UNL     1      12.466   3.168  35.123  0.00  0.00    +0.099 C 
ATOM     45  N   UNL     1      13.439   3.596  34.656  0.00  0.00    -0.191 NA
ENDBRANCH  42  44
ENDBRANCH  37  38
ENDBRANCH  35  37
ENDBRANCH  31  33
ENDBRANCH  30  31
ENDBRANCH  26  30
ENDBRANCH  25  28
ENDBRANCH   1  25
TORSDOF 16
