REMARK VINA RESULT:    -6.734      2.917      3.820
REMARK INTER + INTRA:         -15.237
REMARK INTER:                 -11.976
REMARK INTRA:                  -3.261
REMARK UNBOUND:                -2.597
REMARK  Name = lig_assembled_77.pdb
REMARK  19 active torsions:
REMARK  status: ('A' for Active; 'I' for Inactive)
REMARK    1  A    between atoms: _2  and  _10
REMARK    2  A    between atoms: _3  and  _17
REMARK    3  A    between atoms: _5  and  _27
REMARK    4  A    between atoms: _7  and  _8
REMARK    5  A    between atoms: _7  and  _27
REMARK    6  A    between atoms: _13  and  _47
REMARK    7  A    between atoms: _14  and  _47
REMARK    8  A    between atoms: _23  and  _43
REMARK    9  A    between atoms: _25  and  _31
REMARK   10  A    between atoms: _26  and  _30
REMARK   11  A    between atoms: _30  and  _31
REMARK   12  A    between atoms: _33  and  _34
REMARK   13  A    between atoms: _35  and  _36
REMARK   14  A    between atoms: _37  and  _39
REMARK   15  A    between atoms: _39  and  _40
REMARK   16  A    between atoms: _39  and  _41
REMARK   17  A    between atoms: _41  and  _42
REMARK   18  A    between atoms: _41  and  _43
REMARK   19  A    between atoms: _44  and  _46
REMARK                            x       y       z     vdW  Elec       q    Type
REMARK                         _______ _______ _______ _____ _____    ______ ____
ROOT
ATOM      1  C   UNL     1       5.450  -0.296  32.537  0.00  0.00    +0.401 C 
ATOM      2  O   UNL     1       5.955  -1.185  33.225  0.00  0.00    -0.226 OA
ATOM      3  N   UNL     1       6.031   0.880  32.294  0.00  0.00    -0.279 N 
ATOM      4  H   UNL     1       5.542   1.542  31.709  0.00  0.00    +0.152 HD
ENDROOT
BRANCH   3   5
ATOM      5  C   UNL     1       7.342   1.266  32.831  0.00  0.00    +0.141 C 
BRANCH   5   6
ATOM      6  C   UNL     1       7.303   2.641  33.491  0.00  0.00    +0.163 C 
BRANCH   6   7
ATOM      7  O   UNL     1       7.408   3.669  32.492  0.00  0.00    -0.388 OA
ATOM      8  H   UNL     1       6.829   3.460  31.755  0.00  0.00    +0.210 HD
ENDBRANCH   6   7
BRANCH   6   9
ATOM      9  C   UNL     1       6.000   2.788  34.296  0.00  0.00    +0.175 C 
BRANCH   9  10
ATOM     10  C   UNL     1       5.758   4.237  34.743  0.00  0.00    +0.176 C 
ATOM     11  O   UNL     1       7.006   4.753  35.283  0.00  0.00    -0.332 OA
ATOM     12  C   UNL     1       6.993   6.168  35.667  0.00  0.00    +0.277 C 
ATOM     13  C   UNL     1       5.838   6.450  36.658  0.00  0.00    +0.110 C 
ATOM     14  C   UNL     1       4.495   5.891  36.142  0.00  0.00    +0.143 C 
ATOM     15  C   UNL     1       4.623   4.414  35.769  0.00  0.00    +0.133 C 
BRANCH  15  16
ATOM     16  N   UNL     1       3.362   3.916  35.197  0.00  0.00    -0.308 N 
ATOM     17  H   UNL     1       3.082   4.270  34.293  0.00  0.00    +0.149 HD
ATOM     18  C   UNL     1       2.564   3.026  35.794  0.00  0.00    +0.210 C 
ATOM     19  C   UNL     1       3.006   2.526  37.182  0.00  0.00    +0.109 C 
ATOM     20  O   UNL     1       1.521   2.616  35.285  0.00  0.00    -0.276 OA
ENDBRANCH  15  16
BRANCH  12  21
ATOM     21  C   UNL     1       6.839   7.070  34.425  0.00  0.00    +0.414 C 
ATOM     22  O   UNL     1       6.246   8.145  34.509  0.00  0.00    -0.240 OA
ATOM     23  O   UNL     1       7.306   6.724  33.339  0.00  0.00    -0.240 OA
ENDBRANCH  12  21
BRANCH  14  24
ATOM     24  O   UNL     1       3.493   6.038  37.149  0.00  0.00    -0.390 OA
ATOM     25  H   UNL     1       2.654   6.254  36.736  0.00  0.00    +0.210 HD
ENDBRANCH  14  24
BRANCH  12  26
ATOM     26  O   UNL     1       8.249   6.464  36.331  0.00  0.00    -0.343 OA
ATOM     27  C   UNL     1       8.120   7.113  37.622  0.00  0.00    +0.198 C 
ENDBRANCH  12  26
ENDBRANCH   9  10
BRANCH   9  28
ATOM     28  O   UNL     1       6.023   1.912  35.441  0.00  0.00    -0.387 OA
ATOM     29  H   UNL     1       6.239   2.418  36.227  0.00  0.00    +0.210 HD
ENDBRANCH   9  28
ENDBRANCH   6   9
ENDBRANCH   5   6
ENDBRANCH   3   5
BRANCH   1  30
ATOM     30  O   UNL     1       4.166  -0.518  31.948  0.00  0.00    -0.444 OA
BRANCH  30  31
ATOM     31  C   UNL     1       3.177   0.227  32.663  0.00  0.00    +0.292 C 
BRANCH  31  33
ATOM     32  N   UNL     1       2.805   2.629  32.207  0.00  0.00    -0.131 NA
ATOM     33  C   UNL     1       2.656   1.327  31.828  0.00  0.00    +0.121 A 
ATOM     34  C   UNL     1       1.989   1.282  30.625  0.00  0.00    +0.143 A 
ATOM     35  N   UNL     1       1.756   2.598  30.299  0.00  0.00    -0.220 N 
ATOM     36  N   UNL     1       2.248   3.395  31.279  0.00  0.00    -0.060 NA
BRANCH  35  37
ATOM     37  C   UNL     1       1.169   3.134  29.121  0.00  0.00    +0.067 A 
ATOM     38  C   UNL     1      -0.160   3.583  29.119  0.00  0.00    +0.030 A 
ATOM     39  C   UNL     1      -0.759   3.994  27.924  0.00  0.00    +0.029 A 
ATOM     40  C   UNL     1      -0.027   3.960  26.736  0.00  0.00    +0.094 A 
ATOM     41  C   UNL     1       1.324   3.603  26.742  0.00  0.00    +0.029 A 
ATOM     42  C   UNL     1       1.919   3.178  27.933  0.00  0.00    +0.030 A 
BRANCH  40  43
ATOM     43  S   UNL     1      -0.812   4.418  25.203  0.00  0.00    +0.025 S 
ATOM     44  O   UNL     1      -2.082   3.713  25.174  0.00  0.00    -0.164 OA
ATOM     45  O   UNL     1      -0.767   5.864  25.108  0.00  0.00    -0.164 OA
BRANCH  43  46
ATOM     46  C   UNL     1       0.162   3.795  23.848  0.00  0.00    +0.094 A 
ATOM     47  C   UNL     1       1.092   4.607  23.199  0.00  0.00    +0.029 A 
ATOM     48  C   UNL     1       1.796   4.104  22.098  0.00  0.00    +0.024 A 
ATOM     49  C   UNL     1       1.615   2.783  21.667  0.00  0.00    +0.025 A 
ATOM     50  C   UNL     1       0.657   1.994  22.311  0.00  0.00    +0.024 A 
ATOM     51  C   UNL     1      -0.054   2.485  23.410  0.00  0.00    +0.029 A 
BRANCH  49  52
ATOM     52  N   UNL     1       2.191   2.348  20.470  0.00  0.00    -0.358 N 
ATOM     53  H   UNL     1       2.629   3.080  19.919  0.00  0.00    +0.142 HD
ATOM     54  H   UNL     1       2.778   1.526  20.562  0.00  0.00    +0.142 HD
ENDBRANCH  49  52
ENDBRANCH  43  46
ENDBRANCH  40  43
ENDBRANCH  35  37
ENDBRANCH  31  33
ENDBRANCH  30  31
ENDBRANCH   1  30
TORSDOF 17
