REMARK VINA RESULT:    -5.686      3.387      4.425
REMARK INTER + INTRA:         -12.838
REMARK INTER:                 -11.148
REMARK INTRA:                  -1.690
REMARK UNBOUND:                -1.667
REMARK  Name = lig_assembled_43.pdb
REMARK  20 active torsions:
REMARK  status: ('A' for Active; 'I' for Inactive)
REMARK    1  A    between atoms: _2  and  _9
REMARK    2  A    between atoms: _4  and  _18
REMARK    3  A    between atoms: _6  and  _7
REMARK    4  A    between atoms: _6  and  _18
REMARK    5  A    between atoms: _9  and  _10
REMARK    6  A    between atoms: _10  and  _11
REMARK    7  A    between atoms: _11  and  _12
REMARK    8  A    between atoms: _12  and  _13
REMARK    9  A    between atoms: _14  and  _34
REMARK   10  A    between atoms: _16  and  _22
REMARK   11  A    between atoms: _17  and  _21
REMARK   12  A    between atoms: _21  and  _22
REMARK   13  A    between atoms: _24  and  _25
REMARK   14  A    between atoms: _26  and  _27
REMARK   15  A    between atoms: _28  and  _30
REMARK   16  A    between atoms: _30  and  _31
REMARK   17  A    between atoms: _30  and  _32
REMARK   18  A    between atoms: _32  and  _33
REMARK   19  A    between atoms: _32  and  _34
REMARK   20  A    between atoms: _35  and  _37
REMARK                            x       y       z     vdW  Elec       q    Type
REMARK                         _______ _______ _______ _____ _____    ______ ____
ROOT
ATOM      1  C   UNL     1       7.699   2.340  34.250  0.00  0.00    +0.163 C 
ENDROOT
BRANCH   1   2
ATOM      2  O   UNL     1       8.246   2.533  35.565  0.00  0.00    -0.388 OA
ATOM      3  H   UNL     1       8.049   3.423  35.866  0.00  0.00    +0.210 HD
ENDBRANCH   1   2
BRANCH   1   4
ATOM      4  C   UNL     1       7.808   3.627  33.414  0.00  0.00    +0.175 C 
BRANCH   4   5
ATOM      5  C   UNL     1       6.975   4.773  34.006  0.00  0.00    +0.176 C 
ATOM      6  O   UNL     1       7.717   5.334  35.124  0.00  0.00    -0.332 OA
ATOM      7  C   UNL     1       7.120   6.516  35.752  0.00  0.00    +0.277 C 
ATOM      8  C   UNL     1       5.663   6.220  36.187  0.00  0.00    +0.110 C 
ATOM      9  C   UNL     1       4.843   5.593  35.040  0.00  0.00    +0.143 C 
ATOM     10  C   UNL     1       5.558   4.373  34.458  0.00  0.00    +0.133 C 
BRANCH  10  11
ATOM     11  N   UNL     1       4.809   3.836  33.310  0.00  0.00    -0.308 N 
ATOM     12  H   UNL     1       4.785   4.387  32.464  0.00  0.00    +0.149 HD
ATOM     13  C   UNL     1       4.160   2.669  33.314  0.00  0.00    +0.210 C 
ATOM     14  C   UNL     1       4.194   1.866  34.628  0.00  0.00    +0.109 C 
ATOM     15  O   UNL     1       3.554   2.238  32.333  0.00  0.00    -0.276 OA
ENDBRANCH  10  11
BRANCH   7  16
ATOM     16  C   UNL     1       7.135   7.716  34.783  0.00  0.00    +0.414 C 
ATOM     17  O   UNL     1       6.079   8.182  34.355  0.00  0.00    -0.240 OA
ATOM     18  O   UNL     1       8.202   8.220  34.430  0.00  0.00    -0.240 OA
ENDBRANCH   7  16
BRANCH   9  19
ATOM     19  O   UNL     1       3.559   5.199  35.526  0.00  0.00    -0.390 OA
ATOM     20  H   UNL     1       3.071   4.762  34.824  0.00  0.00    +0.210 HD
ENDBRANCH   9  19
BRANCH   7  21
ATOM     21  O   UNL     1       7.895   6.835  36.937  0.00  0.00    -0.343 OA
ATOM     22  C   UNL     1       8.417   5.688  37.654  0.00  0.00    +0.198 C 
ENDBRANCH   7  21
ENDBRANCH   4   5
BRANCH   4  23
ATOM     23  O   UNL     1       7.404   3.371  32.054  0.00  0.00    -0.387 OA
ATOM     24  H   UNL     1       6.598   3.855  31.863  0.00  0.00    +0.210 HD
ENDBRANCH   4  23
ENDBRANCH   1   4
BRANCH   1  25
ATOM     25  C   UNL     1       8.434   1.207  33.540  0.00  0.00    +0.141 C 
BRANCH  25  28
ATOM     26  C   UNL     1       7.519  -0.692  32.252  0.00  0.00    +0.401 C 
ATOM     27  O   UNL     1       8.094  -1.549  32.928  0.00  0.00    -0.226 OA
ATOM     28  N   UNL     1       7.626   0.620  32.464  0.00  0.00    -0.279 N 
ATOM     29  H   UNL     1       7.123   1.245  31.850  0.00  0.00    +0.152 HD
BRANCH  26  30
ATOM     30  O   UNL     1       6.685  -1.108  31.168  0.00  0.00    -0.444 OA
BRANCH  30  31
ATOM     31  C   UNL     1       7.372  -2.088  30.385  0.00  0.00    +0.292 C 
BRANCH  31  33
ATOM     32  N   UNL     1       7.630  -2.290  27.930  0.00  0.00    -0.131 NA
ATOM     33  C   UNL     1       6.814  -2.139  29.021  0.00  0.00    +0.120 A 
ATOM     34  C   UNL     1       5.507  -2.051  28.596  0.00  0.00    +0.137 A 
ATOM     35  N   UNL     1       5.598  -2.149  27.240  0.00  0.00    -0.251 N 
ATOM     36  N   UNL     1       6.872  -2.294  26.842  0.00  0.00    -0.065 NA
BRANCH  35  37
ATOM     37  C   UNL     1       4.528  -2.081  26.267  0.00  0.00    +0.145 C 
BRANCH  37  38
ATOM     38  C   UNL     1       3.684  -0.824  26.451  0.00  0.00    +0.024 C 
BRANCH  38  39
ATOM     39  C   UNL     1       3.293  -0.192  25.114  0.00  0.00    +0.006 C 
BRANCH  39  40
ATOM     40  C   UNL     1       2.249   0.907  25.324  0.00  0.00    +0.026 C 
BRANCH  40  41
ATOM     41  C   UNL     1       2.575   2.148  24.547  0.00  0.00    -0.034 C 
ATOM     42  C   UNL     1       2.217   3.382  24.928  0.00  0.00    +0.004 C 
ENDBRANCH  40  41
ENDBRANCH  39  40
ENDBRANCH  38  39
ENDBRANCH  37  38
ENDBRANCH  35  37
ENDBRANCH  31  33
ENDBRANCH  30  31
ENDBRANCH  26  30
ENDBRANCH  25  28
ENDBRANCH   1  25
TORSDOF 18
