REMARK VINA RESULT:    -6.047      2.158      4.204
REMARK INTER + INTRA:         -13.329
REMARK INTER:                 -10.997
REMARK INTRA:                  -2.332
REMARK UNBOUND:                -2.511
REMARK  Name = lig_assembled_6.pdb
REMARK  17 active torsions:
REMARK  status: ('A' for Active; 'I' for Inactive)
REMARK    1  A    between atoms: _2  and  _10
REMARK    2  A    between atoms: _3  and  _13
REMARK    3  A    between atoms: _5  and  _21
REMARK    4  A    between atoms: _7  and  _8
REMARK    5  A    between atoms: _7  and  _21
REMARK    6  A    between atoms: _17  and  _37
REMARK    7  A    between atoms: _19  and  _25
REMARK    8  A    between atoms: _20  and  _24
REMARK    9  A    between atoms: _24  and  _25
REMARK   10  A    between atoms: _27  and  _28
REMARK   11  A    between atoms: _29  and  _30
REMARK   12  A    between atoms: _31  and  _33
REMARK   13  A    between atoms: _33  and  _34
REMARK   14  A    between atoms: _33  and  _35
REMARK   15  A    between atoms: _35  and  _36
REMARK   16  A    between atoms: _35  and  _37
REMARK   17  A    between atoms: _38  and  _40
REMARK                            x       y       z     vdW  Elec       q    Type
REMARK                         _______ _______ _______ _____ _____    ______ ____
ROOT
ATOM      1  C   UNL     1       2.917   3.003  36.082  0.00  0.00    +0.163 C 
ENDROOT
BRANCH   1   2
ATOM      2  O   UNL     1       3.045   1.601  35.797  0.00  0.00    -0.388 OA
ATOM      3  H   UNL     1       2.393   1.347  35.140  0.00  0.00    +0.210 HD
ENDBRANCH   1   2
BRANCH   1   4
ATOM      4  C   UNL     1       1.901   3.637  35.139  0.00  0.00    +0.141 C 
BRANCH   4   7
ATOM      5  C   UNL     1       0.994   3.261  32.871  0.00  0.00    +0.401 C 
ATOM      6  O   UNL     1       0.152   4.158  32.957  0.00  0.00    -0.226 OA
ATOM      7  N   UNL     1       1.848   2.945  33.845  0.00  0.00    -0.279 N 
ATOM      8  H   UNL     1       2.495   2.186  33.684  0.00  0.00    +0.152 HD
BRANCH   5   9
ATOM      9  O   UNL     1       1.075   2.497  31.665  0.00  0.00    -0.444 OA
BRANCH   9  10
ATOM     10  C   UNL     1       2.145   2.993  30.856  0.00  0.00    +0.292 C 
BRANCH  10  12
ATOM     11  N   UNL     1       0.514   3.868  29.212  0.00  0.00    -0.131 NA
ATOM     12  C   UNL     1       1.683   3.214  29.473  0.00  0.00    +0.121 A 
ATOM     13  C   UNL     1       2.274   2.859  28.282  0.00  0.00    +0.143 A 
ATOM     14  N   UNL     1       1.435   3.350  27.308  0.00  0.00    -0.220 N 
ATOM     15  N   UNL     1       0.366   3.940  27.896  0.00  0.00    -0.060 NA
BRANCH  14  16
ATOM     16  C   UNL     1       1.602   3.328  25.898  0.00  0.00    +0.067 A 
ATOM     17  C   UNL     1       1.193   4.416  25.112  0.00  0.00    +0.034 A 
ATOM     18  C   UNL     1       1.306   4.357  23.719  0.00  0.00    +0.086 A 
ATOM     19  C   UNL     1       1.830   3.211  23.110  0.00  0.00    +0.273 A 
ATOM     20  C   UNL     1       2.266   2.131  23.887  0.00  0.00    +0.086 A 
ATOM     21  C   UNL     1       2.152   2.192  25.280  0.00  0.00    +0.034 A 
BRANCH  19  22
ATOM     22  N   UNL     1       1.905   3.138  21.645  0.00  0.00    +0.080 N 
ATOM     23  O   UNL     1       2.120   2.030  21.134  0.00  0.00    +0.041 OA
ATOM     24  O   UNL     1       1.757   4.190  21.007  0.00  0.00    -0.576 OA
ENDBRANCH  19  22
ENDBRANCH  14  16
ENDBRANCH  10  12
ENDBRANCH   9  10
ENDBRANCH   5   9
ENDBRANCH   4   7
ENDBRANCH   1   4
BRANCH   1  25
ATOM     25  C   UNL     1       4.271   3.720  35.936  0.00  0.00    +0.175 C 
BRANCH  25  26
ATOM     26  C   UNL     1       5.031   3.269  34.681  0.00  0.00    +0.176 C 
ATOM     27  O   UNL     1       5.537   1.927  34.922  0.00  0.00    -0.332 OA
ATOM     28  C   UNL     1       6.205   1.287  33.785  0.00  0.00    +0.277 C 
ATOM     29  C   UNL     1       7.345   2.188  33.250  0.00  0.00    +0.110 C 
ATOM     30  C   UNL     1       6.863   3.633  33.008  0.00  0.00    +0.143 C 
ATOM     31  C   UNL     1       6.181   4.200  34.254  0.00  0.00    +0.133 C 
BRANCH  31  32
ATOM     32  N   UNL     1       5.649   5.545  33.984  0.00  0.00    -0.308 N 
ATOM     33  H   UNL     1       4.905   5.630  33.306  0.00  0.00    +0.149 HD
ATOM     34  C   UNL     1       6.086   6.660  34.575  0.00  0.00    +0.210 C 
ATOM     35  C   UNL     1       7.239   6.500  35.584  0.00  0.00    +0.109 C 
ATOM     36  O   UNL     1       5.612   7.772  34.340  0.00  0.00    -0.276 OA
ENDBRANCH  31  32
BRANCH  28  37
ATOM     37  C   UNL     1       5.199   1.000  32.650  0.00  0.00    +0.414 C 
ATOM     38  O   UNL     1       5.585   0.921  31.485  0.00  0.00    -0.240 OA
ATOM     39  O   UNL     1       4.002   0.849  32.900  0.00  0.00    -0.240 OA
ENDBRANCH  28  37
BRANCH  30  40
ATOM     40  O   UNL     1       7.975   4.461  32.663  0.00  0.00    -0.390 OA
ATOM     41  H   UNL     1       7.677   5.180  32.101  0.00  0.00    +0.210 HD
ENDBRANCH  30  40
BRANCH  28  42
ATOM     42  O   UNL     1       6.785   0.041  34.248  0.00  0.00    -0.343 OA
ATOM     43  C   UNL     1       6.161  -0.524  35.429  0.00  0.00    +0.198 C 
ENDBRANCH  28  42
ENDBRANCH  25  26
BRANCH  25  44
ATOM     44  O   UNL     1       5.078   3.501  37.111  0.00  0.00    -0.387 OA
ATOM     45  H   UNL     1       4.908   2.622  37.457  0.00  0.00    +0.210 HD
ENDBRANCH  25  44
ENDBRANCH   1  25
TORSDOF 15
