REMARK VINA RESULT:    -6.512      2.729      5.875
REMARK INTER + INTRA:         -14.323
REMARK INTER:                 -11.707
REMARK INTRA:                  -2.616
REMARK UNBOUND:                -1.911
REMARK  Name = lig_assembled_26.pdb
REMARK  20 active torsions:
REMARK  status: ('A' for Active; 'I' for Inactive)
REMARK    1  A    between atoms: _2  and  _9
REMARK    2  A    between atoms: _4  and  _23
REMARK    3  A    between atoms: _6  and  _7
REMARK    4  A    between atoms: _6  and  _23
REMARK    5  A    between atoms: _9  and  _10
REMARK    6  A    between atoms: _9  and  _11
REMARK    7  A    between atoms: _11  and  _12
REMARK    8  A    between atoms: _12  and  _13
REMARK    9  A    between atoms: _19  and  _39
REMARK   10  A    between atoms: _21  and  _27
REMARK   11  A    between atoms: _22  and  _26
REMARK   12  A    between atoms: _26  and  _27
REMARK   13  A    between atoms: _29  and  _30
REMARK   14  A    between atoms: _31  and  _32
REMARK   15  A    between atoms: _33  and  _35
REMARK   16  A    between atoms: _35  and  _36
REMARK   17  A    between atoms: _35  and  _37
REMARK   18  A    between atoms: _37  and  _38
REMARK   19  A    between atoms: _37  and  _39
REMARK   20  A    between atoms: _40  and  _42
REMARK                            x       y       z     vdW  Elec       q    Type
REMARK                         _______ _______ _______ _____ _____    ______ ____
ROOT
ATOM      1  C   UNL     1       3.560   2.366  33.288  0.00  0.00    +0.163 C 
ENDROOT
BRANCH   1   2
ATOM      2  O   UNL     1       3.143   1.105  33.836  0.00  0.00    -0.388 OA
ATOM      3  H   UNL     1       2.597   0.642  33.195  0.00  0.00    +0.210 HD
ENDBRANCH   1   2
BRANCH   1   4
ATOM      4  C   UNL     1       4.305   2.169  31.957  0.00  0.00    +0.175 C 
BRANCH   4   5
ATOM      5  C   UNL     1       5.548   1.283  32.116  0.00  0.00    +0.176 C 
ATOM      6  O   UNL     1       5.099  -0.079  32.357  0.00  0.00    -0.332 OA
ATOM      7  C   UNL     1       6.156  -1.092  32.431  0.00  0.00    +0.277 C 
ATOM      8  C   UNL     1       7.214  -0.695  33.490  0.00  0.00    +0.110 C 
ATOM      9  C   UNL     1       7.699   0.757  33.293  0.00  0.00    +0.143 C 
ATOM     10  C   UNL     1       6.518   1.726  33.228  0.00  0.00    +0.133 C 
BRANCH  10  11
ATOM     11  N   UNL     1       6.988   3.093  32.953  0.00  0.00    -0.308 N 
ATOM     12  H   UNL     1       7.338   3.294  32.028  0.00  0.00    +0.149 HD
ATOM     13  C   UNL     1       6.981   4.085  33.848  0.00  0.00    +0.210 C 
ATOM     14  C   UNL     1       6.465   3.739  35.258  0.00  0.00    +0.109 C 
ATOM     15  O   UNL     1       7.368   5.224  33.586  0.00  0.00    -0.276 OA
ENDBRANCH  10  11
BRANCH   7  16
ATOM     16  C   UNL     1       6.840  -1.269  31.059  0.00  0.00    +0.414 C 
ATOM     17  O   UNL     1       8.054  -1.461  30.992  0.00  0.00    -0.240 OA
ATOM     18  O   UNL     1       6.180  -1.219  30.021  0.00  0.00    -0.240 OA
ENDBRANCH   7  16
BRANCH   7  19
ATOM     19  O   UNL     1       5.549  -2.345  32.838  0.00  0.00    -0.343 OA
ATOM     20  C   UNL     1       4.105  -2.393  32.720  0.00  0.00    +0.198 C 
ENDBRANCH   7  19
BRANCH   9  21
ATOM     21  O   UNL     1       8.554   1.129  34.374  0.00  0.00    -0.390 OA
ATOM     22  H   UNL     1       9.458   1.197  34.059  0.00  0.00    +0.210 HD
ENDBRANCH   9  21
ENDBRANCH   4   5
BRANCH   4  23
ATOM     23  O   UNL     1       4.674   3.447  31.400  0.00  0.00    -0.387 OA
ATOM     24  H   UNL     1       4.248   3.560  30.547  0.00  0.00    +0.210 HD
ENDBRANCH   4  23
ENDBRANCH   1   4
BRANCH   1  25
ATOM     25  C   UNL     1       2.348   3.265  33.066  0.00  0.00    +0.141 C 
BRANCH  25  28
ATOM     26  C   UNL     1       1.246   3.868  30.938  0.00  0.00    +0.401 C 
ATOM     27  O   UNL     1       1.398   5.082  31.095  0.00  0.00    -0.226 OA
ATOM     28  N   UNL     1       1.654   2.947  31.812  0.00  0.00    -0.279 N 
ATOM     29  H   UNL     1       1.475   1.976  31.599  0.00  0.00    +0.152 HD
BRANCH  26  30
ATOM     30  O   UNL     1       0.592   3.397  29.757  0.00  0.00    -0.444 OA
BRANCH  30  31
ATOM     31  C   UNL     1       1.364   2.346  29.170  0.00  0.00    +0.292 C 
BRANCH  31  33
ATOM     32  N   UNL     1       2.214   3.914  27.446  0.00  0.00    -0.131 NA
ATOM     33  C   UNL     1       1.720   2.682  27.781  0.00  0.00    +0.120 A 
ATOM     34  C   UNL     1       1.645   1.905  26.649  0.00  0.00    +0.137 A 
ATOM     35  N   UNL     1       2.079   2.724  25.650  0.00  0.00    -0.248 N 
ATOM     36  N   UNL     1       2.448   3.925  26.140  0.00  0.00    -0.065 NA
BRANCH  35  37
ATOM     37  C   UNL     1       2.250   2.444  24.233  0.00  0.00    +0.113 C 
ATOM     38  C   UNL     1       2.715   1.015  23.920  0.00  0.00    +0.033 C 
BRANCH  37  39
ATOM     39  C   UNL     1       1.019   2.839  23.396  0.00  0.00    +0.106 C 
BRANCH  39  40
ATOM     40  C   UNL     1       1.330   3.776  22.244  0.00  0.00    +0.165 C 
ATOM     41  O   UNL     1       1.392   4.996  22.386  0.00  0.00    -0.292 OA
BRANCH  40  42
ATOM     42  C   UNL     1       1.527   3.199  20.880  0.00  0.00    +0.017 A 
ATOM     43  C   UNL     1       1.216   1.869  20.574  0.00  0.00    +0.011 A 
ATOM     44  C   UNL     1       1.381   1.393  19.271  0.00  0.00    +0.001 A 
ATOM     45  C   UNL     1       1.863   2.238  18.271  0.00  0.00    +0.000 A 
ATOM     46  C   UNL     1       2.186   3.558  18.570  0.00  0.00    +0.001 A 
ATOM     47  C   UNL     1       2.018   4.038  19.870  0.00  0.00    +0.011 A 
ENDBRANCH  40  42
ENDBRANCH  39  40
ENDBRANCH  37  39
ENDBRANCH  35  37
ENDBRANCH  31  33
ENDBRANCH  30  31
ENDBRANCH  26  30
ENDBRANCH  25  28
ENDBRANCH   1  25
TORSDOF 17
