REMARK VINA RESULT:    -5.814      2.699      4.778
REMARK INTER + INTRA:         -13.868
REMARK INTER:                 -10.833
REMARK INTRA:                  -3.035
REMARK UNBOUND:                -2.615
REMARK  Name = lig_assembled_83.pdb
REMARK  20 active torsions:
REMARK  status: ('A' for Active; 'I' for Inactive)
REMARK    1  A    between atoms: _2  and  _12
REMARK    2  A    between atoms: _3  and  _14
REMARK    3  A    between atoms: _7  and  _24
REMARK    4  A    between atoms: _9  and  _10
REMARK    5  A    between atoms: _9  and  _24
REMARK    6  A    between atoms: _12  and  _13
REMARK    7  A    between atoms: _13  and  _14
REMARK    8  A    between atoms: _13  and  _18
REMARK    9  A    between atoms: _20  and  _40
REMARK   10  A    between atoms: _22  and  _28
REMARK   11  A    between atoms: _23  and  _27
REMARK   12  A    between atoms: _27  and  _28
REMARK   13  A    between atoms: _30  and  _31
REMARK   14  A    between atoms: _32  and  _33
REMARK   15  A    between atoms: _34  and  _36
REMARK   16  A    between atoms: _36  and  _37
REMARK   17  A    between atoms: _36  and  _38
REMARK   18  A    between atoms: _38  and  _39
REMARK   19  A    between atoms: _38  and  _40
REMARK   20  A    between atoms: _41  and  _43
REMARK                            x       y       z     vdW  Elec       q    Type
REMARK                         _______ _______ _______ _____ _____    ______ ____
ROOT
ATOM      1  C   UNL     1      20.685   7.395  24.937  0.00  0.00    +0.141 C 
ENDROOT
BRANCH   1   4
ATOM      2  C   UNL     1      20.055   9.509  26.049  0.00  0.00    +0.401 C 
ATOM      3  O   UNL     1      21.162  10.029  25.896  0.00  0.00    -0.226 OA
ATOM      4  N   UNL     1      19.746   8.279  25.637  0.00  0.00    -0.279 N 
ATOM      5  H   UNL     1      18.813   7.936  25.817  0.00  0.00    +0.152 HD
BRANCH   2   6
ATOM      6  O   UNL     1      19.025  10.250  26.709  0.00  0.00    -0.444 OA
BRANCH   6   7
ATOM      7  C   UNL     1      19.499  10.698  27.982  0.00  0.00    +0.292 C 
BRANCH   7   9
ATOM      8  N   UNL     1      17.838  10.448  29.810  0.00  0.00    -0.131 NA
ATOM      9  C   UNL     1      18.868   9.928  29.069  0.00  0.00    +0.120 A 
ATOM     10  C   UNL     1      19.148   8.659  29.522  0.00  0.00    +0.137 A 
ATOM     11  N   UNL     1      18.247   8.462  30.523  0.00  0.00    -0.249 N 
ATOM     12  N   UNL     1      17.468   9.540  30.706  0.00  0.00    -0.065 NA
BRANCH  11  13
ATOM     13  C   UNL     1      18.101   7.295  31.367  0.00  0.00    +0.178 C 
BRANCH  13  14
ATOM     14  C   UNL     1      17.144   7.552  32.535  0.00  0.00    +0.156 C 
BRANCH  14  15
ATOM     15  O   UNL     1      15.789   7.416  32.093  0.00  0.00    -0.388 OA
ATOM     16  H   UNL     1      15.741   6.761  31.368  0.00  0.00    +0.210 HD
ENDBRANCH  14  15
BRANCH  14  17
ATOM     17  C   UNL     1      17.429   6.577  33.688  0.00  0.00    +0.162 C 
BRANCH  17  18
ATOM     18  N   UNL     1      16.907   7.050  34.961  0.00  0.00    -0.269 N 
ATOM     19  C   UNL     1      17.543   7.992  35.738  0.00  0.00    +0.113 A 
ATOM     20  C   UNL     1      16.725   8.186  36.826  0.00  0.00    +0.137 A 
ATOM     21  N   UNL     1      15.625   7.375  36.758  0.00  0.00    -0.172 NA
ATOM     22  C   UNL     1      15.754   6.707  35.626  0.00  0.00    +0.450 A 
ATOM     23  N   UNL     1      14.774   5.744  35.177  0.00  0.00    +0.120 N 
ATOM     24  O   UNL     1      14.985   5.169  34.097  0.00  0.00    +0.045 OA
ATOM     25  O   UNL     1      13.794   5.545  35.905  0.00  0.00    -0.573 OA
ENDBRANCH  17  18
ENDBRANCH  14  17
ENDBRANCH  13  14
ENDBRANCH  11  13
ENDBRANCH   7   9
ENDBRANCH   6   7
ENDBRANCH   2   6
ENDBRANCH   1   4
BRANCH   1  26
ATOM     26  C   UNL     1      20.020   6.097  24.491  0.00  0.00    +0.163 C 
BRANCH  26  27
ATOM     27  O   UNL     1      20.855   5.419  23.538  0.00  0.00    -0.388 OA
ATOM     28  H   UNL     1      20.623   4.487  23.514  0.00  0.00    +0.210 HD
ENDBRANCH  26  27
BRANCH  26  29
ATOM     29  C   UNL     1      19.752   5.209  25.718  0.00  0.00    +0.175 C 
BRANCH  29  30
ATOM     30  C   UNL     1      19.338   3.784  25.321  0.00  0.00    +0.176 C 
ATOM     31  O   UNL     1      18.338   3.886  24.270  0.00  0.00    -0.332 OA
ATOM     32  C   UNL     1      17.899   2.614  23.688  0.00  0.00    +0.277 C 
ATOM     33  C   UNL     1      17.397   1.656  24.797  0.00  0.00    +0.110 C 
ATOM     34  C   UNL     1      18.413   1.541  25.952  0.00  0.00    +0.143 C 
ATOM     35  C   UNL     1      18.804   2.922  26.480  0.00  0.00    +0.133 C 
BRANCH  35  36
ATOM     36  N   UNL     1      19.837   2.803  27.521  0.00  0.00    -0.308 N 
ATOM     37  H   UNL     1      20.747   2.462  27.245  0.00  0.00    +0.149 HD
ATOM     38  C   UNL     1      19.650   3.115  28.806  0.00  0.00    +0.210 C 
ATOM     39  C   UNL     1      18.244   3.607  29.199  0.00  0.00    +0.109 C 
ATOM     40  O   UNL     1      20.538   3.020  29.654  0.00  0.00    -0.276 OA
ENDBRANCH  35  36
BRANCH  32  41
ATOM     41  C   UNL     1      19.049   1.943  22.909  0.00  0.00    +0.414 C 
ATOM     42  O   UNL     1      18.899   0.821  22.427  0.00  0.00    -0.240 OA
ATOM     43  O   UNL     1      20.125   2.523  22.762  0.00  0.00    -0.240 OA
ENDBRANCH  32  41
BRANCH  32  44
ATOM     44  O   UNL     1      16.795   2.890  22.788  0.00  0.00    -0.343 OA
ATOM     45  C   UNL     1      16.938   4.095  21.995  0.00  0.00    +0.198 C 
ENDBRANCH  32  44
BRANCH  34  46
ATOM     46  O   UNL     1      17.849   0.773  27.016  0.00  0.00    -0.390 OA
ATOM     47  H   UNL     1      16.965   1.095  27.209  0.00  0.00    +0.210 HD
ENDBRANCH  34  46
ENDBRANCH  29  30
BRANCH  29  48
ATOM     48  O   UNL     1      18.739   5.806  26.552  0.00  0.00    -0.387 OA
ATOM     49  H   UNL     1      19.137   6.486  27.102  0.00  0.00    +0.210 HD
ENDBRANCH  29  48
ENDBRANCH  26  29
ENDBRANCH   1  26
TORSDOF 18
