REMARK VINA RESULT:    -6.329     14.577     18.701
REMARK INTER + INTRA:         -14.257
REMARK INTER:                 -12.364
REMARK INTRA:                  -1.893
REMARK UNBOUND:                -2.378
REMARK  Name = lig_assembled_68.pdb
REMARK  19 active torsions:
REMARK  status: ('A' for Active; 'I' for Inactive)
REMARK    1  A    between atoms: _2  and  _9
REMARK    2  A    between atoms: _4  and  _21
REMARK    3  A    between atoms: _6  and  _7
REMARK    4  A    between atoms: _6  and  _21
REMARK    5  A    between atoms: _9  and  _10
REMARK    6  A    between atoms: _10  and  _11
REMARK    7  A    between atoms: _10  and  _16
REMARK    8  A    between atoms: _17  and  _37
REMARK    9  A    between atoms: _19  and  _25
REMARK   10  A    between atoms: _20  and  _24
REMARK   11  A    between atoms: _24  and  _25
REMARK   12  A    between atoms: _27  and  _28
REMARK   13  A    between atoms: _29  and  _30
REMARK   14  A    between atoms: _31  and  _33
REMARK   15  A    between atoms: _33  and  _34
REMARK   16  A    between atoms: _33  and  _35
REMARK   17  A    between atoms: _35  and  _36
REMARK   18  A    between atoms: _35  and  _37
REMARK   19  A    between atoms: _38  and  _40
REMARK                            x       y       z     vdW  Elec       q    Type
REMARK                         _______ _______ _______ _____ _____    ______ ____
ROOT
ATOM      1  C   UNL     1      17.046   1.840  26.186  0.00  0.00    +0.163 C 
ENDROOT
BRANCH   1   2
ATOM      2  O   UNL     1      16.137   2.705  26.885  0.00  0.00    -0.388 OA
ATOM      3  H   UNL     1      15.348   2.213  27.127  0.00  0.00    +0.210 HD
ENDBRANCH   1   2
BRANCH   1   4
ATOM      4  C   UNL     1      16.472   1.427  24.820  0.00  0.00    +0.175 C 
BRANCH   4   5
ATOM      5  C   UNL     1      17.539   0.798  23.911  0.00  0.00    +0.176 C 
ATOM      6  O   UNL     1      17.418   1.403  22.595  0.00  0.00    -0.332 OA
ATOM      7  C   UNL     1      18.431   0.998  21.616  0.00  0.00    +0.277 C 
ATOM      8  C   UNL     1      18.468  -0.544  21.481  0.00  0.00    +0.110 C 
ATOM      9  C   UNL     1      18.564  -1.233  22.859  0.00  0.00    +0.143 C 
ATOM     10  C   UNL     1      17.466  -0.737  23.799  0.00  0.00    +0.133 C 
BRANCH  10  11
ATOM     11  N   UNL     1      17.620  -1.335  25.134  0.00  0.00    -0.308 N 
ATOM     12  H   UNL     1      18.424  -1.064  25.682  0.00  0.00    +0.149 HD
ATOM     13  C   UNL     1      16.768  -2.214  25.668  0.00  0.00    +0.210 C 
ATOM     14  C   UNL     1      15.567  -2.628  24.797  0.00  0.00    +0.109 C 
ATOM     15  O   UNL     1      16.915  -2.688  26.795  0.00  0.00    -0.276 OA
ENDBRANCH  10  11
BRANCH   7  16
ATOM     16  C   UNL     1      19.826   1.513  22.027  0.00  0.00    +0.414 C 
ATOM     17  O   UNL     1      20.840   1.008  21.547  0.00  0.00    -0.240 OA
ATOM     18  O   UNL     1      19.937   2.434  22.838  0.00  0.00    -0.240 OA
ENDBRANCH   7  16
BRANCH   7  19
ATOM     19  O   UNL     1      18.062   1.560  20.330  0.00  0.00    -0.343 OA
ATOM     20  C   UNL     1      16.731   2.130  20.270  0.00  0.00    +0.198 C 
ENDBRANCH   7  19
BRANCH   9  21
ATOM     21  O   UNL     1      18.443  -2.648  22.699  0.00  0.00    -0.390 OA
ATOM     22  H   UNL     1      18.152  -3.040  23.525  0.00  0.00    +0.210 HD
ENDBRANCH   9  21
ENDBRANCH   4   5
BRANCH   4  23
ATOM     23  O   UNL     1      15.873   2.565  24.168  0.00  0.00    -0.387 OA
ATOM     24  H   UNL     1      15.273   2.262  23.483  0.00  0.00    +0.210 HD
ENDBRANCH   4  23
ENDBRANCH   1   4
BRANCH   1  25
ATOM     25  C   UNL     1      18.385   2.543  25.985  0.00  0.00    +0.141 C 
BRANCH  25  28
ATOM     26  C   UNL     1      19.229   4.809  25.477  0.00  0.00    +0.401 C 
ATOM     27  O   UNL     1      20.416   4.491  25.576  0.00  0.00    -0.226 OA
ATOM     28  N   UNL     1      18.213   3.963  25.658  0.00  0.00    -0.279 N 
ATOM     29  H   UNL     1      17.273   4.321  25.564  0.00  0.00    +0.152 HD
BRANCH  26  30
ATOM     30  O   UNL     1      18.897   6.161  25.153  0.00  0.00    -0.444 OA
BRANCH  30  31
ATOM     31  C   UNL     1      19.984   7.019  25.510  0.00  0.00    +0.292 C 
BRANCH  31  33
ATOM     32  N   UNL     1      19.141   9.073  26.615  0.00  0.00    -0.131 NA
ATOM     33  C   UNL     1      19.650   7.802  26.712  0.00  0.00    +0.120 A 
ATOM     34  C   UNL     1      19.774   7.469  28.041  0.00  0.00    +0.137 A 
ATOM     35  N   UNL     1      19.315   8.572  28.701  0.00  0.00    -0.249 N 
ATOM     36  N   UNL     1      18.947   9.538  27.842  0.00  0.00    -0.065 NA
BRANCH  35  37
ATOM     37  C   UNL     1      19.299   8.806  30.129  0.00  0.00    +0.181 C 
BRANCH  37  38
ATOM     38  C   UNL     1      17.919   9.260  30.625  0.00  0.00    +0.166 C 
BRANCH  38  39
ATOM     39  C   UNL     1      17.963  10.310  31.726  0.00  0.00    -0.017 A 
ATOM     40  C   UNL     1      19.114  11.108  31.858  0.00  0.00    +0.006 A 
ATOM     41  C   UNL     1      19.186  12.101  32.837  0.00  0.00    +0.000 A 
ATOM     42  C   UNL     1      18.111  12.317  33.694  0.00  0.00    +0.000 A 
ATOM     43  C   UNL     1      16.958  11.550  33.566  0.00  0.00    +0.000 A 
ATOM     44  C   UNL     1      16.882  10.556  32.586  0.00  0.00    +0.006 A 
ENDBRANCH  38  39
BRANCH  38  45
ATOM     45  O   UNL     1      17.208   8.124  31.128  0.00  0.00    -0.385 OA
ATOM     46  H   UNL     1      17.848   7.521  31.539  0.00  0.00    +0.210 HD
ENDBRANCH  38  45
ENDBRANCH  37  38
ENDBRANCH  35  37
ENDBRANCH  31  33
ENDBRANCH  30  31
ENDBRANCH  26  30
ENDBRANCH  25  28
ENDBRANCH   1  25
TORSDOF 17
