REMARK VINA RESULT:    -6.053      7.752     12.484
REMARK INTER + INTRA:         -14.292
REMARK INTER:                 -12.526
REMARK INTRA:                  -1.766
REMARK UNBOUND:                -2.754
REMARK  Name = lig_assembled_12.pdb
REMARK  19 active torsions:
REMARK  status: ('A' for Active; 'I' for Inactive)
REMARK    1  A    between atoms: _2  and  _9
REMARK    2  A    between atoms: _4  and  _21
REMARK    3  A    between atoms: _6  and  _7
REMARK    4  A    between atoms: _6  and  _21
REMARK    5  A    between atoms: _9  and  _16
REMARK    6  A    between atoms: _10  and  _11
REMARK    7  A    between atoms: _10  and  _16
REMARK    8  A    between atoms: _17  and  _37
REMARK    9  A    between atoms: _19  and  _25
REMARK   10  A    between atoms: _20  and  _24
REMARK   11  A    between atoms: _24  and  _25
REMARK   12  A    between atoms: _27  and  _28
REMARK   13  A    between atoms: _29  and  _30
REMARK   14  A    between atoms: _31  and  _33
REMARK   15  A    between atoms: _33  and  _34
REMARK   16  A    between atoms: _33  and  _35
REMARK   17  A    between atoms: _35  and  _36
REMARK   18  A    between atoms: _35  and  _37
REMARK   19  A    between atoms: _38  and  _40
REMARK                            x       y       z     vdW  Elec       q    Type
REMARK                         _______ _______ _______ _____ _____    ______ ____
ROOT
ATOM      1  C   UNL     1       7.723   2.306  34.316  0.00  0.00    +0.163 C 
ENDROOT
BRANCH   1   2
ATOM      2  O   UNL     1       7.791   2.651  35.709  0.00  0.00    -0.388 OA
ATOM      3  H   UNL     1       8.688   2.913  35.931  0.00  0.00    +0.210 HD
ENDBRANCH   1   2
BRANCH   1   4
ATOM      4  C   UNL     1       7.779   3.564  33.433  0.00  0.00    +0.175 C 
BRANCH   4   5
ATOM      5  C   UNL     1       6.933   4.711  34.007  0.00  0.00    +0.176 C 
ATOM      6  O   UNL     1       7.666   5.294  35.119  0.00  0.00    -0.332 OA
ATOM      7  C   UNL     1       7.055   6.479  35.729  0.00  0.00    +0.277 C 
ATOM      8  C   UNL     1       5.600   6.175  36.162  0.00  0.00    +0.110 C 
ATOM      9  C   UNL     1       4.790   5.525  35.021  0.00  0.00    +0.143 C 
ATOM     10  C   UNL     1       5.518   4.304  34.458  0.00  0.00    +0.133 C 
BRANCH  10  11
ATOM     11  N   UNL     1       4.780   3.744  33.315  0.00  0.00    -0.308 N 
ATOM     12  H   UNL     1       4.764   4.278  32.457  0.00  0.00    +0.149 HD
ATOM     13  C   UNL     1       4.128   2.578  33.338  0.00  0.00    +0.210 C 
ATOM     14  C   UNL     1       4.149   1.802  34.668  0.00  0.00    +0.109 C 
ATOM     15  O   UNL     1       3.530   2.128  32.360  0.00  0.00    -0.276 OA
ENDBRANCH  10  11
BRANCH   7  16
ATOM     16  C   UNL     1       7.063   7.666  34.744  0.00  0.00    +0.414 C 
ATOM     17  O   UNL     1       8.128   8.161  34.377  0.00  0.00    -0.240 OA
ATOM     18  O   UNL     1       6.005   8.129  34.316  0.00  0.00    -0.240 OA
ENDBRANCH   7  16
BRANCH   9  19
ATOM     19  O   UNL     1       3.508   5.125  35.507  0.00  0.00    -0.390 OA
ATOM     20  H   UNL     1       3.029   4.670  34.811  0.00  0.00    +0.210 HD
ENDBRANCH   9  19
BRANCH   7  21
ATOM     21  O   UNL     1       7.823   6.821  36.912  0.00  0.00    -0.343 OA
ATOM     22  C   UNL     1       7.057   6.881  38.142  0.00  0.00    +0.198 C 
ENDBRANCH   7  21
ENDBRANCH   4   5
BRANCH   4  23
ATOM     23  O   UNL     1       7.348   3.251  32.094  0.00  0.00    -0.387 OA
ATOM     24  H   UNL     1       7.359   4.048  31.559  0.00  0.00    +0.210 HD
ENDBRANCH   4  23
ENDBRANCH   1   4
BRANCH   1  25
ATOM     25  C   UNL     1       8.877   1.377  33.953  0.00  0.00    +0.141 C 
BRANCH  25  28
ATOM     26  C   UNL     1      10.629   0.768  35.586  0.00  0.00    +0.401 C 
ATOM     27  O   UNL     1      10.189  -0.367  35.777  0.00  0.00    -0.226 OA
ATOM     28  N   UNL     1      10.075   1.653  34.755  0.00  0.00    -0.279 N 
ATOM     29  H   UNL     1      10.504   2.564  34.673  0.00  0.00    +0.152 HD
BRANCH  26  30
ATOM     30  O   UNL     1      11.801   1.186  36.290  0.00  0.00    -0.444 OA
BRANCH  30  31
ATOM     31  C   UNL     1      11.707   2.582  36.589  0.00  0.00    +0.292 C 
BRANCH  31  33
ATOM     32  N   UNL     1      12.855   3.222  34.487  0.00  0.00    -0.131 NA
ATOM     33  C   UNL     1      12.732   3.338  35.848  0.00  0.00    +0.120 A 
ATOM     34  C   UNL     1      13.680   4.221  36.310  0.00  0.00    +0.139 A 
ATOM     35  N   UNL     1      14.367   4.586  35.190  0.00  0.00    -0.226 N 
ATOM     36  N   UNL     1      13.853   4.001  34.091  0.00  0.00    -0.063 NA
BRANCH  35  37
ATOM     37  C   UNL     1      15.479   5.512  35.071  0.00  0.00    +0.305 C 
BRANCH  37  38
ATOM     38  O   UNL     1      15.133   6.543  34.149  0.00  0.00    -0.353 OA
BRANCH  38  39
ATOM     39  C   UNL     1      16.124   6.702  33.142  0.00  0.00    +0.197 C 
BRANCH  39  40
ATOM     40  C   UNL     1      16.270   8.177  32.880  0.00  0.00    -0.022 A 
ATOM     41  C   UNL     1      17.353   8.666  32.137  0.00  0.00    +0.006 A 
ATOM     42  C   UNL     1      17.508  10.036  31.928  0.00  0.00    +0.000 A 
ATOM     43  C   UNL     1      16.588  10.933  32.467  0.00  0.00    +0.000 A 
ATOM     44  C   UNL     1      15.514  10.462  33.218  0.00  0.00    +0.000 A 
ATOM     45  C   UNL     1      15.356   9.090  33.427  0.00  0.00    +0.006 A 
ENDBRANCH  39  40
ENDBRANCH  38  39
ENDBRANCH  37  38
ENDBRANCH  35  37
ENDBRANCH  31  33
ENDBRANCH  30  31
ENDBRANCH  26  30
ENDBRANCH  25  28
ENDBRANCH   1  25
TORSDOF 17
