REMARK VINA RESULT:    -6.810     12.408     16.256
REMARK INTER + INTRA:         -14.720
REMARK INTER:                 -12.839
REMARK INTRA:                  -1.881
REMARK UNBOUND:                -2.138
REMARK  Name = lig_assembled_92.pdb
REMARK  18 active torsions:
REMARK  status: ('A' for Active; 'I' for Inactive)
REMARK    1  A    between atoms: _2  and  _11
REMARK    2  A    between atoms: _3  and  _46
REMARK    3  A    between atoms: _6  and  _25
REMARK    4  A    between atoms: _8  and  _9
REMARK    5  A    between atoms: _8  and  _25
REMARK    6  A    between atoms: _14  and  _46
REMARK    7  A    between atoms: _21  and  _41
REMARK    8  A    between atoms: _23  and  _29
REMARK    9  A    between atoms: _24  and  _28
REMARK   10  A    between atoms: _28  and  _29
REMARK   11  A    between atoms: _31  and  _32
REMARK   12  A    between atoms: _33  and  _34
REMARK   13  A    between atoms: _35  and  _37
REMARK   14  A    between atoms: _37  and  _38
REMARK   15  A    between atoms: _37  and  _39
REMARK   16  A    between atoms: _39  and  _40
REMARK   17  A    between atoms: _39  and  _41
REMARK   18  A    between atoms: _42  and  _44
REMARK                            x       y       z     vdW  Elec       q    Type
REMARK                         _______ _______ _______ _____ _____    ______ ____
ROOT
ATOM      1  C   UNL     1      10.361   1.515  34.875  0.00  0.00    +0.401 C 
ATOM      2  O   UNL     1      10.016   1.055  35.966  0.00  0.00    -0.226 OA
ATOM      3  N   UNL     1       9.535   1.684  33.842  0.00  0.00    -0.279 N 
ATOM      4  H   UNL     1       9.910   2.079  32.991  0.00  0.00    +0.152 HD
ENDROOT
BRANCH   3   5
ATOM      5  C   UNL     1       8.111   1.328  33.872  0.00  0.00    +0.141 C 
BRANCH   5   6
ATOM      6  C   UNL     1       7.251   2.469  34.407  0.00  0.00    +0.163 C 
BRANCH   6   7
ATOM      7  O   UNL     1       7.287   2.481  35.843  0.00  0.00    -0.388 OA
ATOM      8  H   UNL     1       8.112   2.874  36.140  0.00  0.00    +0.210 HD
ENDBRANCH   6   7
BRANCH   6   9
ATOM      9  C   UNL     1       7.754   3.804  33.832  0.00  0.00    +0.175 C 
BRANCH   9  10
ATOM     10  C   UNL     1       7.147   5.012  34.561  0.00  0.00    +0.176 C 
ATOM     11  O   UNL     1       7.862   5.183  35.816  0.00  0.00    -0.332 OA
ATOM     12  C   UNL     1       7.487   6.361  36.604  0.00  0.00    +0.277 C 
ATOM     13  C   UNL     1       5.961   6.373  36.866  0.00  0.00    +0.110 C 
ATOM     14  C   UNL     1       5.159   6.163  35.564  0.00  0.00    +0.143 C 
ATOM     15  C   UNL     1       5.633   4.913  34.823  0.00  0.00    +0.133 C 
BRANCH  15  16
ATOM     16  N   UNL     1       4.921   4.771  33.543  0.00  0.00    -0.308 N 
ATOM     17  H   UNL     1       5.138   5.429  32.808  0.00  0.00    +0.149 HD
ATOM     18  C   UNL     1       4.007   3.831  33.290  0.00  0.00    +0.210 C 
ATOM     19  C   UNL     1       3.681   2.859  34.439  0.00  0.00    +0.109 C 
ATOM     20  O   UNL     1       3.438   3.727  32.203  0.00  0.00    -0.276 OA
ENDBRANCH  15  16
BRANCH  12  21
ATOM     21  C   UNL     1       7.896   7.659  35.877  0.00  0.00    +0.414 C 
ATOM     22  O   UNL     1       7.922   7.699  34.647  0.00  0.00    -0.240 OA
ATOM     23  O   UNL     1       8.200   8.665  36.519  0.00  0.00    -0.240 OA
ENDBRANCH  12  21
BRANCH  14  24
ATOM     24  O   UNL     1       3.770   6.030  35.871  0.00  0.00    -0.390 OA
ATOM     25  H   UNL     1       3.289   5.781  35.078  0.00  0.00    +0.210 HD
ENDBRANCH  14  24
BRANCH  12  26
ATOM     26  O   UNL     1       8.170   6.281  37.882  0.00  0.00    -0.343 OA
ATOM     27  C   UNL     1       7.299   6.135  39.033  0.00  0.00    +0.198 C 
ENDBRANCH  12  26
ENDBRANCH   9  10
BRANCH   9  28
ATOM     28  O   UNL     1       7.466   3.879  32.422  0.00  0.00    -0.387 OA
ATOM     29  H   UNL     1       8.097   4.464  31.996  0.00  0.00    +0.210 HD
ENDBRANCH   9  28
ENDBRANCH   6   9
ENDBRANCH   5   6
ENDBRANCH   3   5
BRANCH   1  30
ATOM     30  O   UNL     1      11.724   1.903  34.685  0.00  0.00    -0.444 OA
BRANCH  30  31
ATOM     31  C   UNL     1      12.208   2.546  35.867  0.00  0.00    +0.292 C 
BRANCH  31  33
ATOM     32  N   UNL     1      13.795   3.627  34.300  0.00  0.00    -0.131 NA
ATOM     33  C   UNL     1      13.181   3.598  35.519  0.00  0.00    +0.121 A 
ATOM     34  C   UNL     1      13.620   4.664  36.267  0.00  0.00    +0.143 A 
ATOM     35  N   UNL     1      14.490   5.344  35.445  0.00  0.00    -0.220 N 
ATOM     36  N   UNL     1      14.594   4.687  34.265  0.00  0.00    -0.060 NA
BRANCH  35  37
ATOM     37  C   UNL     1      15.175   6.558  35.701  0.00  0.00    +0.067 A 
ATOM     38  C   UNL     1      15.588   7.377  34.638  0.00  0.00    +0.030 A 
ATOM     39  C   UNL     1      16.314   8.540  34.891  0.00  0.00    +0.031 A 
ATOM     40  C   UNL     1      16.619   8.898  36.205  0.00  0.00    +0.109 A 
ATOM     41  C   UNL     1      16.206   8.098  37.275  0.00  0.00    +0.031 A 
ATOM     42  C   UNL     1      15.474   6.932  37.022  0.00  0.00    +0.030 A 
BRANCH  40  43
ATOM     43  S   UNL     1      17.672  10.298  36.478  0.00  0.00    +0.074 S 
ATOM     44  O   UNL     1      18.277  10.142  37.787  0.00  0.00    -0.150 OA
ATOM     45  O   UNL     1      18.504  10.484  35.313  0.00  0.00    -0.150 OA
BRANCH  43  46
ATOM     46  N   UNL     1      16.585  11.580  36.648  0.00  0.00    -0.194 N 
ATOM     47  H   UNL     1      15.721  11.280  36.204  0.00  0.00    +0.176 HD
ATOM     48  C   UNL     1      16.422  11.964  37.995  0.00  0.00    +0.177 A 
ATOM     49  S   UNL     1      15.117  11.422  38.957  0.00  0.00    -0.059 S 
ATOM     50  C   UNL     1      15.666  12.436  40.229  0.00  0.00    +0.068 A 
ATOM     51  C   UNL     1      16.753  13.166  39.798  0.00  0.00    +0.120 A 
ATOM     52  N   UNL     1      17.206  12.869  38.525  0.00  0.00    -0.232 NA
ENDBRANCH  43  46
ENDBRANCH  40  43
ENDBRANCH  35  37
ENDBRANCH  31  33
ENDBRANCH  30  31
ENDBRANCH   1  30
TORSDOF 16
