REMARK VINA RESULT:    -5.776      1.651      3.938
REMARK INTER + INTRA:         -13.827
REMARK INTER:                 -12.188
REMARK INTRA:                  -1.639
REMARK UNBOUND:                -3.154
REMARK  Name = lig_assembled_67.pdb
REMARK  18 active torsions:
REMARK  status: ('A' for Active; 'I' for Inactive)
REMARK    1  A    between atoms: _2  and  _9
REMARK    2  A    between atoms: _4  and  _19
REMARK    3  A    between atoms: _6  and  _7
REMARK    4  A    between atoms: _6  and  _19
REMARK    5  A    between atoms: _9  and  _10
REMARK    6  A    between atoms: _10  and  _11
REMARK    7  A    between atoms: _15  and  _35
REMARK    8  A    between atoms: _17  and  _23
REMARK    9  A    between atoms: _18  and  _22
REMARK   10  A    between atoms: _22  and  _23
REMARK   11  A    between atoms: _25  and  _26
REMARK   12  A    between atoms: _27  and  _28
REMARK   13  A    between atoms: _29  and  _31
REMARK   14  A    between atoms: _31  and  _32
REMARK   15  A    between atoms: _31  and  _33
REMARK   16  A    between atoms: _33  and  _34
REMARK   17  A    between atoms: _33  and  _35
REMARK   18  A    between atoms: _36  and  _38
REMARK                            x       y       z     vdW  Elec       q    Type
REMARK                         _______ _______ _______ _____ _____    ______ ____
ROOT
ATOM      1  C   UNL     1       3.582   3.673  32.512  0.00  0.00    +0.163 C 
ENDROOT
BRANCH   1   2
ATOM      2  O   UNL     1       2.704   3.918  33.623  0.00  0.00    -0.388 OA
ATOM      3  H   UNL     1       2.931   3.330  34.347  0.00  0.00    +0.210 HD
ENDBRANCH   1   2
BRANCH   1   4
ATOM      4  C   UNL     1       4.918   3.076  32.988  0.00  0.00    +0.175 C 
BRANCH   4   5
ATOM      5  C   UNL     1       5.435   3.760  34.262  0.00  0.00    +0.176 C 
ATOM      6  O   UNL     1       5.446   5.195  34.026  0.00  0.00    -0.332 OA
ATOM      7  C   UNL     1       5.814   6.024  35.178  0.00  0.00    +0.277 C 
ATOM      8  C   UNL     1       7.181   5.578  35.751  0.00  0.00    +0.110 C 
ATOM      9  C   UNL     1       7.229   4.053  35.988  0.00  0.00    +0.143 C 
ATOM     10  C   UNL     1       6.826   3.289  34.727  0.00  0.00    +0.133 C 
BRANCH  10  11
ATOM     11  N   UNL     1       6.791   1.842  34.991  0.00  0.00    -0.308 N 
ATOM     12  H   UNL     1       6.132   1.503  35.678  0.00  0.00    +0.149 HD
ATOM     13  C   UNL     1       7.574   0.947  34.382  0.00  0.00    +0.210 C 
ATOM     14  C   UNL     1       8.586   1.497  33.360  0.00  0.00    +0.109 C 
ATOM     15  O   UNL     1       7.513  -0.262  34.613  0.00  0.00    -0.276 OA
ENDBRANCH  10  11
BRANCH   7  16
ATOM     16  C   UNL     1       4.739   5.935  36.281  0.00  0.00    +0.414 C 
ATOM     17  O   UNL     1       3.608   5.531  36.014  0.00  0.00    -0.240 OA
ATOM     18  O   UNL     1       5.003   6.267  37.438  0.00  0.00    -0.240 OA
ENDBRANCH   7  16
BRANCH   9  19
ATOM     19  O   UNL     1       8.550   3.667  36.370  0.00  0.00    -0.390 OA
ATOM     20  H   UNL     1       8.631   3.704  37.326  0.00  0.00    +0.210 HD
ENDBRANCH   9  19
BRANCH   7  21
ATOM     21  O   UNL     1       5.934   7.396  34.723  0.00  0.00    -0.343 OA
ATOM     22  C   UNL     1       7.287   7.827  34.428  0.00  0.00    +0.198 C 
ENDBRANCH   7  21
ENDBRANCH   4   5
BRANCH   4  23
ATOM     23  O   UNL     1       5.904   3.167  31.940  0.00  0.00    -0.387 OA
ATOM     24  H   UNL     1       5.844   4.027  31.517  0.00  0.00    +0.210 HD
ENDBRANCH   4  23
ENDBRANCH   1   4
BRANCH   1  25
ATOM     25  C   UNL     1       2.920   2.717  31.525  0.00  0.00    +0.141 C 
BRANCH  25  28
ATOM     26  C   UNL     1       1.949   2.933  29.263  0.00  0.00    +0.401 C 
ATOM     27  O   UNL     1       1.067   2.093  29.459  0.00  0.00    -0.226 OA
ATOM     28  N   UNL     1       2.861   3.282  30.172  0.00  0.00    -0.279 N 
ATOM     29  H   UNL     1       3.550   3.975  29.914  0.00  0.00    +0.152 HD
BRANCH  26  30
ATOM     30  O   UNL     1       2.019   3.583  27.992  0.00  0.00    -0.444 OA
BRANCH  30  31
ATOM     31  C   UNL     1       0.790   3.387  27.287  0.00  0.00    +0.292 C 
BRANCH  31  33
ATOM     32  N   UNL     1      -0.101   5.090  25.728  0.00  0.00    -0.131 NA
ATOM     33  C   UNL     1       0.814   4.105  25.999  0.00  0.00    +0.120 A 
ATOM     34  C   UNL     1       1.654   3.964  24.918  0.00  0.00    +0.137 A 
ATOM     35  N   UNL     1       1.199   4.885  24.025  0.00  0.00    -0.251 N 
ATOM     36  N   UNL     1       0.144   5.558  24.511  0.00  0.00    -0.065 NA
BRANCH  35  37
ATOM     37  C   UNL     1       1.716   5.188  22.709  0.00  0.00    +0.150 C 
BRANCH  37  38
ATOM     38  C   UNL     1       0.882   4.600  21.573  0.00  0.00    +0.084 C 
BRANCH  38  39
ATOM     39  C   UNL     1       1.742   3.994  20.473  0.00  0.00    +0.252 C 
ATOM     40  O   UNL     1       2.053   2.631  20.782  0.00  0.00    -0.349 OA
ATOM     41  C   UNL     1       2.198   2.031  19.497  0.00  0.00    +0.191 C 
ATOM     42  C   UNL     1       1.153   2.732  18.668  0.00  0.00    +0.191 C 
ATOM     43  O   UNL     1       1.056   4.047  19.218  0.00  0.00    -0.349 OA
ENDBRANCH  38  39
ENDBRANCH  37  38
ENDBRANCH  35  37
ENDBRANCH  31  33
ENDBRANCH  30  31
ENDBRANCH  26  30
ENDBRANCH  25  28
ENDBRANCH   1  25
TORSDOF 16
