REMARK VINA RESULT:    -5.511      4.365      9.186
REMARK INTER + INTRA:         -12.831
REMARK INTER:                 -10.446
REMARK INTRA:                  -2.385
REMARK UNBOUND:                -2.810
REMARK  Name = lig_assembled_53.pdb
REMARK  18 active torsions:
REMARK  status: ('A' for Active; 'I' for Inactive)
REMARK    1  A    between atoms: _2  and  _9
REMARK    2  A    between atoms: _4  and  _16
REMARK    3  A    between atoms: _5  and  _9
REMARK    4  A    between atoms: _5  and  _10
REMARK    5  A    between atoms: _6  and  _7
REMARK    6  A    between atoms: _6  and  _16
REMARK    7  A    between atoms: _12  and  _32
REMARK    8  A    between atoms: _14  and  _20
REMARK    9  A    between atoms: _15  and  _19
REMARK   10  A    between atoms: _19  and  _20
REMARK   11  A    between atoms: _22  and  _23
REMARK   12  A    between atoms: _24  and  _25
REMARK   13  A    between atoms: _26  and  _28
REMARK   14  A    between atoms: _28  and  _29
REMARK   15  A    between atoms: _28  and  _30
REMARK   16  A    between atoms: _30  and  _31
REMARK   17  A    between atoms: _30  and  _32
REMARK   18  A    between atoms: _33  and  _35
REMARK                            x       y       z     vdW  Elec       q    Type
REMARK                         _______ _______ _______ _____ _____    ______ ____
ROOT
ATOM      1  C   UNL     1      19.915   4.269  24.379  0.00  0.00    +0.175 C 
ENDROOT
BRANCH   1   2
ATOM      2  C   UNL     1      19.395   2.857  24.073  0.00  0.00    +0.176 C 
ATOM      3  O   UNL     1      18.644   2.917  22.829  0.00  0.00    -0.332 OA
ATOM      4  C   UNL     1      18.157   1.631  22.320  0.00  0.00    +0.277 C 
ATOM      5  C   UNL     1      17.322   0.902  23.402  0.00  0.00    +0.110 C 
ATOM      6  C   UNL     1      18.068   0.842  24.752  0.00  0.00    +0.143 C 
ATOM      7  C   UNL     1      18.532   2.233  25.185  0.00  0.00    +0.133 C 
BRANCH   7   8
ATOM      8  N   UNL     1      19.316   2.151  26.427  0.00  0.00    -0.308 N 
ATOM      9  H   UNL     1      20.229   1.721  26.381  0.00  0.00    +0.149 HD
ATOM     10  C   UNL     1      18.899   2.606  27.612  0.00  0.00    +0.210 C 
ATOM     11  C   UNL     1      17.492   3.231  27.654  0.00  0.00    +0.109 C 
ATOM     12  O   UNL     1      19.583   2.537  28.633  0.00  0.00    -0.276 OA
ENDBRANCH   7   8
BRANCH   4  13
ATOM     13  C   UNL     1      19.334   0.733  21.886  0.00  0.00    +0.414 C 
ATOM     14  O   UNL     1      20.331   1.229  21.362  0.00  0.00    -0.240 OA
ATOM     15  O   UNL     1      19.287  -0.485  22.059  0.00  0.00    -0.240 OA
ENDBRANCH   4  13
BRANCH   4  16
ATOM     16  O   UNL     1      17.298   1.895  21.181  0.00  0.00    -0.343 OA
ATOM     17  C   UNL     1      16.468   3.078  21.302  0.00  0.00    +0.198 C 
ENDBRANCH   4  16
BRANCH   6  18
ATOM     18  O   UNL     1      17.206   0.300  25.754  0.00  0.00    -0.390 OA
ATOM     19  H   UNL     1      17.683   0.235  26.585  0.00  0.00    +0.210 HD
ENDBRANCH   6  18
ENDBRANCH   1   2
BRANCH   1  20
ATOM     20  O   UNL     1      20.926   4.215  25.405  0.00  0.00    -0.387 OA
ATOM     21  H   UNL     1      21.559   3.525  25.194  0.00  0.00    +0.210 HD
ENDBRANCH   1  20
BRANCH   1  22
ATOM     22  C   UNL     1      18.784   5.224  24.799  0.00  0.00    +0.163 C 
BRANCH  22  23
ATOM     23  O   UNL     1      17.892   5.480  23.702  0.00  0.00    -0.388 OA
ATOM     24  H   UNL     1      17.157   6.018  24.004  0.00  0.00    +0.210 HD
ENDBRANCH  22  23
BRANCH  22  25
ATOM     25  C   UNL     1      19.382   6.533  25.302  0.00  0.00    +0.141 C 
BRANCH  25  28
ATOM     26  C   UNL     1      19.391   6.546  27.773  0.00  0.00    +0.401 C 
ATOM     27  O   UNL     1      20.397   5.840  27.867  0.00  0.00    -0.226 OA
ATOM     28  N   UNL     1      18.844   6.914  26.613  0.00  0.00    -0.279 N 
ATOM     29  H   UNL     1      18.012   7.487  26.639  0.00  0.00    +0.152 HD
BRANCH  26  30
ATOM     30  O   UNL     1      18.752   7.007  28.966  0.00  0.00    -0.444 OA
BRANCH  30  31
ATOM     31  C   UNL     1      19.109   8.371  29.203  0.00  0.00    +0.292 C 
BRANCH  31  33
ATOM     32  N   UNL     1      17.454   8.139  31.032  0.00  0.00    -0.131 NA
ATOM     33  C   UNL     1      18.323   8.923  30.322  0.00  0.00    +0.120 A 
ATOM     34  C   UNL     1      18.298  10.201  30.835  0.00  0.00    +0.137 A 
ATOM     35  N   UNL     1      17.348  10.149  31.811  0.00  0.00    -0.241 N 
ATOM     36  N   UNL     1      16.877   8.895  31.956  0.00  0.00    -0.065 NA
BRANCH  35  37
ATOM     37  C   UNL     1      16.923  11.158  32.759  0.00  0.00    +0.265 C 
BRANCH  37  38
ATOM     38  C   UNL     1      15.923  10.697  33.785  0.00  0.00    +0.326 C 
ATOM     39  O   UNL     1      16.162  10.326  34.924  0.00  0.00    -0.249 OA
BRANCH  38  40
ATOM     40  O   UNL     1      14.648  10.712  33.312  0.00  0.00    -0.479 OA
ATOM     41  H   UNL     1      14.346  11.558  32.929  0.00  0.00    +0.295 HD
ENDBRANCH  38  40
ENDBRANCH  37  38
ENDBRANCH  35  37
ENDBRANCH  31  33
ENDBRANCH  30  31
ENDBRANCH  26  30
ENDBRANCH  25  28
ENDBRANCH  22  25
ENDBRANCH   1  22
TORSDOF 16
