REMARK VINA RESULT:    -6.716      1.571      2.031
REMARK INTER + INTRA:         -13.451
REMARK INTER:                 -11.948
REMARK INTRA:                  -1.503
REMARK UNBOUND:                -1.828
REMARK  Name = lig_assembled_70.pdb
REMARK  16 active torsions:
REMARK  status: ('A' for Active; 'I' for Inactive)
REMARK    1  A    between atoms: _2  and  _10
REMARK    2  A    between atoms: _5  and  _22
REMARK    3  A    between atoms: _7  and  _8
REMARK    4  A    between atoms: _7  and  _22
REMARK    5  A    between atoms: _18  and  _38
REMARK    6  A    between atoms: _20  and  _26
REMARK    7  A    between atoms: _21  and  _25
REMARK    8  A    between atoms: _25  and  _26
REMARK    9  A    between atoms: _28  and  _29
REMARK   10  A    between atoms: _30  and  _31
REMARK   11  A    between atoms: _32  and  _34
REMARK   12  A    between atoms: _34  and  _35
REMARK   13  A    between atoms: _34  and  _36
REMARK   14  A    between atoms: _36  and  _37
REMARK   15  A    between atoms: _36  and  _38
REMARK   16  A    between atoms: _39  and  _41
REMARK                            x       y       z     vdW  Elec       q    Type
REMARK                         _______ _______ _______ _____ _____    ______ ____
ROOT
ATOM      1  C   UNL     1       3.378   3.501  32.975  0.00  0.00    +0.163 C 
ENDROOT
BRANCH   1   2
ATOM      2  O   UNL     1       3.879   4.759  32.494  0.00  0.00    -0.388 OA
ATOM      3  H   UNL     1       4.609   4.603  31.890  0.00  0.00    +0.210 HD
ENDBRANCH   1   2
BRANCH   1   4
ATOM      4  C   UNL     1       2.022   3.203  32.344  0.00  0.00    +0.141 C 
BRANCH   4   7
ATOM      5  C   UNL     1       1.523   3.178  29.924  0.00  0.00    +0.401 C 
ATOM      6  O   UNL     1       1.285   1.968  29.890  0.00  0.00    -0.226 OA
ATOM      7  N   UNL     1       1.881   3.837  31.027  0.00  0.00    -0.279 N 
ATOM      8  H   UNL     1       2.064   4.827  30.952  0.00  0.00    +0.152 HD
BRANCH   5   9
ATOM      9  O   UNL     1       1.420   3.940  28.718  0.00  0.00    -0.444 OA
BRANCH   9  10
ATOM     10  C   UNL     1       0.546   3.273  27.804  0.00  0.00    +0.292 C 
BRANCH  10  12
ATOM     11  N   UNL     1       2.157   4.012  26.071  0.00  0.00    -0.131 NA
ATOM     12  C   UNL     1       0.896   3.614  26.413  0.00  0.00    +0.121 A 
ATOM     13  C   UNL     1       0.110   3.602  25.285  0.00  0.00    +0.143 A 
ATOM     14  N   UNL     1       0.945   3.992  24.264  0.00  0.00    -0.218 N 
ATOM     15  N   UNL     1       2.176   4.247  24.764  0.00  0.00    -0.060 NA
BRANCH  14  16
ATOM     16  C   UNL     1       0.652   4.107  22.889  0.00  0.00    +0.086 A 
ATOM     17  C   UNL     1      -0.516   4.722  22.468  0.00  0.00    +0.139 A 
ATOM     18  N   UNL     1      -0.839   4.908  21.162  0.00  0.00    -0.253 NA
ATOM     19  C   UNL     1       0.026   4.480  20.224  0.00  0.00    +0.071 A 
ATOM     20  C   UNL     1       1.232   3.829  20.558  0.00  0.00    +0.002 A 
ATOM     21  C   UNL     1       2.112   3.396  19.551  0.00  0.00    +0.010 A 
ATOM     22  C   UNL     1       1.812   3.623  18.210  0.00  0.00    +0.001 A 
ATOM     23  C   UNL     1       0.629   4.272  17.875  0.00  0.00    +0.002 A 
ATOM     24  C   UNL     1      -0.252   4.686  18.879  0.00  0.00    +0.028 A 
ATOM     25  C   UNL     1       1.532   3.639  21.913  0.00  0.00    +0.039 A 
ENDBRANCH  14  16
ENDBRANCH  10  12
ENDBRANCH   9  10
ENDBRANCH   5   9
ENDBRANCH   4   7
ENDBRANCH   1   4
BRANCH   1  26
ATOM     26  C   UNL     1       3.240   3.514  34.507  0.00  0.00    +0.175 C 
BRANCH  26  27
ATOM     27  C   UNL     1       4.541   3.941  35.202  0.00  0.00    +0.176 C 
ATOM     28  O   UNL     1       4.710   5.371  34.995  0.00  0.00    -0.332 OA
ATOM     29  C   UNL     1       5.853   5.980  35.681  0.00  0.00    +0.277 C 
ATOM     30  C   UNL     1       7.163   5.240  35.312  0.00  0.00    +0.110 C 
ATOM     31  C   UNL     1       7.022   3.713  35.486  0.00  0.00    +0.143 C 
ATOM     32  C   UNL     1       5.799   3.185  34.734  0.00  0.00    +0.133 C 
BRANCH  32  33
ATOM     33  N   UNL     1       5.626   1.745  34.978  0.00  0.00    -0.308 N 
ATOM     34  H   UNL     1       5.354   1.453  35.906  0.00  0.00    +0.149 HD
ATOM     35  C   UNL     1       5.805   0.798  34.053  0.00  0.00    +0.210 C 
ATOM     36  C   UNL     1       6.245   1.273  32.655  0.00  0.00    +0.109 C 
ATOM     37  O   UNL     1       5.639  -0.401  34.282  0.00  0.00    -0.276 OA
ENDBRANCH  32  33
BRANCH  29  38
ATOM     38  C   UNL     1       5.655   5.946  37.210  0.00  0.00    +0.414 C 
ATOM     39  O   UNL     1       4.600   6.337  37.708  0.00  0.00    -0.240 OA
ATOM     40  O   UNL     1       6.549   5.527  37.947  0.00  0.00    -0.240 OA
ENDBRANCH  29  38
BRANCH  31  41
ATOM     41  O   UNL     1       8.194   3.062  34.993  0.00  0.00    -0.390 OA
ATOM     42  H   UNL     1       8.950   3.644  35.094  0.00  0.00    +0.210 HD
ENDBRANCH  31  41
BRANCH  29  43
ATOM     43  O   UNL     1       5.964   7.355  35.233  0.00  0.00    -0.343 OA
ATOM     44  C   UNL     1       7.063   7.617  34.324  0.00  0.00    +0.198 C 
ENDBRANCH  29  43
ENDBRANCH  26  27
BRANCH  26  45
ATOM     45  O   UNL     1       2.828   2.216  34.980  0.00  0.00    -0.387 OA
ATOM     46  H   UNL     1       2.013   1.959  34.541  0.00  0.00    +0.210 HD
ENDBRANCH  26  45
ENDBRANCH   1  26
TORSDOF 14
