REMARK VINA RESULT:    -4.870      1.727      3.890
REMARK INTER + INTRA:         -12.828
REMARK INTER:                 -10.498
REMARK INTRA:                  -2.330
REMARK UNBOUND:                -3.545
REMARK  Name = lig_assembled_55.pdb
REMARK  20 active torsions:
REMARK  status: ('A' for Active; 'I' for Inactive)
REMARK    1  A    between atoms: _2  and  _10
REMARK    2  A    between atoms: _3  and  _11
REMARK    3  A    between atoms: _3  and  _38
REMARK    4  A    between atoms: _5  and  _18
REMARK    5  A    between atoms: _6  and  _38
REMARK    6  A    between atoms: _7  and  _8
REMARK    7  A    between atoms: _7  and  _18
REMARK    8  A    between atoms: _10  and  _11
REMARK    9  A    between atoms: _14  and  _34
REMARK   10  A    between atoms: _16  and  _22
REMARK   11  A    between atoms: _17  and  _21
REMARK   12  A    between atoms: _21  and  _22
REMARK   13  A    between atoms: _24  and  _25
REMARK   14  A    between atoms: _26  and  _27
REMARK   15  A    between atoms: _28  and  _30
REMARK   16  A    between atoms: _30  and  _31
REMARK   17  A    between atoms: _30  and  _32
REMARK   18  A    between atoms: _32  and  _33
REMARK   19  A    between atoms: _32  and  _34
REMARK   20  A    between atoms: _35  and  _37
REMARK                            x       y       z     vdW  Elec       q    Type
REMARK                         _______ _______ _______ _____ _____    ______ ____
ROOT
ATOM      1  C   UNL     1       8.848   2.835  34.021  0.00  0.00    +0.163 C 
ENDROOT
BRANCH   1   2
ATOM      2  O   UNL     1       8.345   1.758  33.213  0.00  0.00    -0.388 OA
ATOM      3  H   UNL     1       7.468   1.981  32.892  0.00  0.00    +0.210 HD
ENDBRANCH   1   2
BRANCH   1   4
ATOM      4  C   UNL     1       7.923   4.062  33.939  0.00  0.00    +0.175 C 
BRANCH   4   5
ATOM      5  C   UNL     1       6.543   3.789  34.555  0.00  0.00    +0.176 C 
ATOM      6  O   UNL     1       5.774   3.008  33.599  0.00  0.00    -0.332 OA
ATOM      7  C   UNL     1       4.457   2.559  34.061  0.00  0.00    +0.277 C 
ATOM      8  C   UNL     1       3.616   3.764  34.550  0.00  0.00    +0.110 C 
ATOM      9  C   UNL     1       4.404   4.642  35.545  0.00  0.00    +0.143 C 
ATOM     10  C   UNL     1       5.759   5.049  34.963  0.00  0.00    +0.133 C 
BRANCH  10  11
ATOM     11  N   UNL     1       6.536   5.812  35.953  0.00  0.00    -0.308 N 
ATOM     12  H   UNL     1       6.679   5.396  36.862  0.00  0.00    +0.149 HD
ATOM     13  C   UNL     1       7.063   7.018  35.728  0.00  0.00    +0.210 C 
ATOM     14  C   UNL     1       6.804   7.637  34.341  0.00  0.00    +0.109 C 
ATOM     15  O   UNL     1       7.722   7.628  36.571  0.00  0.00    -0.276 OA
ENDBRANCH  10  11
BRANCH   7  16
ATOM     16  C   UNL     1       4.599   1.532  35.203  0.00  0.00    +0.414 C 
ATOM     17  O   UNL     1       5.606   0.830  35.285  0.00  0.00    -0.240 OA
ATOM     18  O   UNL     1       3.707   1.405  36.043  0.00  0.00    -0.240 OA
ENDBRANCH   7  16
BRANCH   7  19
ATOM     19  O   UNL     1       3.771   1.949  32.938  0.00  0.00    -0.343 OA
ATOM     20  C   UNL     1       3.781   2.730  31.716  0.00  0.00    +0.198 C 
ENDBRANCH   7  19
BRANCH   9  21
ATOM     21  O   UNL     1       3.652   5.817  35.851  0.00  0.00    -0.390 OA
ATOM     22  H   UNL     1       4.074   6.581  35.452  0.00  0.00    +0.210 HD
ENDBRANCH   9  21
ENDBRANCH   4   5
BRANCH   4  23
ATOM     23  O   UNL     1       7.780   4.485  32.568  0.00  0.00    -0.387 OA
ATOM     24  H   UNL     1       7.314   3.808  32.071  0.00  0.00    +0.210 HD
ENDBRANCH   4  23
ENDBRANCH   1   4
BRANCH   1  25
ATOM     25  C   UNL     1       8.969   2.386  35.473  0.00  0.00    +0.141 C 
BRANCH  25  28
ATOM     26  C   UNL     1      10.128   3.979  36.964  0.00  0.00    +0.401 C 
ATOM     27  O   UNL     1       9.098   4.580  37.278  0.00  0.00    -0.226 OA
ATOM     28  N   UNL     1      10.161   2.946  36.122  0.00  0.00    -0.279 N 
ATOM     29  H   UNL     1      11.056   2.524  35.919  0.00  0.00    +0.152 HD
BRANCH  26  30
ATOM     30  O   UNL     1      11.376   4.401  37.521  0.00  0.00    -0.444 OA
BRANCH  30  31
ATOM     31  C   UNL     1      12.394   3.455  37.185  0.00  0.00    +0.292 C 
BRANCH  31  33
ATOM     32  N   UNL     1      13.053   3.502  34.802  0.00  0.00    -0.131 NA
ATOM     33  C   UNL     1      13.226   3.965  36.079  0.00  0.00    +0.120 A 
ATOM     34  C   UNL     1      14.236   4.902  36.085  0.00  0.00    +0.137 A 
ATOM     35  N   UNL     1      14.650   4.949  34.788  0.00  0.00    -0.250 N 
ATOM     36  N   UNL     1      13.933   4.107  34.019  0.00  0.00    -0.065 NA
BRANCH  35  37
ATOM     37  C   UNL     1      15.684   5.776  34.207  0.00  0.00    +0.162 C 
BRANCH  37  38
ATOM     38  C   UNL     1      15.689   7.218  34.728  0.00  0.00    +0.129 C 
BRANCH  38  39
ATOM     39  N   UNL     1      16.803   8.048  34.182  0.00  0.00    -0.193 NA
ATOM     40  H   UNL     1      17.654   7.482  34.073  0.00  0.00    +0.148 HD
BRANCH  39  41
ATOM     41  S   UNL     1      16.446   8.966  32.815  0.00  0.00    +0.027 S 
ATOM     42  O   UNL     1      16.870   8.191  31.670  0.00  0.00    -0.158 OA
ATOM     43  O   UNL     1      15.083   9.431  32.946  0.00  0.00    -0.158 OA
ATOM     44  C   UNL     1      17.561  10.338  33.006  0.00  0.00    +0.214 C 
ENDBRANCH  39  41
ENDBRANCH  38  39
ENDBRANCH  37  38
ENDBRANCH  35  37
ENDBRANCH  31  33
ENDBRANCH  30  31
ENDBRANCH  26  30
ENDBRANCH  25  28
ENDBRANCH   1  25
TORSDOF 17
