REMARK VINA RESULT:    -7.534      2.968      5.546
REMARK INTER + INTRA:         -17.614
REMARK INTER:                 -14.128
REMARK INTRA:                  -3.486
REMARK UNBOUND:                -3.474
REMARK  Name = lig_assembled_34.pdb
REMARK  19 active torsions:
REMARK  status: ('A' for Active; 'I' for Inactive)
REMARK    1  A    between atoms: _2  and  _9
REMARK    2  A    between atoms: _4  and  _37
REMARK    3  A    between atoms: _6  and  _7
REMARK    4  A    between atoms: _6  and  _37
REMARK    5  A    between atoms: _11  and  _12
REMARK    6  A    between atoms: _13  and  _14
REMARK    7  A    between atoms: _18  and  _31
REMARK    8  A    between atoms: _33  and  _53
REMARK    9  A    between atoms: _35  and  _41
REMARK   10  A    between atoms: _36  and  _40
REMARK   11  A    between atoms: _40  and  _41
REMARK   12  A    between atoms: _43  and  _44
REMARK   13  A    between atoms: _45  and  _46
REMARK   14  A    between atoms: _47  and  _49
REMARK   15  A    between atoms: _49  and  _50
REMARK   16  A    between atoms: _49  and  _51
REMARK   17  A    between atoms: _51  and  _52
REMARK   18  A    between atoms: _51  and  _53
REMARK   19  A    between atoms: _54  and  _56
REMARK                            x       y       z     vdW  Elec       q    Type
REMARK                         _______ _______ _______ _____ _____    ______ ____
ROOT
ATOM      1  N   UNL     1      -1.763  21.075  15.561  0.00  0.00    -0.131 NA
ATOM      2  C   UNL     1      -0.493  21.266  16.026  0.00  0.00    +0.121 A 
ATOM      3  C   UNL     1      -0.497  21.142  17.393  0.00  0.00    +0.143 A 
ATOM      4  N   UNL     1      -1.798  20.842  17.733  0.00  0.00    -0.220 N 
ATOM      5  N   UNL     1      -2.555  20.833  16.603  0.00  0.00    -0.060 NA
ENDROOT
BRANCH   4   6
ATOM      6  C   UNL     1      -2.318  20.535  19.019  0.00  0.00    +0.068 A 
ATOM      7  C   UNL     1      -1.635  19.635  19.844  0.00  0.00    +0.038 A 
ATOM      8  C   UNL     1      -2.158  19.186  21.082  0.00  0.00    +0.007 A 
ATOM      9  C   UNL     1      -3.380  19.725  21.532  0.00  0.00    -0.008 A 
ATOM     10  C   UNL     1      -4.041  20.673  20.713  0.00  0.00    +0.011 A 
ATOM     11  C   UNL     1      -3.530  21.064  19.464  0.00  0.00    +0.028 A 
BRANCH   9  12
ATOM     12  C   UNL     1      -4.084  19.309  22.789  0.00  0.00    +0.004 A 
ATOM     13  C   UNL     1      -3.959  20.000  23.958  0.00  0.00    +0.026 A 
ATOM     14  C   UNL     1      -3.081  21.169  24.100  0.00  0.00    +0.016 A 
ATOM     15  C   UNL     1      -2.830  21.716  25.298  0.00  0.00    +0.051 A 
ATOM     16  C   UNL     1      -3.465  21.175  26.524  0.00  0.00    +0.183 A 
ATOM     17  O   UNL     1      -3.193  21.625  27.634  0.00  0.00    -0.288 OA
ATOM     18  C   UNL     1      -4.490  20.126  26.353  0.00  0.00    +0.097 A 
ATOM     19  C   UNL     1      -4.741  19.606  25.146  0.00  0.00    +0.140 A 
ATOM     20  O   UNL     1      -5.806  18.728  25.015  0.00  0.00    -0.455 OA
ATOM     21  C   UNL     1      -5.918  18.001  23.861  0.00  0.00    +0.140 A 
ATOM     22  C   UNL     1      -6.952  17.066  23.817  0.00  0.00    +0.092 A 
ATOM     23  C   UNL     1      -7.088  16.254  22.701  0.00  0.00    +0.120 A 
ATOM     24  C   UNL     1      -6.158  16.313  21.669  0.00  0.00    +0.046 A 
ATOM     25  C   UNL     1      -5.134  17.264  21.722  0.00  0.00    +0.016 A 
ATOM     26  C   UNL     1      -5.039  18.165  22.792  0.00  0.00    +0.026 A 
BRANCH  23  27
ATOM     27  O   UNL     1      -8.158  15.412  22.641  0.00  0.00    -0.507 OA
ATOM     28  H   UNL     1      -8.329  15.090  23.542  0.00  0.00    +0.292 HD
ENDBRANCH  23  27
ENDBRANCH   9  12
BRANCH   8  29
ATOM     29  C   UNL     1      -1.381  18.090  21.785  0.00  0.00    +0.072 C 
ATOM     30  O   UNL     1      -0.342  18.460  22.420  0.00  0.00    -0.545 OA
ATOM     31  O   UNL     1      -1.764  16.892  21.637  0.00  0.00    -0.545 OA
ENDBRANCH   8  29
ENDBRANCH   4   6
BRANCH   2  32
ATOM     32  C   UNL     1       0.643  21.554  15.129  0.00  0.00    +0.292 C 
BRANCH  32  33
ATOM     33  O   UNL     1       0.260  21.400  13.760  0.00  0.00    -0.444 OA
BRANCH  33  34
ATOM     34  C   UNL     1       1.227  20.594  13.081  0.00  0.00    +0.401 C 
ATOM     35  O   UNL     1       1.141  20.459  11.858  0.00  0.00    -0.226 OA
ATOM     36  N   UNL     1       2.178  20.033  13.828  0.00  0.00    -0.279 N 
ATOM     37  H   UNL     1       2.171  20.211  14.823  0.00  0.00    +0.152 HD
BRANCH  36  38
ATOM     38  C   UNL     1       3.237  19.172  13.287  0.00  0.00    +0.141 C 
BRANCH  38  39
ATOM     39  C   UNL     1       4.627  19.680  13.655  0.00  0.00    +0.163 C 
BRANCH  39  40
ATOM     40  O   UNL     1       5.557  18.584  13.693  0.00  0.00    -0.388 OA
ATOM     41  H   UNL     1       5.383  17.991  12.958  0.00  0.00    +0.210 HD
ENDBRANCH  39  40
BRANCH  39  42
ATOM     42  C   UNL     1       5.072  20.744  12.637  0.00  0.00    +0.175 C 
BRANCH  42  43
ATOM     43  C   UNL     1       5.376  22.092  13.306  0.00  0.00    +0.176 C 
ATOM     44  O   UNL     1       4.225  22.460  14.115  0.00  0.00    -0.332 OA
ATOM     45  C   UNL     1       4.377  23.678  14.917  0.00  0.00    +0.277 C 
ATOM     46  C   UNL     1       4.789  24.870  14.019  0.00  0.00    +0.110 C 
ATOM     47  C   UNL     1       5.990  24.516  13.118  0.00  0.00    +0.143 C 
ATOM     48  C   UNL     1       5.725  23.232  12.331  0.00  0.00    +0.133 C 
BRANCH  48  49
ATOM     49  N   UNL     1       6.910  22.858  11.542  0.00  0.00    -0.308 N 
ATOM     50  H   UNL     1       7.758  22.630  12.043  0.00  0.00    +0.149 HD
ATOM     51  C   UNL     1       6.938  22.799  10.208  0.00  0.00    +0.210 C 
ATOM     52  C   UNL     1       5.638  23.176   9.473  0.00  0.00    +0.109 C 
ATOM     53  O   UNL     1       7.940  22.468   9.574  0.00  0.00    -0.276 OA
ENDBRANCH  48  49
BRANCH  45  54
ATOM     54  C   UNL     1       5.435  23.476  16.023  0.00  0.00    +0.414 C 
ATOM     55  O   UNL     1       5.895  22.356  16.244  0.00  0.00    -0.240 OA
ATOM     56  O   UNL     1       5.828  24.432  16.693  0.00  0.00    -0.240 OA
ENDBRANCH  45  54
BRANCH  47  57
ATOM     57  O   UNL     1       6.238  25.585  12.204  0.00  0.00    -0.390 OA
ATOM     58  H   UNL     1       6.707  26.290  12.655  0.00  0.00    +0.210 HD
ENDBRANCH  47  57
BRANCH  45  59
ATOM     59  O   UNL     1       3.093  23.981  15.520  0.00  0.00    -0.343 OA
ATOM     60  C   UNL     1       2.682  25.368  15.421  0.00  0.00    +0.198 C 
ENDBRANCH  45  59
ENDBRANCH  42  43
BRANCH  42  61
ATOM     61  O   UNL     1       4.064  20.910  11.620  0.00  0.00    -0.387 OA
ATOM     62  H   UNL     1       3.690  20.055  11.397  0.00  0.00    +0.210 HD
ENDBRANCH  42  61
ENDBRANCH  39  42
ENDBRANCH  38  39
ENDBRANCH  36  38
ENDBRANCH  33  34
ENDBRANCH  32  33
ENDBRANCH   2  32
TORSDOF 17
