REMARK VINA RESULT:    -6.730      1.607      2.052
REMARK INTER + INTRA:         -15.509
REMARK INTER:                 -13.256
REMARK INTRA:                  -2.252
REMARK UNBOUND:                -2.090
REMARK  Name = lig_assembled_76.pdb
REMARK  21 active torsions:
REMARK  status: ('A' for Active; 'I' for Inactive)
REMARK    1  A    between atoms: _2  and  _9
REMARK    2  A    between atoms: _4  and  _23
REMARK    3  A    between atoms: _6  and  _7
REMARK    4  A    between atoms: _6  and  _23
REMARK    5  A    between atoms: _9  and  _10
REMARK    6  A    between atoms: _10  and  _11
REMARK    7  A    between atoms: _10  and  _18
REMARK    8  A    between atoms: _11  and  _12
REMARK    9  A    between atoms: _12  and  _13
REMARK   10  A    between atoms: _19  and  _39
REMARK   11  A    between atoms: _21  and  _27
REMARK   12  A    between atoms: _22  and  _26
REMARK   13  A    between atoms: _26  and  _27
REMARK   14  A    between atoms: _29  and  _30
REMARK   15  A    between atoms: _31  and  _32
REMARK   16  A    between atoms: _33  and  _35
REMARK   17  A    between atoms: _35  and  _36
REMARK   18  A    between atoms: _35  and  _37
REMARK   19  A    between atoms: _37  and  _38
REMARK   20  A    between atoms: _37  and  _39
REMARK   21  A    between atoms: _40  and  _42
REMARK                            x       y       z     vdW  Elec       q    Type
REMARK                         _______ _______ _______ _____ _____    ______ ____
ROOT
ATOM      1  C   UNL     1       4.946   2.603  34.395  0.00  0.00    +0.141 C 
ENDROOT
BRANCH   1   4
ATOM      2  C   UNL     1       2.566   2.490  33.742  0.00  0.00    +0.401 C 
ATOM      3  O   UNL     1       2.316   3.644  34.098  0.00  0.00    -0.226 OA
ATOM      4  N   UNL     1       3.767   1.920  33.850  0.00  0.00    -0.279 N 
ATOM      5  H   UNL     1       3.871   0.964  33.539  0.00  0.00    +0.152 HD
BRANCH   2   6
ATOM      6  O   UNL     1       1.519   1.694  33.180  0.00  0.00    -0.444 OA
BRANCH   6   7
ATOM      7  C   UNL     1       2.020   0.971  32.053  0.00  0.00    +0.292 C 
BRANCH   7   9
ATOM      8  N   UNL     1       0.487   2.463  30.800  0.00  0.00    -0.131 NA
ATOM      9  C   UNL     1       1.517   1.557  30.800  0.00  0.00    +0.120 A 
ATOM     10  C   UNL     1       1.921   1.333  29.503  0.00  0.00    +0.137 A 
ATOM     11  N   UNL     1       1.104   2.133  28.766  0.00  0.00    -0.249 N 
ATOM     12  N   UNL     1       0.237   2.803  29.542  0.00  0.00    -0.065 NA
BRANCH  11  13
ATOM     13  C   UNL     1       1.004   2.207  27.325  0.00  0.00    +0.176 C 
BRANCH  13  14
ATOM     14  C   UNL     1       1.568   3.512  26.754  0.00  0.00    +0.136 C 
BRANCH  14  15
ATOM     15  O   UNL     1       2.550   4.059  27.646  0.00  0.00    -0.390 OA
ATOM     16  H   UNL     1       3.434   3.946  27.255  0.00  0.00    +0.210 HD
ENDBRANCH  14  15
BRANCH  14  17
ATOM     17  C   UNL     1       2.247   3.311  25.390  0.00  0.00    +0.038 C 
BRANCH  17  18
ATOM     18  C   UNL     1       1.817   4.334  24.339  0.00  0.00    +0.038 C 
BRANCH  18  19
ATOM     19  C   UNL     1       1.834   3.758  22.946  0.00  0.00    -0.047 A 
ATOM     20  C   UNL     1       1.878   2.370  22.756  0.00  0.00    +0.003 A 
ATOM     21  C   UNL     1       1.877   1.833  21.468  0.00  0.00    +0.000 A 
ATOM     22  C   UNL     1       1.837   2.677  20.361  0.00  0.00    +0.000 A 
ATOM     23  C   UNL     1       1.804   4.060  20.541  0.00  0.00    +0.000 A 
ATOM     24  C   UNL     1       1.807   4.599  21.828  0.00  0.00    +0.003 A 
ENDBRANCH  18  19
ENDBRANCH  17  18
ENDBRANCH  14  17
ENDBRANCH  13  14
ENDBRANCH  11  13
ENDBRANCH   7   9
ENDBRANCH   6   7
ENDBRANCH   2   6
ENDBRANCH   1   4
BRANCH   1  25
ATOM     25  C   UNL     1       5.636   3.470  33.347  0.00  0.00    +0.163 C 
BRANCH  25  26
ATOM     26  O   UNL     1       5.013   4.764  33.292  0.00  0.00    -0.388 OA
ATOM     27  H   UNL     1       5.146   5.219  34.127  0.00  0.00    +0.210 HD
ENDBRANCH  25  26
BRANCH  25  28
ATOM     28  C   UNL     1       7.132   3.593  33.686  0.00  0.00    +0.175 C 
BRANCH  28  29
ATOM     29  C   UNL     1       7.361   4.227  35.066  0.00  0.00    +0.176 C 
ATOM     30  O   UNL     1       7.379   5.671  34.897  0.00  0.00    -0.332 OA
ATOM     31  C   UNL     1       7.483   6.452  36.134  0.00  0.00    +0.277 C 
ATOM     32  C   UNL     1       8.718   6.006  36.953  0.00  0.00    +0.110 C 
ATOM     33  C   UNL     1       8.760   4.474  37.132  0.00  0.00    +0.143 C 
ATOM     34  C   UNL     1       8.641   3.761  35.784  0.00  0.00    +0.133 C 
BRANCH  34  35
ATOM     35  N   UNL     1       8.595   2.303  35.975  0.00  0.00    -0.308 N 
ATOM     36  H   UNL     1       7.799   1.916  36.462  0.00  0.00    +0.149 HD
ATOM     37  C   UNL     1       9.536   1.457  35.546  0.00  0.00    +0.210 C 
ATOM     38  C   UNL     1      10.749   2.081  34.831  0.00  0.00    +0.109 C 
ATOM     39  O   UNL     1       9.463   0.238  35.707  0.00  0.00    -0.276 OA
ENDBRANCH  34  35
BRANCH  31  40
ATOM     40  C   UNL     1       6.210   6.292  36.991  0.00  0.00    +0.414 C 
ATOM     41  O   UNL     1       6.288   6.267  38.218  0.00  0.00    -0.240 OA
ATOM     42  O   UNL     1       5.106   6.188  36.455  0.00  0.00    -0.240 OA
ENDBRANCH  31  40
BRANCH  33  43
ATOM     43  O   UNL     1       9.986   4.095  37.758  0.00  0.00    -0.390 OA
ATOM     44  H   UNL     1      10.446   4.880  38.065  0.00  0.00    +0.210 HD
ENDBRANCH  33  43
BRANCH  31  45
ATOM     45  O   UNL     1       7.655   7.846  35.770  0.00  0.00    -0.343 OA
ATOM     46  C   UNL     1       7.525   8.131  34.354  0.00  0.00    +0.198 C 
ENDBRANCH  31  45
ENDBRANCH  28  29
BRANCH  28  47
ATOM     47  O   UNL     1       7.810   4.358  32.669  0.00  0.00    -0.387 OA
ATOM     48  H   UNL     1       7.162   4.789  32.107  0.00  0.00    +0.210 HD
ENDBRANCH  28  47
ENDBRANCH  25  28
ENDBRANCH   1  25
TORSDOF 19
