REMARK VINA RESULT:    -5.570      2.594      5.033
REMARK INTER + INTRA:         -13.099
REMARK INTER:                 -11.077
REMARK INTRA:                  -2.023
REMARK UNBOUND:                -2.970
REMARK  Name = lig_assembled_22.pdb
REMARK  20 active torsions:
REMARK  status: ('A' for Active; 'I' for Inactive)
REMARK    1  A    between atoms: _2  and  _9
REMARK    2  A    between atoms: _4  and  _18
REMARK    3  A    between atoms: _5  and  _9
REMARK    4  A    between atoms: _5  and  _12
REMARK    5  A    between atoms: _6  and  _7
REMARK    6  A    between atoms: _6  and  _18
REMARK    7  A    between atoms: _9  and  _10
REMARK    8  A    between atoms: _9  and  _11
REMARK    9  A    between atoms: _14  and  _34
REMARK   10  A    between atoms: _16  and  _22
REMARK   11  A    between atoms: _17  and  _21
REMARK   12  A    between atoms: _21  and  _22
REMARK   13  A    between atoms: _24  and  _25
REMARK   14  A    between atoms: _26  and  _27
REMARK   15  A    between atoms: _28  and  _30
REMARK   16  A    between atoms: _30  and  _31
REMARK   17  A    between atoms: _30  and  _32
REMARK   18  A    between atoms: _32  and  _33
REMARK   19  A    between atoms: _32  and  _34
REMARK   20  A    between atoms: _35  and  _37
REMARK                            x       y       z     vdW  Elec       q    Type
REMARK                         _______ _______ _______ _____ _____    ______ ____
ROOT
ATOM      1  C   UNL     1      16.720   0.254  26.828  0.00  0.00    +0.163 C 
ENDROOT
BRANCH   1   2
ATOM      2  O   UNL     1      16.066   1.531  26.752  0.00  0.00    -0.388 OA
ATOM      3  H   UNL     1      16.123   1.972  27.603  0.00  0.00    +0.210 HD
ENDBRANCH   1   2
BRANCH   1   4
ATOM      4  C   UNL     1      18.165   0.435  27.282  0.00  0.00    +0.141 C 
BRANCH   4   7
ATOM      5  C   UNL     1      19.654   2.285  27.964  0.00  0.00    +0.401 C 
ATOM      6  O   UNL     1      20.494   1.544  28.481  0.00  0.00    -0.226 OA
ATOM      7  N   UNL     1      18.533   1.852  27.386  0.00  0.00    -0.279 N 
ATOM      8  H   UNL     1      17.901   2.538  26.998  0.00  0.00    +0.152 HD
BRANCH   5   9
ATOM      9  O   UNL     1      19.874   3.698  27.977  0.00  0.00    -0.444 OA
BRANCH   9  10
ATOM     10  C   UNL     1      18.634   4.371  28.212  0.00  0.00    +0.292 C 
BRANCH  10  12
ATOM     11  N   UNL     1      18.863   6.528  27.032  0.00  0.00    -0.131 NA
ATOM     12  C   UNL     1      18.838   5.832  28.207  0.00  0.00    +0.120 A 
ATOM     13  C   UNL     1      19.025   6.710  29.253  0.00  0.00    +0.138 A 
ATOM     14  N   UNL     1      19.159   7.929  28.648  0.00  0.00    -0.235 N 
ATOM     15  N   UNL     1      19.064   7.805  27.310  0.00  0.00    -0.064 NA
BRANCH  14  16
ATOM     16  C   UNL     1      19.400   9.243  29.248  0.00  0.00    +0.155 C 
ATOM     17  C   UNL     1      19.853  10.286  28.204  0.00  0.00    +0.048 C 
ATOM     18  C   UNL     1      20.506   9.105  30.311  0.00  0.00    +0.048 C 
BRANCH  16  19
ATOM     19  C   UNL     1      18.120   9.771  29.903  0.00  0.00    +0.332 C 
ATOM     20  O   UNL     1      17.624   9.302  30.921  0.00  0.00    -0.248 OA
BRANCH  19  21
ATOM     21  O   UNL     1      17.542  10.825  29.278  0.00  0.00    -0.479 OA
ATOM     22  H   UNL     1      16.690  11.133  29.643  0.00  0.00    +0.295 HD
ENDBRANCH  19  21
ENDBRANCH  16  19
ENDBRANCH  14  16
ENDBRANCH  10  12
ENDBRANCH   9  10
ENDBRANCH   5   9
ENDBRANCH   4   7
ENDBRANCH   1   4
BRANCH   1  23
ATOM     23  C   UNL     1      16.695  -0.459  25.465  0.00  0.00    +0.175 C 
BRANCH  23  24
ATOM     24  C   UNL     1      17.485   0.309  24.396  0.00  0.00    +0.176 C 
ATOM     25  O   UNL     1      16.735   1.509  24.061  0.00  0.00    -0.332 OA
ATOM     26  C   UNL     1      17.392   2.426  23.125  0.00  0.00    +0.277 C 
ATOM     27  C   UNL     1      17.794   1.681  21.829  0.00  0.00    +0.110 C 
ATOM     28  C   UNL     1      18.567   0.381  22.135  0.00  0.00    +0.143 C 
ATOM     29  C   UNL     1      17.794  -0.497  23.121  0.00  0.00    +0.133 C 
BRANCH  29  30
ATOM     30  N   UNL     1      18.580  -1.691  23.472  0.00  0.00    -0.308 N 
ATOM     31  H   UNL     1      19.530  -1.555  23.786  0.00  0.00    +0.149 HD
ATOM     32  C   UNL     1      18.118  -2.943  23.403  0.00  0.00    +0.210 C 
ATOM     33  C   UNL     1      16.674  -3.118  22.897  0.00  0.00    +0.109 C 
ATOM     34  O   UNL     1      18.794  -3.923  23.718  0.00  0.00    -0.276 OA
ENDBRANCH  29  30
BRANCH  26  35
ATOM     35  C   UNL     1      18.645   3.057  23.767  0.00  0.00    +0.414 C 
ATOM     36  O   UNL     1      19.738   2.974  23.206  0.00  0.00    -0.240 OA
ATOM     37  O   UNL     1      18.564   3.649  24.844  0.00  0.00    -0.240 OA
ENDBRANCH  26  35
BRANCH  26  38
ATOM     38  O   UNL     1      16.444   3.468  22.778  0.00  0.00    -0.343 OA
ATOM     39  C   UNL     1      16.999   4.575  22.024  0.00  0.00    +0.198 C 
ENDBRANCH  26  38
BRANCH  28  40
ATOM     40  O   UNL     1      18.784  -0.347  20.926  0.00  0.00    -0.390 OA
ATOM     41  H   UNL     1      18.601   0.220  20.173  0.00  0.00    +0.210 HD
ENDBRANCH  28  40
ENDBRANCH  23  24
BRANCH  23  42
ATOM     42  O   UNL     1      15.333  -0.654  25.033  0.00  0.00    -0.387 OA
ATOM     43  H   UNL     1      14.777   0.035  25.404  0.00  0.00    +0.210 HD
ENDBRANCH  23  42
ENDBRANCH   1  23
TORSDOF 16
