REMARK VINA RESULT:    -6.796     14.719     18.657
REMARK INTER + INTRA:         -14.035
REMARK INTER:                 -12.400
REMARK INTRA:                  -1.635
REMARK UNBOUND:                -1.875
REMARK  Name = lig_assembled_82.pdb
REMARK  19 active torsions:
REMARK  status: ('A' for Active; 'I' for Inactive)
REMARK    1  A    between atoms: _2  and  _9
REMARK    2  A    between atoms: _4  and  _22
REMARK    3  A    between atoms: _5  and  _16
REMARK    4  A    between atoms: _6  and  _7
REMARK    5  A    between atoms: _6  and  _22
REMARK    6  A    between atoms: _9  and  _10
REMARK    7  A    between atoms: _16  and  _17
REMARK    8  A    between atoms: _18  and  _38
REMARK    9  A    between atoms: _20  and  _26
REMARK   10  A    between atoms: _21  and  _25
REMARK   11  A    between atoms: _25  and  _26
REMARK   12  A    between atoms: _28  and  _29
REMARK   13  A    between atoms: _30  and  _31
REMARK   14  A    between atoms: _32  and  _34
REMARK   15  A    between atoms: _34  and  _35
REMARK   16  A    between atoms: _34  and  _36
REMARK   17  A    between atoms: _36  and  _37
REMARK   18  A    between atoms: _36  and  _38
REMARK   19  A    between atoms: _39  and  _41
REMARK                            x       y       z     vdW  Elec       q    Type
REMARK                         _______ _______ _______ _____ _____    ______ ____
ROOT
ATOM      1  C   UNL     1      17.190   1.866  26.152  0.00  0.00    +0.163 C 
ENDROOT
BRANCH   1   2
ATOM      2  O   UNL     1      16.214   2.664  26.843  0.00  0.00    -0.388 OA
ATOM      3  H   UNL     1      16.169   3.534  26.441  0.00  0.00    +0.210 HD
ENDBRANCH   1   2
BRANCH   1   4
ATOM      4  C   UNL     1      18.474   2.666  25.956  0.00  0.00    +0.141 C 
BRANCH   4   7
ATOM      5  C   UNL     1      18.917   5.089  26.147  0.00  0.00    +0.401 C 
ATOM      6  O   UNL     1      19.877   4.950  26.908  0.00  0.00    -0.226 OA
ATOM      7  N   UNL     1      18.199   4.077  25.658  0.00  0.00    -0.279 N 
ATOM      8  H   UNL     1      17.423   4.293  25.048  0.00  0.00    +0.152 HD
BRANCH   5   9
ATOM      9  O   UNL     1      18.528   6.408  25.755  0.00  0.00    -0.444 OA
BRANCH   9  10
ATOM     10  C   UNL     1      19.620   7.309  25.958  0.00  0.00    +0.292 C 
BRANCH  10  12
ATOM     11  N   UNL     1      18.593   9.384  26.830  0.00  0.00    -0.131 NA
ATOM     12  C   UNL     1      19.331   8.245  27.049  0.00  0.00    +0.120 A 
ATOM     13  C   UNL     1      19.696   8.210  28.382  0.00  0.00    +0.137 A 
ATOM     14  N   UNL     1      19.265   9.408  28.878  0.00  0.00    -0.247 N 
ATOM     15  N   UNL     1      18.527  10.066  27.964  0.00  0.00    -0.065 NA
BRANCH  14  16
ATOM     16  C   UNL     1      19.588  10.032  30.164  0.00  0.00    +0.176 C 
BRANCH  16  17
ATOM     17  C   UNL     1      18.545   9.757  31.220  0.00  0.00    -0.049 C 
ATOM     18  C   UNL     1      18.596  10.567  32.477  0.00  0.00    +0.023 C 
ATOM     19  C   UNL     1      17.220  10.982  33.169  0.00  0.00    -0.025 C 
ATOM     20  C   UNL     1      15.849  11.317  32.568  0.00  0.00    +0.012 C 
ATOM     21  C   UNL     1      17.239   9.448  33.621  0.00  0.00    -0.000 C 
ATOM     22  C   UNL     1      16.870   8.431  32.495  0.00  0.00    +0.031 C 
ATOM     23  C   UNL     1      17.602  12.192  34.058  0.00  0.00    +0.012 C 
ATOM     24  C   UNL     1      18.781   9.597  33.713  0.00  0.00    +0.012 C 
ATOM     25  C   UNL     1      17.669   8.734  31.237  0.00  0.00    -0.025 C 
ENDBRANCH  16  17
ENDBRANCH  14  16
ENDBRANCH  10  12
ENDBRANCH   9  10
ENDBRANCH   5   9
ENDBRANCH   4   7
ENDBRANCH   1   4
BRANCH   1  26
ATOM     26  C   UNL     1      16.656   1.407  24.784  0.00  0.00    +0.175 C 
BRANCH  26  27
ATOM     27  C   UNL     1      17.738   0.709  23.947  0.00  0.00    +0.176 C 
ATOM     28  O   UNL     1      17.805   1.378  22.657  0.00  0.00    -0.332 OA
ATOM     29  C   UNL     1      18.863   0.912  21.756  0.00  0.00    +0.277 C 
ATOM     30  C   UNL     1      18.761  -0.619  21.547  0.00  0.00    +0.110 C 
ATOM     31  C   UNL     1      18.655  -1.371  22.890  0.00  0.00    +0.143 C 
ATOM     32  C   UNL     1      17.525  -0.803  23.750  0.00  0.00    +0.133 C 
BRANCH  32  33
ATOM     33  N   UNL     1      17.490  -1.469  25.061  0.00  0.00    -0.308 N 
ATOM     34  H   UNL     1      18.233  -1.265  25.714  0.00  0.00    +0.149 HD
ATOM     35  C   UNL     1      16.540  -2.327  25.445  0.00  0.00    +0.210 C 
ATOM     36  C   UNL     1      15.436  -2.638  24.417  0.00  0.00    +0.109 C 
ATOM     37  O   UNL     1      16.529  -2.859  26.555  0.00  0.00    -0.276 OA
ENDBRANCH  32  33
BRANCH  29  38
ATOM     38  C   UNL     1      20.256   1.263  22.319  0.00  0.00    +0.414 C 
ATOM     39  O   UNL     1      20.458   2.363  22.833  0.00  0.00    -0.240 OA
ATOM     40  O   UNL     1      21.177   0.447  22.260  0.00  0.00    -0.240 OA
ENDBRANCH  29  38
BRANCH  29  41
ATOM     41  O   UNL     1      18.678   1.562  20.472  0.00  0.00    -0.343 OA
ATOM     42  C   UNL     1      17.296   1.738  20.068  0.00  0.00    +0.198 C 
ENDBRANCH  29  41
BRANCH  31  43
ATOM     43  O   UNL     1      18.410  -2.757  22.648  0.00  0.00    -0.390 OA
ATOM     44  H   UNL     1      19.059  -3.284  23.121  0.00  0.00    +0.210 HD
ENDBRANCH  31  43
ENDBRANCH  26  27
BRANCH  26  45
ATOM     45  O   UNL     1      16.115   2.530  24.060  0.00  0.00    -0.387 OA
ATOM     46  H   UNL     1      16.645   3.311  24.236  0.00  0.00    +0.210 HD
ENDBRANCH  26  45
ENDBRANCH   1  26
TORSDOF 15
