REMARK VINA RESULT:    -5.601      7.288     12.434
REMARK INTER + INTRA:         -13.115
REMARK INTER:                 -10.715
REMARK INTRA:                  -2.400
REMARK UNBOUND:                -2.111
REMARK  Name = lig_assembled_17.pdb
REMARK  22 active torsions:
REMARK  status: ('A' for Active; 'I' for Inactive)
REMARK    1  A    between atoms: _2  and  _10
REMARK    2  A    between atoms: _3  and  _11
REMARK    3  A    between atoms: _3  and  _12
REMARK    4  A    between atoms: _3  and  _14
REMARK    5  A    between atoms: _5  and  _19
REMARK    6  A    between atoms: _6  and  _14
REMARK    7  A    between atoms: _7  and  _8
REMARK    8  A    between atoms: _7  and  _19
REMARK    9  A    between atoms: _10  and  _11
REMARK   10  A    between atoms: _12  and  _13
REMARK   11  A    between atoms: _15  and  _35
REMARK   12  A    between atoms: _17  and  _23
REMARK   13  A    between atoms: _18  and  _22
REMARK   14  A    between atoms: _22  and  _23
REMARK   15  A    between atoms: _25  and  _26
REMARK   16  A    between atoms: _27  and  _28
REMARK   17  A    between atoms: _29  and  _31
REMARK   18  A    between atoms: _31  and  _32
REMARK   19  A    between atoms: _31  and  _33
REMARK   20  A    between atoms: _33  and  _34
REMARK   21  A    between atoms: _33  and  _35
REMARK   22  A    between atoms: _36  and  _38
REMARK                            x       y       z     vdW  Elec       q    Type
REMARK                         _______ _______ _______ _____ _____    ______ ____
ROOT
ATOM      1  C   UNL     1       9.752   2.844  34.840  0.00  0.00    +0.163 C 
ENDROOT
BRANCH   1   2
ATOM      2  O   UNL     1       9.421   2.221  33.588  0.00  0.00    -0.388 OA
ATOM      3  H   UNL     1       8.509   2.420  33.363  0.00  0.00    +0.210 HD
ENDBRANCH   1   2
BRANCH   1   4
ATOM      4  C   UNL     1       8.495   3.051  35.702  0.00  0.00    +0.175 C 
BRANCH   4   5
ATOM      5  C   UNL     1       7.753   4.346  35.339  0.00  0.00    +0.176 C 
ATOM      6  O   UNL     1       7.520   5.087  36.569  0.00  0.00    -0.332 OA
ATOM      7  C   UNL     1       6.911   6.410  36.405  0.00  0.00    +0.277 C 
ATOM      8  C   UNL     1       5.592   6.303  35.601  0.00  0.00    +0.110 C 
ATOM      9  C   UNL     1       5.783   5.496  34.299  0.00  0.00    +0.143 C 
ATOM     10  C   UNL     1       6.426   4.139  34.585  0.00  0.00    +0.133 C 
BRANCH  10  11
ATOM     11  N   UNL     1       6.682   3.415  33.330  0.00  0.00    -0.308 N 
ATOM     12  H   UNL     1       7.376   3.794  32.700  0.00  0.00    +0.149 HD
ATOM     13  C   UNL     1       6.058   2.291  32.968  0.00  0.00    +0.210 C 
ATOM     14  C   UNL     1       4.988   1.754  33.937  0.00  0.00    +0.109 C 
ATOM     15  O   UNL     1       6.304   1.699  31.916  0.00  0.00    -0.276 OA
ENDBRANCH  10  11
BRANCH   7  16
ATOM     16  C   UNL     1       7.878   7.372  35.685  0.00  0.00    +0.414 C 
ATOM     17  O   UNL     1       7.488   8.046  34.732  0.00  0.00    -0.240 OA
ATOM     18  O   UNL     1       9.048   7.475  36.056  0.00  0.00    -0.240 OA
ENDBRANCH   7  16
BRANCH   9  19
ATOM     19  O   UNL     1       4.518   5.294  33.668  0.00  0.00    -0.390 OA
ATOM     20  H   UNL     1       3.857   5.848  34.090  0.00  0.00    +0.210 HD
ENDBRANCH   9  19
BRANCH   7  21
ATOM     21  O   UNL     1       6.601   6.927  37.725  0.00  0.00    -0.343 OA
ATOM     22  C   UNL     1       7.184   6.185  38.826  0.00  0.00    +0.198 C 
ENDBRANCH   7  21
ENDBRANCH   4   5
BRANCH   4  23
ATOM     23  O   UNL     1       8.846   3.054  37.100  0.00  0.00    -0.387 OA
ATOM     24  H   UNL     1       8.149   2.630  37.606  0.00  0.00    +0.210 HD
ENDBRANCH   4  23
ENDBRANCH   1   4
BRANCH   1  25
ATOM     25  C   UNL     1      10.756   1.983  35.601  0.00  0.00    +0.141 C 
BRANCH  25  28
ATOM     26  C   UNL     1      12.285   3.019  37.242  0.00  0.00    +0.401 C 
ATOM     27  O   UNL     1      11.620   2.674  38.221  0.00  0.00    -0.226 OA
ATOM     28  N   UNL     1      11.953   2.744  35.980  0.00  0.00    -0.279 N 
ATOM     29  H   UNL     1      12.558   3.078  35.244  0.00  0.00    +0.152 HD
BRANCH  26  30
ATOM     30  O   UNL     1      13.489   3.763  37.448  0.00  0.00    -0.444 OA
BRANCH  30  31
ATOM     31  C   UNL     1      13.289   5.118  37.038  0.00  0.00    +0.292 C 
BRANCH  31  33
ATOM     32  N   UNL     1      14.249   4.759  34.788  0.00  0.00    -0.131 NA
ATOM     33  C   UNL     1      14.231   5.469  35.960  0.00  0.00    +0.120 A 
ATOM     34  C   UNL     1      15.173   6.473  35.894  0.00  0.00    +0.137 A 
ATOM     35  N   UNL     1      15.713   6.329  34.652  0.00  0.00    -0.250 N 
ATOM     36  N   UNL     1      15.165   5.293  33.994  0.00  0.00    -0.065 NA
BRANCH  35  37
ATOM     37  C   UNL     1      16.712   7.152  34.003  0.00  0.00    +0.160 C 
BRANCH  37  38
ATOM     38  C   UNL     1      16.060   8.378  33.348  0.00  0.00    +0.107 C 
BRANCH  38  39
ATOM     39  N   UNL     1      16.737   8.907  32.138  0.00  0.00    -0.301 NA
BRANCH  39  40
ATOM     40  C   UNL     1      17.127  10.324  32.260  0.00  0.00    +0.081 C 
ATOM     41  C   UNL     1      16.518  11.099  33.425  0.00  0.00    +0.020 C 
ENDBRANCH  39  40
BRANCH  39  42
ATOM     42  C   UNL     1      17.865   8.016  31.797  0.00  0.00    +0.081 C 
ATOM     43  C   UNL     1      18.382   8.154  30.368  0.00  0.00    +0.020 C 
ENDBRANCH  39  42
ENDBRANCH  38  39
ENDBRANCH  37  38
ENDBRANCH  35  37
ENDBRANCH  31  33
ENDBRANCH  30  31
ENDBRANCH  26  30
ENDBRANCH  25  28
ENDBRANCH   1  25
TORSDOF 18
