REMARK VINA RESULT:    -5.076     14.496     17.262
REMARK INTER + INTRA:         -13.055
REMARK INTER:                  -8.805
REMARK INTRA:                  -4.250
REMARK UNBOUND:                -3.380
REMARK  Name = lig_assembled_62.pdb
REMARK  20 active torsions:
REMARK  status: ('A' for Active; 'I' for Inactive)
REMARK    1  A    between atoms: _2  and  _10
REMARK    2  A    between atoms: _5  and  _19
REMARK    3  A    between atoms: _6  and  _10
REMARK    4  A    between atoms: _7  and  _8
REMARK    5  A    between atoms: _7  and  _19
REMARK    6  A    between atoms: _10  and  _11
REMARK    7  A    between atoms: _11  and  _14
REMARK    8  A    between atoms: _12  and  _14
REMARK    9  A    between atoms: _15  and  _35
REMARK   10  A    between atoms: _17  and  _23
REMARK   11  A    between atoms: _18  and  _22
REMARK   12  A    between atoms: _22  and  _23
REMARK   13  A    between atoms: _25  and  _26
REMARK   14  A    between atoms: _27  and  _28
REMARK   15  A    between atoms: _29  and  _31
REMARK   16  A    between atoms: _31  and  _32
REMARK   17  A    between atoms: _31  and  _33
REMARK   18  A    between atoms: _33  and  _34
REMARK   19  A    between atoms: _33  and  _35
REMARK   20  A    between atoms: _36  and  _38
REMARK                            x       y       z     vdW  Elec       q    Type
REMARK                         _______ _______ _______ _____ _____    ______ ____
ROOT
ATOM      1  C   UNL     1       6.608   5.460  38.700  0.00  0.00    +0.163 C 
ENDROOT
BRANCH   1   2
ATOM      2  O   UNL     1       6.288   4.060  38.640  0.00  0.00    -0.388 OA
ATOM      3  H   UNL     1       5.352   3.953  38.453  0.00  0.00    +0.210 HD
ENDBRANCH   1   2
BRANCH   1   4
ATOM      4  C   UNL     1       7.293   5.923  37.402  0.00  0.00    +0.175 C 
BRANCH   4   5
ATOM      5  C   UNL     1       7.432   4.783  36.383  0.00  0.00    +0.176 C 
ATOM      6  O   UNL     1       8.614   4.011  36.733  0.00  0.00    -0.332 OA
ATOM      7  C   UNL     1       8.848   2.810  35.926  0.00  0.00    +0.277 C 
ATOM      8  C   UNL     1       8.884   3.168  34.420  0.00  0.00    +0.110 C 
ATOM      9  C   UNL     1       7.663   4.016  34.007  0.00  0.00    +0.143 C 
ATOM     10  C   UNL     1       7.512   5.238  34.914  0.00  0.00    +0.133 C 
BRANCH  10  11
ATOM     11  N   UNL     1       6.296   5.991  34.566  0.00  0.00    -0.308 N 
ATOM     12  H   UNL     1       5.433   5.474  34.470  0.00  0.00    +0.149 HD
ATOM     13  C   UNL     1       6.259   7.311  34.368  0.00  0.00    +0.210 C 
ATOM     14  C   UNL     1       7.596   8.065  34.496  0.00  0.00    +0.109 C 
ATOM     15  O   UNL     1       5.223   7.917  34.092  0.00  0.00    -0.276 OA
ENDBRANCH  10  11
BRANCH   7  16
ATOM     16  C   UNL     1       7.749   1.757  36.180  0.00  0.00    +0.414 C 
ATOM     17  O   UNL     1       7.200   1.687  37.278  0.00  0.00    -0.240 OA
ATOM     18  O   UNL     1       7.412   0.980  35.286  0.00  0.00    -0.240 OA
ENDBRANCH   7  16
BRANCH   7  19
ATOM     19  O   UNL     1      10.141   2.265  36.298  0.00  0.00    -0.343 OA
ATOM     20  C   UNL     1      11.264   2.784  35.543  0.00  0.00    +0.198 C 
ENDBRANCH   7  19
BRANCH   9  21
ATOM     21  O   UNL     1       7.813   4.450  32.655  0.00  0.00    -0.390 OA
ATOM     22  H   UNL     1       7.195   5.162  32.476  0.00  0.00    +0.210 HD
ENDBRANCH   9  21
ENDBRANCH   4   5
BRANCH   4  23
ATOM     23  O   UNL     1       8.587   6.485  37.698  0.00  0.00    -0.387 OA
ATOM     24  H   UNL     1       9.169   5.796  38.026  0.00  0.00    +0.210 HD
ENDBRANCH   4  23
ENDBRANCH   1   4
BRANCH   1  25
ATOM     25  C   UNL     1       5.340   6.276  38.926  0.00  0.00    +0.141 C 
BRANCH  25  28
ATOM     26  C   UNL     1       3.050   6.107  38.015  0.00  0.00    +0.401 C 
ATOM     27  O   UNL     1       2.502   6.259  39.109  0.00  0.00    -0.226 OA
ATOM     28  N   UNL     1       4.371   6.095  37.838  0.00  0.00    -0.279 N 
ATOM     29  H   UNL     1       4.726   5.954  36.902  0.00  0.00    +0.152 HD
BRANCH  26  30
ATOM     30  O   UNL     1       2.238   5.926  36.851  0.00  0.00    -0.444 OA
BRANCH  30  31
ATOM     31  C   UNL     1       1.954   4.536  36.678  0.00  0.00    +0.292 C 
BRANCH  31  33
ATOM     32  N   UNL     1       3.720   4.672  34.948  0.00  0.00    -0.131 NA
ATOM     33  C   UNL     1       2.646   4.014  35.485  0.00  0.00    +0.120 A 
ATOM     34  C   UNL     1       2.395   2.883  34.740  0.00  0.00    +0.138 A 
ATOM     35  N   UNL     1       3.339   2.916  33.755  0.00  0.00    -0.237 N 
ATOM     36  N   UNL     1       4.139   3.991  33.890  0.00  0.00    -0.065 NA
BRANCH  35  37
ATOM     37  C   UNL     1       3.585   1.973  32.677  0.00  0.00    +0.219 C 
BRANCH  37  38
ATOM     38  C   UNL     1       4.996   2.145  32.137  0.00  0.00    +0.237 C 
ATOM     39  O   UNL     1       5.928   1.382  32.380  0.00  0.00    -0.274 OA
ATOM     40  N   UNL     1       5.187   3.195  31.279  0.00  0.00    -0.328 N 
ATOM     41  H   UNL     1       4.445   3.807  30.965  0.00  0.00    +0.145 HD
ATOM     42  H   UNL     1       6.116   3.328  30.897  0.00  0.00    +0.145 HD
ENDBRANCH  37  38
BRANCH  37  43
ATOM     43  C   UNL     1       2.551   2.139  31.567  0.00  0.00    +0.195 C 
BRANCH  43  44
ATOM     44  O   UNL     1       2.840   1.218  30.506  0.00  0.00    -0.380 OA
ATOM     45  C   UNL     1       1.908   0.144  30.472  0.00  0.00    +0.194 C 
ENDBRANCH  43  44
ENDBRANCH  37  43
ENDBRANCH  35  37
ENDBRANCH  31  33
ENDBRANCH  30  31
ENDBRANCH  26  30
ENDBRANCH  25  28
ENDBRANCH   1  25
TORSDOF 17
