REMARK VINA RESULT:    -6.182      7.246     12.558
REMARK INTER + INTRA:         -12.548
REMARK INTER:                 -10.700
REMARK INTRA:                  -1.847
REMARK UNBOUND:                -1.847
REMARK  Name = lig_assembled_2.pdb
REMARK  16 active torsions:
REMARK  status: ('A' for Active; 'I' for Inactive)
REMARK    1  A    between atoms: _2  and  _9
REMARK    2  A    between atoms: _4  and  _18
REMARK    3  A    between atoms: _6  and  _7
REMARK    4  A    between atoms: _6  and  _18
REMARK    5  A    between atoms: _14  and  _34
REMARK    6  A    between atoms: _16  and  _22
REMARK    7  A    between atoms: _17  and  _21
REMARK    8  A    between atoms: _21  and  _22
REMARK    9  A    between atoms: _24  and  _25
REMARK   10  A    between atoms: _26  and  _27
REMARK   11  A    between atoms: _28  and  _30
REMARK   12  A    between atoms: _30  and  _31
REMARK   13  A    between atoms: _30  and  _32
REMARK   14  A    between atoms: _32  and  _33
REMARK   15  A    between atoms: _32  and  _34
REMARK   16  A    between atoms: _35  and  _37
REMARK                            x       y       z     vdW  Elec       q    Type
REMARK                         _______ _______ _______ _____ _____    ______ ____
ROOT
ATOM      1  C   UNL     1       9.853   2.973  34.795  0.00  0.00    +0.163 C 
ENDROOT
BRANCH   1   2
ATOM      2  O   UNL     1       9.604   2.062  33.712  0.00  0.00    -0.388 OA
ATOM      3  H   UNL     1       8.675   1.817  33.707  0.00  0.00    +0.210 HD
ENDBRANCH   1   2
BRANCH   1   4
ATOM      4  C   UNL     1      11.027   2.478  35.634  0.00  0.00    +0.141 C 
BRANCH   4   7
ATOM      5  C   UNL     1      12.942   4.038  35.560  0.00  0.00    +0.401 C 
ATOM      6  O   UNL     1      13.409   3.564  34.522  0.00  0.00    -0.226 OA
ATOM      7  N   UNL     1      11.835   3.588  36.153  0.00  0.00    -0.279 N 
ATOM      8  H   UNL     1      11.536   4.036  37.008  0.00  0.00    +0.152 HD
BRANCH   5   9
ATOM      9  O   UNL     1      13.613   5.135  36.186  0.00  0.00    -0.444 OA
BRANCH   9  10
ATOM     10  C   UNL     1      15.005   5.091  35.862  0.00  0.00    +0.292 C 
BRANCH  10  12
ATOM     11  N   UNL     1      15.035   6.597  33.899  0.00  0.00    -0.131 NA
ATOM     12  C   UNL     1      15.412   6.336  35.184  0.00  0.00    +0.121 A 
ATOM     13  C   UNL     1      16.166   7.388  35.654  0.00  0.00    +0.143 A 
ATOM     14  N   UNL     1      16.198   8.292  34.617  0.00  0.00    -0.220 N 
ATOM     15  N   UNL     1      15.522   7.782  33.559  0.00  0.00    -0.060 NA
BRANCH  14  16
ATOM     16  C   UNL     1      16.790   9.582  34.582  0.00  0.00    +0.067 A 
ATOM     17  C   UNL     1      17.532  10.065  35.670  0.00  0.00    +0.029 A 
ATOM     18  C   UNL     1      18.075  11.353  35.629  0.00  0.00    +0.022 A 
ATOM     19  C   UNL     1      17.882  12.158  34.508  0.00  0.00    +0.041 A 
ATOM     20 CL   UNL     1      18.535  13.749  34.478  0.00  0.00    -0.084 Cl
ATOM     21  C   UNL     1      17.160  11.682  33.417  0.00  0.00    +0.022 A 
ATOM     22  C   UNL     1      16.615  10.395  33.449  0.00  0.00    +0.029 A 
ENDBRANCH  14  16
ENDBRANCH  10  12
ENDBRANCH   9  10
ENDBRANCH   5   9
ENDBRANCH   4   7
ENDBRANCH   1   4
BRANCH   1  23
ATOM     23  C   UNL     1       8.609   3.120  35.688  0.00  0.00    +0.175 C 
BRANCH  23  24
ATOM     24  C   UNL     1       7.776   4.357  35.320  0.00  0.00    +0.176 C 
ATOM     25  O   UNL     1       7.526   5.107  36.540  0.00  0.00    -0.332 OA
ATOM     26  C   UNL     1       6.829   6.385  36.367  0.00  0.00    +0.277 C 
ATOM     27  C   UNL     1       5.500   6.177  35.599  0.00  0.00    +0.110 C 
ATOM     28  C   UNL     1       5.711   5.356  34.309  0.00  0.00    +0.143 C 
ATOM     29  C   UNL     1       6.447   4.049  34.604  0.00  0.00    +0.133 C 
BRANCH  29  30
ATOM     30  N   UNL     1       6.719   3.318  33.357  0.00  0.00    -0.308 N 
ATOM     31  H   UNL     1       7.339   3.746  32.684  0.00  0.00    +0.149 HD
ATOM     32  C   UNL     1       6.199   2.125  33.055  0.00  0.00    +0.210 C 
ATOM     33  C   UNL     1       5.236   1.511  34.090  0.00  0.00    +0.109 C 
ATOM     34  O   UNL     1       6.456   1.529  32.009  0.00  0.00    -0.276 OA
ENDBRANCH  29  30
BRANCH  26  35
ATOM     35  C   UNL     1       7.714   7.392  35.603  0.00  0.00    +0.414 C 
ATOM     36  O   UNL     1       8.901   7.521  35.898  0.00  0.00    -0.240 OA
ATOM     37  O   UNL     1       7.240   8.074  34.694  0.00  0.00    -0.240 OA
ENDBRANCH  26  35
BRANCH  28  38
ATOM     38  O   UNL     1       4.446   5.060  33.715  0.00  0.00    -0.390 OA
ATOM     39  H   UNL     1       4.515   4.252  33.202  0.00  0.00    +0.210 HD
ENDBRANCH  28  38
BRANCH  26  40
ATOM     40  O   UNL     1       6.518   6.909  37.684  0.00  0.00    -0.343 OA
ATOM     41  C   UNL     1       7.231   6.278  38.778  0.00  0.00    +0.198 C 
ENDBRANCH  26  40
ENDBRANCH  23  24
BRANCH  23  42
ATOM     42  O   UNL     1       8.997   3.178  37.075  0.00  0.00    -0.387 OA
ATOM     43  H   UNL     1       9.688   2.532  37.241  0.00  0.00    +0.210 HD
ENDBRANCH  23  42
ENDBRANCH   1  23
TORSDOF 14
