REMARK VINA RESULT:    -5.917      1.955      4.260
REMARK INTER + INTRA:         -13.900
REMARK INTER:                 -11.054
REMARK INTRA:                  -2.846
REMARK UNBOUND:                -3.313
REMARK  Name = lig_assembled_71.pdb
REMARK  17 active torsions:
REMARK  status: ('A' for Active; 'I' for Inactive)
REMARK    1  A    between atoms: _2  and  _12
REMARK    2  A    between atoms: _7  and  _22
REMARK    3  A    between atoms: _9  and  _10
REMARK    4  A    between atoms: _9  and  _22
REMARK    5  A    between atoms: _12  and  _13
REMARK    6  A    between atoms: _18  and  _38
REMARK    7  A    between atoms: _20  and  _26
REMARK    8  A    between atoms: _21  and  _25
REMARK    9  A    between atoms: _25  and  _26
REMARK   10  A    between atoms: _28  and  _29
REMARK   11  A    between atoms: _30  and  _31
REMARK   12  A    between atoms: _32  and  _34
REMARK   13  A    between atoms: _34  and  _35
REMARK   14  A    between atoms: _34  and  _36
REMARK   15  A    between atoms: _36  and  _37
REMARK   16  A    between atoms: _36  and  _38
REMARK   17  A    between atoms: _39  and  _41
REMARK                            x       y       z     vdW  Elec       q    Type
REMARK                         _______ _______ _______ _____ _____    ______ ____
ROOT
ATOM      1  C   UNL     1       2.933   2.760  35.956  0.00  0.00    +0.163 C 
ENDROOT
BRANCH   1   2
ATOM      2  O   UNL     1       2.923   1.397  35.502  0.00  0.00    -0.388 OA
ATOM      3  H   UNL     1       3.793   1.163  35.171  0.00  0.00    +0.210 HD
ENDBRANCH   1   2
BRANCH   1   4
ATOM      4  C   UNL     1       2.035   3.613  35.065  0.00  0.00    +0.141 C 
BRANCH   4   7
ATOM      5  C   UNL     1       2.086   3.210  32.628  0.00  0.00    +0.401 C 
ATOM      6  O   UNL     1       2.870   4.133  32.396  0.00  0.00    -0.226 OA
ATOM      7  N   UNL     1       1.638   2.900  33.845  0.00  0.00    -0.279 N 
ATOM      8  H   UNL     1       0.989   2.130  33.933  0.00  0.00    +0.152 HD
BRANCH   5   9
ATOM      9  O   UNL     1       1.612   2.412  31.540  0.00  0.00    -0.444 OA
BRANCH   9  10
ATOM     10  C   UNL     1       2.455   2.606  30.402  0.00  0.00    +0.292 C 
BRANCH  10  12
ATOM     11  N   UNL     1       2.289   3.598  28.131  0.00  0.00    -0.131 NA
ATOM     12  C   UNL     1       1.676   3.145  29.271  0.00  0.00    +0.120 A 
ATOM     13  C   UNL     1       0.315   3.288  29.133  0.00  0.00    +0.137 A 
ATOM     14  N   UNL     1       0.161   3.847  27.898  0.00  0.00    -0.242 N 
ATOM     15  N   UNL     1       1.350   4.018  27.293  0.00  0.00    -0.065 NA
BRANCH  14  16
ATOM     16  C   UNL     1      -1.066   4.137  27.182  0.00  0.00    +0.241 C 
BRANCH  16  17
ATOM     17  C   UNL     1      -0.793   4.684  25.805  0.00  0.00    +0.241 C 
ATOM     18  O   UNL     1      -0.946   5.883  25.578  0.00  0.00    -0.273 OA
ATOM     19  N   UNL     1      -0.452   3.732  24.868  0.00  0.00    -0.253 N 
ATOM     20  H   UNL     1      -0.535   2.745  25.050  0.00  0.00    +0.158 HD
ATOM     21  C   UNL     1      -0.137   4.026  23.546  0.00  0.00    +0.221 A 
ATOM     22  N   UNL     1      -0.116   2.973  22.714  0.00  0.00    -0.223 NA
ATOM     23  C   UNL     1       0.114   3.249  21.412  0.00  0.00    +0.116 A 
ATOM     24  C   UNL     1       0.348   4.513  20.928  0.00  0.00    +0.039 A 
ATOM     25  C   UNL     1       0.350   5.508  21.869  0.00  0.00    +0.116 A 
ATOM     26  N   UNL     1       0.112   5.284  23.170  0.00  0.00    -0.223 NA
ENDBRANCH  16  17
ENDBRANCH  14  16
ENDBRANCH  10  12
ENDBRANCH   9  10
ENDBRANCH   5   9
ENDBRANCH   4   7
ENDBRANCH   1   4
BRANCH   1  27
ATOM     27  C   UNL     1       4.360   3.333  35.945  0.00  0.00    +0.175 C 
BRANCH  27  28
ATOM     28  C   UNL     1       5.135   2.930  34.682  0.00  0.00    +0.176 C 
ATOM     29  O   UNL     1       5.804   1.667  34.952  0.00  0.00    -0.332 OA
ATOM     30  C   UNL     1       6.513   1.070  33.816  0.00  0.00    +0.277 C 
ATOM     31  C   UNL     1       7.523   2.080  33.217  0.00  0.00    +0.110 C 
ATOM     32  C   UNL     1       6.865   3.448  32.943  0.00  0.00    +0.143 C 
ATOM     33  C   UNL     1       6.154   3.975  34.189  0.00  0.00    +0.133 C 
BRANCH  33  34
ATOM     34  N   UNL     1       5.458   5.237  33.891  0.00  0.00    -0.308 N 
ATOM     35  H   UNL     1       4.672   5.204  33.257  0.00  0.00    +0.149 HD
ATOM     36  C   UNL     1       5.797   6.423  34.404  0.00  0.00    +0.210 C 
ATOM     37  C   UNL     1       7.015   6.444  35.346  0.00  0.00    +0.109 C 
ATOM     38  O   UNL     1       5.187   7.461  34.148  0.00  0.00    -0.276 OA
ENDBRANCH  33  34
BRANCH  30  39
ATOM     39  C   UNL     1       5.519   0.625  32.723  0.00  0.00    +0.414 C 
ATOM     40  O   UNL     1       4.339   0.421  33.004  0.00  0.00    -0.240 OA
ATOM     41  O   UNL     1       5.897   0.472  31.561  0.00  0.00    -0.240 OA
ENDBRANCH  30  39
BRANCH  30  42
ATOM     42  O   UNL     1       7.251  -0.081  34.302  0.00  0.00    -0.343 OA
ATOM     43  C   UNL     1       7.000  -0.428  35.688  0.00  0.00    +0.198 C 
ENDBRANCH  30  42
BRANCH  32  44
ATOM     44  O   UNL     1       7.860   4.388  32.536  0.00  0.00    -0.390 OA
ATOM     45  H   UNL     1       7.730   4.614  31.612  0.00  0.00    +0.210 HD
ENDBRANCH  32  44
ENDBRANCH  27  28
BRANCH  27  46
ATOM     46  O   UNL     1       5.075   2.909  37.123  0.00  0.00    -0.387 OA
ATOM     47  H   UNL     1       5.979   3.228  37.081  0.00  0.00    +0.210 HD
ENDBRANCH  27  46
ENDBRANCH   1  27
TORSDOF 15
