REMARK VINA RESULT:    -7.239      2.855      4.650
REMARK INTER + INTRA:         -17.061
REMARK INTER:                 -13.525
REMARK INTRA:                  -3.536
REMARK UNBOUND:                -3.474
REMARK  Name = lig_assembled_34.pdb
REMARK  19 active torsions:
REMARK  status: ('A' for Active; 'I' for Inactive)
REMARK    1  A    between atoms: _2  and  _9
REMARK    2  A    between atoms: _4  and  _37
REMARK    3  A    between atoms: _6  and  _7
REMARK    4  A    between atoms: _6  and  _37
REMARK    5  A    between atoms: _11  and  _12
REMARK    6  A    between atoms: _13  and  _14
REMARK    7  A    between atoms: _18  and  _31
REMARK    8  A    between atoms: _33  and  _53
REMARK    9  A    between atoms: _35  and  _41
REMARK   10  A    between atoms: _36  and  _40
REMARK   11  A    between atoms: _40  and  _41
REMARK   12  A    between atoms: _43  and  _44
REMARK   13  A    between atoms: _45  and  _46
REMARK   14  A    between atoms: _47  and  _49
REMARK   15  A    between atoms: _49  and  _50
REMARK   16  A    between atoms: _49  and  _51
REMARK   17  A    between atoms: _51  and  _52
REMARK   18  A    between atoms: _51  and  _53
REMARK   19  A    between atoms: _54  and  _56
REMARK                            x       y       z     vdW  Elec       q    Type
REMARK                         _______ _______ _______ _____ _____    ______ ____
ROOT
ATOM      1  N   UNL     1      -0.227  22.898  16.820  0.00  0.00    -0.131 NA
ATOM      2  C   UNL     1      -0.329  21.663  16.245  0.00  0.00    +0.121 A 
ATOM      3  C   UNL     1      -0.871  20.792  17.156  0.00  0.00    +0.143 A 
ATOM      4  N   UNL     1      -1.120  21.544  18.284  0.00  0.00    -0.220 N 
ATOM      5  N   UNL     1      -0.695  22.817  18.064  0.00  0.00    -0.060 NA
ENDROOT
BRANCH   4   6
ATOM      6  C   UNL     1      -1.754  21.133  19.487  0.00  0.00    +0.068 A 
ATOM      7  C   UNL     1      -1.211  20.081  20.231  0.00  0.00    +0.038 A 
ATOM      8  C   UNL     1      -1.857  19.536  21.368  0.00  0.00    +0.007 A 
ATOM      9  C   UNL     1      -3.058  20.128  21.808  0.00  0.00    -0.008 A 
ATOM     10  C   UNL     1      -3.576  21.225  21.077  0.00  0.00    +0.011 A 
ATOM     11  C   UNL     1      -2.945  21.715  19.921  0.00  0.00    +0.028 A 
BRANCH   9  12
ATOM     12  C   UNL     1      -3.882  19.631  22.957  0.00  0.00    +0.004 A 
ATOM     13  C   UNL     1      -3.806  20.181  24.202  0.00  0.00    +0.026 A 
ATOM     14  C   UNL     1      -2.870  21.262  24.536  0.00  0.00    +0.016 A 
ATOM     15  C   UNL     1      -2.679  21.658  25.804  0.00  0.00    +0.051 A 
ATOM     16  C   UNL     1      -3.440  21.035  26.913  0.00  0.00    +0.183 A 
ATOM     17  O   UNL     1      -3.228  21.342  28.083  0.00  0.00    -0.288 OA
ATOM     18  C   UNL     1      -4.513  20.087  26.553  0.00  0.00    +0.097 A 
ATOM     19  C   UNL     1      -4.701  19.719  25.280  0.00  0.00    +0.140 A 
ATOM     20  O   UNL     1      -5.807  18.938  24.977  0.00  0.00    -0.455 OA
ATOM     21  C   UNL     1      -5.874  18.349  23.742  0.00  0.00    +0.140 A 
ATOM     22  C   UNL     1      -6.959  17.500  23.521  0.00  0.00    +0.092 A 
ATOM     23  C   UNL     1      -7.058  16.825  22.314  0.00  0.00    +0.120 A 
ATOM     24  C   UNL     1      -6.048  16.928  21.363  0.00  0.00    +0.046 A 
ATOM     25  C   UNL     1      -4.974  17.792  21.595  0.00  0.00    +0.016 A 
ATOM     26  C   UNL     1      -4.906  18.564  22.764  0.00  0.00    +0.026 A 
BRANCH  23  27
ATOM     27  O   UNL     1      -8.171  16.073  22.084  0.00  0.00    -0.507 OA
ATOM     28  H   UNL     1      -7.921  15.140  22.186  0.00  0.00    +0.292 HD
ENDBRANCH  23  27
ENDBRANCH   9  12
BRANCH   8  29
ATOM     29  C   UNL     1      -1.228  18.296  21.973  0.00  0.00    +0.072 C 
ATOM     30  O   UNL     1      -0.237  18.492  22.747  0.00  0.00    -0.545 OA
ATOM     31  O   UNL     1      -1.670  17.164  21.617  0.00  0.00    -0.545 OA
ENDBRANCH   8  29
ENDBRANCH   4   6
BRANCH   2  32
ATOM     32  C   UNL     1       0.100  21.399  14.857  0.00  0.00    +0.292 C 
BRANCH  32  33
ATOM     33  O   UNL     1       1.058  22.370  14.428  0.00  0.00    -0.444 OA
BRANCH  33  34
ATOM     34  C   UNL     1       2.238  21.706  13.968  0.00  0.00    +0.401 C 
ATOM     35  O   UNL     1       3.231  22.379  13.683  0.00  0.00    -0.226 OA
ATOM     36  N   UNL     1       2.188  20.376  13.880  0.00  0.00    -0.279 N 
ATOM     37  H   UNL     1       1.331  19.912  14.146  0.00  0.00    +0.152 HD
BRANCH  36  38
ATOM     38  C   UNL     1       3.308  19.548  13.418  0.00  0.00    +0.141 C 
BRANCH  38  39
ATOM     39  C   UNL     1       2.957  18.771  12.153  0.00  0.00    +0.163 C 
BRANCH  39  40
ATOM     40  O   UNL     1       3.352  17.397  12.295  0.00  0.00    -0.388 OA
ATOM     41  H   UNL     1       3.454  17.187  13.227  0.00  0.00    +0.210 HD
ENDBRANCH  39  40
BRANCH  39  42
ATOM     42  C   UNL     1       1.447  18.885  11.883  0.00  0.00    +0.175 C 
BRANCH  42  43
ATOM     43  C   UNL     1       0.836  17.545  11.447  0.00  0.00    +0.176 C 
ATOM     44  O   UNL     1       1.369  17.216  10.135  0.00  0.00    -0.332 OA
ATOM     45  C   UNL     1       0.975  15.909   9.600  0.00  0.00    +0.277 C 
ATOM     46  C   UNL     1      -0.567  15.772   9.587  0.00  0.00    +0.110 C 
ATOM     47  C   UNL     1      -1.183  16.143  10.953  0.00  0.00    +0.143 C 
ATOM     48  C   UNL     1      -0.704  17.519  11.416  0.00  0.00    +0.133 C 
BRANCH  48  49
ATOM     49  N   UNL     1      -1.228  17.823  12.757  0.00  0.00    -0.308 N 
ATOM     50  H   UNL     1      -0.970  17.207  13.515  0.00  0.00    +0.149 HD
ATOM     51  C   UNL     1      -2.021  18.861  13.037  0.00  0.00    +0.210 C 
ATOM     52  C   UNL     1      -2.415  19.767  11.856  0.00  0.00    +0.109 C 
ATOM     53  O   UNL     1      -2.432  19.100  14.173  0.00  0.00    -0.276 OA
ENDBRANCH  48  49
BRANCH  45  54
ATOM     54  C   UNL     1       1.587  14.768  10.438  0.00  0.00    +0.414 C 
ATOM     55  O   UNL     1       0.895  13.810  10.780  0.00  0.00    -0.240 OA
ATOM     56  O   UNL     1       2.772  14.805  10.773  0.00  0.00    -0.240 OA
ENDBRANCH  45  54
BRANCH  47  57
ATOM     57  O   UNL     1      -2.607  16.149  10.854  0.00  0.00    -0.390 OA
ATOM     58  H   UNL     1      -2.954  16.946  11.263  0.00  0.00    +0.210 HD
ENDBRANCH  47  57
BRANCH  45  59
ATOM     59  O   UNL     1       1.453  15.821   8.233  0.00  0.00    -0.343 OA
ATOM     60  C   UNL     1       1.650  17.096   7.570  0.00  0.00    +0.198 C 
ENDBRANCH  45  59
ENDBRANCH  42  43
BRANCH  42  61
ATOM     61  O   UNL     1       1.196  19.894  10.884  0.00  0.00    -0.387 OA
ATOM     62  H   UNL     1       2.008  20.082  10.408  0.00  0.00    +0.210 HD
ENDBRANCH  42  61
ENDBRANCH  39  42
ENDBRANCH  38  39
ENDBRANCH  36  38
ENDBRANCH  33  34
ENDBRANCH  32  33
ENDBRANCH   2  32
TORSDOF 17
