REMARK VINA RESULT:    -6.053     21.806     24.763
REMARK INTER + INTRA:         -12.329
REMARK INTER:                  -9.928
REMARK INTRA:                  -2.401
REMARK UNBOUND:                -1.853
REMARK  Name = lig_assembled_86.pdb
REMARK  17 active torsions:
REMARK  status: ('A' for Active; 'I' for Inactive)
REMARK    1  A    between atoms: _2  and  _10
REMARK    2  A    between atoms: _3  and  _13
REMARK    3  A    between atoms: _5  and  _21
REMARK    4  A    between atoms: _7  and  _8
REMARK    5  A    between atoms: _7  and  _21
REMARK    6  A    between atoms: _17  and  _37
REMARK    7  A    between atoms: _19  and  _25
REMARK    8  A    between atoms: _20  and  _24
REMARK    9  A    between atoms: _24  and  _25
REMARK   10  A    between atoms: _27  and  _28
REMARK   11  A    between atoms: _29  and  _30
REMARK   12  A    between atoms: _31  and  _33
REMARK   13  A    between atoms: _33  and  _34
REMARK   14  A    between atoms: _33  and  _35
REMARK   15  A    between atoms: _35  and  _36
REMARK   16  A    between atoms: _35  and  _37
REMARK   17  A    between atoms: _38  and  _40
REMARK                            x       y       z     vdW  Elec       q    Type
REMARK                         _______ _______ _______ _____ _____    ______ ____
ROOT
ATOM      1  C   UNL     1       2.101  16.238   8.759  0.00  0.00    +0.163 C 
ENDROOT
BRANCH   1   2
ATOM      2  O   UNL     1       1.702  15.733   7.474  0.00  0.00    -0.388 OA
ATOM      3  H   UNL     1       1.892  16.389   6.799  0.00  0.00    +0.210 HD
ENDBRANCH   1   2
BRANCH   1   4
ATOM      4  C   UNL     1       3.471  16.900   8.657  0.00  0.00    +0.141 C 
BRANCH   4   7
ATOM      5  C   UNL     1       4.872  17.077   6.629  0.00  0.00    +0.401 C 
ATOM      6  O   UNL     1       4.811  18.308   6.581  0.00  0.00    -0.226 OA
ATOM      7  N   UNL     1       4.271  16.338   7.562  0.00  0.00    -0.279 N 
ATOM      8  H   UNL     1       4.371  15.333   7.512  0.00  0.00    +0.152 HD
BRANCH   5   9
ATOM      9  O   UNL     1       5.623  16.380   5.633  0.00  0.00    -0.444 OA
BRANCH   9  10
ATOM     10  C   UNL     1       4.747  15.951   4.587  0.00  0.00    +0.292 C 
BRANCH  10  12
ATOM     11  N   UNL     1       3.590  13.934   5.449  0.00  0.00    -0.131 NA
ATOM     12  C   UNL     1       4.555  14.489   4.651  0.00  0.00    +0.120 A 
ATOM     13  C   UNL     1       5.216  13.484   3.986  0.00  0.00    +0.137 A 
ATOM     14  N   UNL     1       4.587  12.347   4.393  0.00  0.00    -0.248 N 
ATOM     15  N   UNL     1       3.629  12.617   5.297  0.00  0.00    -0.065 NA
BRANCH  14  16
ATOM     16  C   UNL     1       4.848  10.986   3.949  0.00  0.00    +0.112 C 
ATOM     17  C   UNL     1       5.732  10.216   4.951  0.00  0.00    +0.045 C 
ATOM     18  C   UNL     1       5.242   8.802   5.279  0.00  0.00    +0.059 C 
ATOM     19  C   UNL     1       4.053   8.840   6.244  0.00  0.00    +0.020 C 
ATOM     20  C   UNL     1       2.823   8.804   5.340  0.00  0.00    +0.020 C 
ATOM     21  C   UNL     1       3.391   8.833   3.919  0.00  0.00    +0.059 C 
ATOM     22  N   UNL     1       4.654   8.125   4.124  0.00  0.00    -0.299 NA
ATOM     23  C   UNL     1       5.501   7.965   2.957  0.00  0.00    +0.105 C 
ATOM     24  C   UNL     1       3.581  10.273   3.423  0.00  0.00    +0.045 C 
ENDBRANCH  14  16
ENDBRANCH  10  12
ENDBRANCH   9  10
ENDBRANCH   5   9
ENDBRANCH   4   7
ENDBRANCH   1   4
BRANCH   1  25
ATOM     25  C   UNL     1       2.152  15.109   9.803  0.00  0.00    +0.175 C 
BRANCH  25  26
ATOM     26  C   UNL     1       0.906  15.094  10.700  0.00  0.00    +0.176 C 
ATOM     27  O   UNL     1      -0.229  14.699   9.882  0.00  0.00    -0.332 OA
ATOM     28  C   UNL     1      -1.497  14.527  10.598  0.00  0.00    +0.277 C 
ATOM     29  C   UNL     1      -1.847  15.808  11.395  0.00  0.00    +0.110 C 
ATOM     30  C   UNL     1      -0.658  16.285  12.256  0.00  0.00    +0.143 C 
ATOM     31  C   UNL     1       0.609  16.427  11.412  0.00  0.00    +0.133 C 
BRANCH  31  32
ATOM     32  N   UNL     1       1.754  16.798  12.259  0.00  0.00    -0.308 N 
ATOM     33  H   UNL     1       2.101  16.108  12.910  0.00  0.00    +0.149 HD
ATOM     34  C   UNL     1       2.363  17.986  12.223  0.00  0.00    +0.210 C 
ATOM     35  C   UNL     1       1.794  19.024  11.237  0.00  0.00    +0.109 C 
ATOM     36  O   UNL     1       3.330  18.263  12.934  0.00  0.00    -0.276 OA
ENDBRANCH  31  32
BRANCH  28  37
ATOM     37  C   UNL     1      -1.422  13.325  11.562  0.00  0.00    +0.414 C 
ATOM     38  O   UNL     1      -0.897  12.272  11.201  0.00  0.00    -0.240 OA
ATOM     39  O   UNL     1      -1.886  13.407  12.700  0.00  0.00    -0.240 OA
ENDBRANCH  28  37
BRANCH  30  40
ATOM     40  O   UNL     1      -0.970  17.545  12.852  0.00  0.00    -0.390 OA
ATOM     41  H   UNL     1      -0.182  18.093  12.874  0.00  0.00    +0.210 HD
ENDBRANCH  30  40
BRANCH  28  42
ATOM     42  O   UNL     1      -2.540  14.301   9.615  0.00  0.00    -0.343 OA
ATOM     43  C   UNL     1      -3.688  15.181   9.727  0.00  0.00    +0.198 C 
ENDBRANCH  28  42
ENDBRANCH  25  26
BRANCH  25  44
ATOM     44  O   UNL     1       3.342  15.229  10.607  0.00  0.00    -0.387 OA
ATOM     45  H   UNL     1       4.116  15.212  10.039  0.00  0.00    +0.210 HD
ENDBRANCH  25  44
ENDBRANCH   1  25
TORSDOF 14
