REMARK VINA RESULT:    -5.808      7.068      9.931
REMARK INTER + INTRA:         -13.712
REMARK INTER:                 -11.663
REMARK INTRA:                  -2.048
REMARK UNBOUND:                -2.640
REMARK  Name = lig_assembled_29.pdb
REMARK  21 active torsions:
REMARK  status: ('A' for Active; 'I' for Inactive)
REMARK    1  A    between atoms: _2  and  _9
REMARK    2  A    between atoms: _4  and  _23
REMARK    3  A    between atoms: _6  and  _7
REMARK    4  A    between atoms: _6  and  _23
REMARK    5  A    between atoms: _9  and  _10
REMARK    6  A    between atoms: _12  and  _18
REMARK    7  A    between atoms: _13  and  _18
REMARK    8  A    between atoms: _14  and  _17
REMARK    9  A    between atoms: _15  and  _17
REMARK   10  A    between atoms: _19  and  _39
REMARK   11  A    between atoms: _21  and  _27
REMARK   12  A    between atoms: _22  and  _26
REMARK   13  A    between atoms: _26  and  _27
REMARK   14  A    between atoms: _29  and  _30
REMARK   15  A    between atoms: _31  and  _32
REMARK   16  A    between atoms: _33  and  _35
REMARK   17  A    between atoms: _35  and  _36
REMARK   18  A    between atoms: _35  and  _37
REMARK   19  A    between atoms: _37  and  _38
REMARK   20  A    between atoms: _37  and  _39
REMARK   21  A    between atoms: _40  and  _42
REMARK                            x       y       z     vdW  Elec       q    Type
REMARK                         _______ _______ _______ _____ _____    ______ ____
ROOT
ATOM      1  C   UNL     1       6.184   3.169  33.498  0.00  0.00    +0.163 C 
ENDROOT
BRANCH   1   2
ATOM      2  O   UNL     1       6.062   1.964  34.271  0.00  0.00    -0.388 OA
ATOM      3  H   UNL     1       5.185   1.919  34.659  0.00  0.00    +0.210 HD
ENDBRANCH   1   2
BRANCH   1   4
ATOM      4  C   UNL     1       7.662   3.529  33.268  0.00  0.00    +0.175 C 
BRANCH   4   5
ATOM      5  C   UNL     1       8.434   3.671  34.588  0.00  0.00    +0.176 C 
ATOM      6  O   UNL     1       8.650   2.337  35.125  0.00  0.00    -0.332 OA
ATOM      7  C   UNL     1       9.469   2.268  36.339  0.00  0.00    +0.277 C 
ATOM      8  C   UNL     1       8.885   3.187  37.439  0.00  0.00    +0.110 C 
ATOM      9  C   UNL     1       8.609   4.608  36.906  0.00  0.00    +0.143 C 
ATOM     10  C   UNL     1       7.751   4.563  35.641  0.00  0.00    +0.133 C 
BRANCH  10  11
ATOM     11  N   UNL     1       7.567   5.916  35.094  0.00  0.00    -0.308 N 
ATOM     12  H   UNL     1       8.366   6.365  34.668  0.00  0.00    +0.149 HD
ATOM     13  C   UNL     1       6.415   6.591  35.125  0.00  0.00    +0.210 C 
ATOM     14  C   UNL     1       5.224   5.890  35.806  0.00  0.00    +0.109 C 
ATOM     15  O   UNL     1       6.286   7.718  34.646  0.00  0.00    -0.276 OA
ENDBRANCH  10  11
BRANCH   7  16
ATOM     16  C   UNL     1      10.925   2.682  36.040  0.00  0.00    +0.414 C 
ATOM     17  O   UNL     1      11.711   2.895  36.963  0.00  0.00    -0.240 OA
ATOM     18  O   UNL     1      11.314   2.803  34.878  0.00  0.00    -0.240 OA
ENDBRANCH   7  16
BRANCH   7  19
ATOM     19  O   UNL     1       9.440   0.900  36.822  0.00  0.00    -0.343 OA
ATOM     20  C   UNL     1       9.678  -0.112  35.811  0.00  0.00    +0.198 C 
ENDBRANCH   7  19
BRANCH   9  21
ATOM     21  O   UNL     1       7.934   5.374  37.905  0.00  0.00    -0.390 OA
ATOM     22  H   UNL     1       8.352   6.235  37.986  0.00  0.00    +0.210 HD
ENDBRANCH   9  21
ENDBRANCH   4   5
BRANCH   4  23
ATOM     23  O   UNL     1       7.763   4.745  32.500  0.00  0.00    -0.387 OA
ATOM     24  H   UNL     1       8.067   5.457  33.067  0.00  0.00    +0.210 HD
ENDBRANCH   4  23
ENDBRANCH   1   4
BRANCH   1  25
ATOM     25  C   UNL     1       5.486   2.999  32.153  0.00  0.00    +0.141 C 
BRANCH  25  28
ATOM     26  C   UNL     1       3.067   3.046  32.658  0.00  0.00    +0.401 C 
ATOM     27  O   UNL     1       3.060   1.930  33.183  0.00  0.00    -0.226 OA
ATOM     28  N   UNL     1       4.155   3.620  32.144  0.00  0.00    -0.279 N 
ATOM     29  H   UNL     1       4.059   4.535  31.725  0.00  0.00    +0.152 HD
BRANCH  26  30
ATOM     30  O   UNL     1       1.846   3.785  32.580  0.00  0.00    -0.444 OA
BRANCH  30  31
ATOM     31  C   UNL     1       1.702   4.332  31.266  0.00  0.00    +0.292 C 
BRANCH  31  33
ATOM     32  N   UNL     1       0.063   2.678  30.412  0.00  0.00    -0.131 NA
ATOM     33  C   UNL     1       1.287   3.286  30.314  0.00  0.00    +0.120 A 
ATOM     34  C   UNL     1       1.957   2.774  29.225  0.00  0.00    +0.137 A 
ATOM     35  N   UNL     1       1.050   1.930  28.651  0.00  0.00    -0.247 N 
ATOM     36  N   UNL     1      -0.068   1.840  29.392  0.00  0.00    -0.065 NA
BRANCH  35  37
ATOM     37  C   UNL     1       1.160   1.225  27.388  0.00  0.00    +0.180 C 
BRANCH  37  38
ATOM     38  C   UNL     1       1.322   2.197  26.242  0.00  0.00    -0.022 A 
ATOM     39  C   UNL     1       0.488   3.325  26.149  0.00  0.00    +0.054 A 
ATOM     40  C   UNL     1       0.679   4.276  25.136  0.00  0.00    +0.162 A 
ATOM     41  C   UNL     1       1.713   4.093  24.196  0.00  0.00    +0.162 A 
ATOM     42  C   UNL     1       2.540   2.971  24.291  0.00  0.00    +0.050 A 
ATOM     43  C   UNL     1       2.345   2.029  25.304  0.00  0.00    +0.009 A 
BRANCH  40  44
ATOM     44  O   UNL     1      -0.077   5.413  24.989  0.00  0.00    -0.491 OA
ATOM     45  C   UNL     1      -1.302   5.491  25.705  0.00  0.00    +0.277 C 
ENDBRANCH  40  44
BRANCH  41  46
ATOM     46  O   UNL     1       1.832   5.064  23.231  0.00  0.00    -0.491 OA
ATOM     47  C   UNL     1       1.785   4.654  21.872  0.00  0.00    +0.277 C 
ENDBRANCH  41  46
ENDBRANCH  37  38
ENDBRANCH  35  37
ENDBRANCH  31  33
ENDBRANCH  30  31
ENDBRANCH  26  30
ENDBRANCH  25  28
ENDBRANCH   1  25
TORSDOF 17
