REMARK VINA RESULT:    -5.522      9.138     13.068
REMARK INTER + INTRA:         -13.011
REMARK INTER:                 -11.122
REMARK INTRA:                  -1.889
REMARK UNBOUND:                -2.970
REMARK  Name = lig_assembled_22.pdb
REMARK  20 active torsions:
REMARK  status: ('A' for Active; 'I' for Inactive)
REMARK    1  A    between atoms: _2  and  _9
REMARK    2  A    between atoms: _4  and  _18
REMARK    3  A    between atoms: _5  and  _9
REMARK    4  A    between atoms: _5  and  _12
REMARK    5  A    between atoms: _6  and  _7
REMARK    6  A    between atoms: _6  and  _18
REMARK    7  A    between atoms: _9  and  _10
REMARK    8  A    between atoms: _9  and  _11
REMARK    9  A    between atoms: _14  and  _34
REMARK   10  A    between atoms: _16  and  _22
REMARK   11  A    between atoms: _17  and  _21
REMARK   12  A    between atoms: _21  and  _22
REMARK   13  A    between atoms: _24  and  _25
REMARK   14  A    between atoms: _26  and  _27
REMARK   15  A    between atoms: _28  and  _30
REMARK   16  A    between atoms: _30  and  _31
REMARK   17  A    between atoms: _30  and  _32
REMARK   18  A    between atoms: _32  and  _33
REMARK   19  A    between atoms: _32  and  _34
REMARK   20  A    between atoms: _35  and  _37
REMARK                            x       y       z     vdW  Elec       q    Type
REMARK                         _______ _______ _______ _____ _____    ______ ____
ROOT
ATOM      1  C   UNL     1       9.247   4.976  38.139  0.00  0.00    +0.163 C 
ENDROOT
BRANCH   1   2
ATOM      2  O   UNL     1       9.244   6.280  37.536  0.00  0.00    -0.388 OA
ATOM      3  H   UNL     1      10.087   6.710  37.696  0.00  0.00    +0.210 HD
ENDBRANCH   1   2
BRANCH   1   4
ATOM      4  C   UNL     1      10.681   4.515  38.376  0.00  0.00    +0.141 C 
BRANCH   4   7
ATOM      5  C   UNL     1      12.711   4.869  37.011  0.00  0.00    +0.401 C 
ATOM      6  O   UNL     1      13.360   5.364  37.936  0.00  0.00    -0.226 OA
ATOM      7  N   UNL     1      11.450   4.451  37.127  0.00  0.00    -0.279 N 
ATOM      8  H   UNL     1      10.997   4.068  36.308  0.00  0.00    +0.152 HD
BRANCH   5   9
ATOM      9  O   UNL     1      13.325   4.731  35.727  0.00  0.00    -0.444 OA
BRANCH   9  10
ATOM     10  C   UNL     1      14.738   4.913  35.851  0.00  0.00    +0.292 C 
BRANCH  10  12
ATOM     11  N   UNL     1      15.082   5.738  33.550  0.00  0.00    -0.131 NA
ATOM     12  C   UNL     1      15.206   5.934  34.896  0.00  0.00    +0.120 A 
ATOM     13  C   UNL     1      15.800   7.158  35.118  0.00  0.00    +0.138 A 
ATOM     14  N   UNL     1      16.014   7.660  33.864  0.00  0.00    -0.235 N 
ATOM     15  N   UNL     1      15.581   6.794  32.928  0.00  0.00    -0.064 NA
BRANCH  14  16
ATOM     16  C   UNL     1      16.634   8.924  33.464  0.00  0.00    +0.155 C 
ATOM     17  C   UNL     1      17.497   8.773  32.192  0.00  0.00    +0.048 C 
ATOM     18  C   UNL     1      17.538   9.416  34.609  0.00  0.00    +0.048 C 
BRANCH  16  19
ATOM     19  C   UNL     1      15.560   9.975  33.169  0.00  0.00    +0.332 C 
ATOM     20  O   UNL     1      15.778  11.178  33.085  0.00  0.00    -0.248 OA
BRANCH  19  21
ATOM     21  O   UNL     1      14.306   9.490  32.999  0.00  0.00    -0.479 OA
ATOM     22  H   UNL     1      13.599  10.150  32.866  0.00  0.00    +0.295 HD
ENDBRANCH  19  21
ENDBRANCH  16  19
ENDBRANCH  14  16
ENDBRANCH  10  12
ENDBRANCH   9  10
ENDBRANCH   5   9
ENDBRANCH   4   7
ENDBRANCH   1   4
BRANCH   1  23
ATOM     23  C   UNL     1       8.520   3.955  37.248  0.00  0.00    +0.175 C 
BRANCH  23  24
ATOM     24  C   UNL     1       7.987   4.592  35.956  0.00  0.00    +0.176 C 
ATOM     25  O   UNL     1       6.614   5.006  36.194  0.00  0.00    -0.332 OA
ATOM     26  C   UNL     1       5.971   5.735  35.097  0.00  0.00    +0.277 C 
ATOM     27  C   UNL     1       6.051   4.917  33.784  0.00  0.00    +0.110 C 
ATOM     28  C   UNL     1       7.487   4.428  33.504  0.00  0.00    +0.143 C 
ATOM     29  C   UNL     1       8.060   3.686  34.713  0.00  0.00    +0.133 C 
BRANCH  29  30
ATOM     30  N   UNL     1       9.458   3.301  34.466  0.00  0.00    -0.308 N 
ATOM     31  H   UNL     1      10.101   4.023  34.169  0.00  0.00    +0.149 HD
ATOM     32  C   UNL     1       9.934   2.061  34.609  0.00  0.00    +0.210 C 
ATOM     33  C   UNL     1       8.925   0.980  35.037  0.00  0.00    +0.109 C 
ATOM     34  O   UNL     1      11.114   1.771  34.409  0.00  0.00    -0.276 OA
ENDBRANCH  29  30
BRANCH  26  35
ATOM     35  C   UNL     1       6.639   7.110  34.888  0.00  0.00    +0.414 C 
ATOM     36  O   UNL     1       6.011   8.032  34.369  0.00  0.00    -0.240 OA
ATOM     37  O   UNL     1       7.804   7.298  35.240  0.00  0.00    -0.240 OA
ENDBRANCH  26  35
BRANCH  26  38
ATOM     38  O   UNL     1       4.573   5.918  35.437  0.00  0.00    -0.343 OA
ATOM     39  C   UNL     1       4.218   5.541  36.792  0.00  0.00    +0.198 C 
ENDBRANCH  26  38
BRANCH  28  40
ATOM     40  O   UNL     1       7.488   3.556  32.373  0.00  0.00    -0.390 OA
ATOM     41  H   UNL     1       6.619   3.161  32.273  0.00  0.00    +0.210 HD
ENDBRANCH  28  40
ENDBRANCH  23  24
BRANCH  23  42
ATOM     42  O   UNL     1       7.441   3.337  37.978  0.00  0.00    -0.387 OA
ATOM     43  H   UNL     1       7.646   3.343  38.916  0.00  0.00    +0.210 HD
ENDBRANCH  23  42
ENDBRANCH   1  23
TORSDOF 16
