REMARK VINA RESULT:    -6.839      5.647      8.050
REMARK INTER + INTRA:         -14.111
REMARK INTER:                 -11.648
REMARK INTRA:                  -2.463
REMARK UNBOUND:                -1.875
REMARK  Name = lig_assembled_82.pdb
REMARK  19 active torsions:
REMARK  status: ('A' for Active; 'I' for Inactive)
REMARK    1  A    between atoms: _2  and  _9
REMARK    2  A    between atoms: _4  and  _22
REMARK    3  A    between atoms: _5  and  _16
REMARK    4  A    between atoms: _6  and  _7
REMARK    5  A    between atoms: _6  and  _22
REMARK    6  A    between atoms: _9  and  _10
REMARK    7  A    between atoms: _16  and  _17
REMARK    8  A    between atoms: _18  and  _38
REMARK    9  A    between atoms: _20  and  _26
REMARK   10  A    between atoms: _21  and  _25
REMARK   11  A    between atoms: _25  and  _26
REMARK   12  A    between atoms: _28  and  _29
REMARK   13  A    between atoms: _30  and  _31
REMARK   14  A    between atoms: _32  and  _34
REMARK   15  A    between atoms: _34  and  _35
REMARK   16  A    between atoms: _34  and  _36
REMARK   17  A    between atoms: _36  and  _37
REMARK   18  A    between atoms: _36  and  _38
REMARK   19  A    between atoms: _39  and  _41
REMARK                            x       y       z     vdW  Elec       q    Type
REMARK                         _______ _______ _______ _____ _____    ______ ____
ROOT
ATOM      1  C   UNL     1       8.010   2.450  34.257  0.00  0.00    +0.163 C 
ENDROOT
BRANCH   1   2
ATOM      2  O   UNL     1       8.789   2.742  35.429  0.00  0.00    -0.388 OA
ATOM      3  H   UNL     1       8.260   3.253  36.046  0.00  0.00    +0.210 HD
ENDBRANCH   1   2
BRANCH   1   4
ATOM      4  C   UNL     1       8.642   1.297  33.484  0.00  0.00    +0.141 C 
BRANCH   4   7
ATOM      5  C   UNL     1       7.211  -0.695  33.782  0.00  0.00    +0.401 C 
ATOM      6  O   UNL     1       7.619  -0.934  34.921  0.00  0.00    -0.226 OA
ATOM      7  N   UNL     1       7.639   0.323  33.035  0.00  0.00    -0.279 N 
ATOM      8  H   UNL     1       7.252   0.431  32.109  0.00  0.00    +0.152 HD
BRANCH   5   9
ATOM      9  O   UNL     1       6.223  -1.552  33.205  0.00  0.00    -0.444 OA
BRANCH   9  10
ATOM     10  C   UNL     1       6.859  -2.519  32.366  0.00  0.00    +0.292 C 
BRANCH  10  12
ATOM     11  N   UNL     1       6.571  -1.171  30.311  0.00  0.00    -0.131 NA
ATOM     12  C   UNL     1       6.429  -2.369  30.972  0.00  0.00    +0.120 A 
ATOM     13  C   UNL     1       5.845  -3.278  30.110  0.00  0.00    +0.137 A 
ATOM     14  N   UNL     1       5.541  -2.540  29.001  0.00  0.00    -0.247 N 
ATOM     15  N   UNL     1       6.060  -1.301  29.095  0.00  0.00    -0.065 NA
BRANCH  14  16
ATOM     16  C   UNL     1       4.693  -2.908  27.864  0.00  0.00    +0.176 C 
BRANCH  16  17
ATOM     17  C   UNL     1       5.393  -2.735  26.538  0.00  0.00    -0.049 C 
ATOM     18  C   UNL     1       6.676  -3.475  26.327  0.00  0.00    +0.023 C 
ATOM     19  C   UNL     1       6.991  -4.047  24.872  0.00  0.00    -0.025 C 
ATOM     20  C   UNL     1       6.063  -4.596  23.780  0.00  0.00    +0.012 C 
ATOM     21  C   UNL     1       7.305  -2.507  24.574  0.00  0.00    -0.000 C 
ATOM     22  C   UNL     1       6.042  -1.602  24.421  0.00  0.00    +0.031 C 
ATOM     23  C   UNL     1       8.047  -5.152  25.128  0.00  0.00    +0.012 C 
ATOM     24  C   UNL     1       7.832  -2.436  26.032  0.00  0.00    +0.012 C 
ATOM     25  C   UNL     1       5.084  -1.845  25.576  0.00  0.00    -0.025 C 
ENDBRANCH  16  17
ENDBRANCH  14  16
ENDBRANCH  10  12
ENDBRANCH   9  10
ENDBRANCH   5   9
ENDBRANCH   4   7
ENDBRANCH   1   4
BRANCH   1  26
ATOM     26  C   UNL     1       7.904   3.684  33.345  0.00  0.00    +0.175 C 
BRANCH  26  27
ATOM     27  C   UNL     1       7.047   4.794  33.971  0.00  0.00    +0.176 C 
ATOM     28  O   UNL     1       7.801   5.376  35.069  0.00  0.00    -0.332 OA
ATOM     29  C   UNL     1       7.179   6.531  35.723  0.00  0.00    +0.277 C 
ATOM     30  C   UNL     1       5.749   6.177  36.200  0.00  0.00    +0.110 C 
ATOM     31  C   UNL     1       4.919   5.526  35.075  0.00  0.00    +0.143 C 
ATOM     32  C   UNL     1       5.661   4.337  34.462  0.00  0.00    +0.133 C 
BRANCH  32  33
ATOM     33  N   UNL     1       4.898   3.779  33.334  0.00  0.00    -0.308 N 
ATOM     34  H   UNL     1       4.804   4.346  32.503  0.00  0.00    +0.149 HD
ATOM     35  C   UNL     1       4.323   2.574  33.337  0.00  0.00    +0.210 C 
ATOM     36  C   UNL     1       4.463   1.746  34.629  0.00  0.00    +0.109 C 
ATOM     37  O   UNL     1       3.703   2.126  32.372  0.00  0.00    -0.276 OA
ENDBRANCH  32  33
BRANCH  29  38
ATOM     38  C   UNL     1       7.119   7.737  34.763  0.00  0.00    +0.414 C 
ATOM     39  O   UNL     1       6.034   8.165  34.373  0.00  0.00    -0.240 OA
ATOM     40  O   UNL     1       8.155   8.281  34.379  0.00  0.00    -0.240 OA
ENDBRANCH  29  38
BRANCH  29  41
ATOM     41  O   UNL     1       7.978   6.872  36.886  0.00  0.00    -0.343 OA
ATOM     42  C   UNL     1       8.344   5.749  37.728  0.00  0.00    +0.198 C 
ENDBRANCH  29  41
BRANCH  31  43
ATOM     43  O   UNL     1       3.666   5.080  35.597  0.00  0.00    -0.390 OA
ATOM     44  H   UNL     1       2.952   5.564  35.175  0.00  0.00    +0.210 HD
ENDBRANCH  31  43
ENDBRANCH  26  27
BRANCH  26  45
ATOM     45  O   UNL     1       7.369   3.307  32.060  0.00  0.00    -0.387 OA
ATOM     46  H   UNL     1       7.844   3.771  31.367  0.00  0.00    +0.210 HD
ENDBRANCH  26  45
ENDBRANCH   1  26
TORSDOF 15
