REMARK VINA RESULT:    -6.559      4.738      6.978
REMARK INTER + INTRA:         -13.413
REMARK INTER:                 -10.331
REMARK INTRA:                  -3.082
REMARK UNBOUND:                -1.294
REMARK  Name = lig_assembled_24.pdb
REMARK  19 active torsions:
REMARK  status: ('A' for Active; 'I' for Inactive)
REMARK    1  A    between atoms: _2  and  _9
REMARK    2  A    between atoms: _4  and  _21
REMARK    3  A    between atoms: _6  and  _7
REMARK    4  A    between atoms: _6  and  _21
REMARK    5  A    between atoms: _9  and  _10
REMARK    6  A    between atoms: _13  and  _16
REMARK    7  A    between atoms: _14  and  _16
REMARK    8  A    between atoms: _17  and  _37
REMARK    9  A    between atoms: _19  and  _25
REMARK   10  A    between atoms: _20  and  _24
REMARK   11  A    between atoms: _24  and  _25
REMARK   12  A    between atoms: _27  and  _28
REMARK   13  A    between atoms: _29  and  _30
REMARK   14  A    between atoms: _31  and  _33
REMARK   15  A    between atoms: _33  and  _34
REMARK   16  A    between atoms: _33  and  _35
REMARK   17  A    between atoms: _35  and  _36
REMARK   18  A    between atoms: _35  and  _37
REMARK   19  A    between atoms: _38  and  _40
REMARK                            x       y       z     vdW  Elec       q    Type
REMARK                         _______ _______ _______ _____ _____    ______ ____
ROOT
ATOM      1  C   UNL     1       1.396  -0.045  29.586  0.00  0.00    +0.163 C 
ENDROOT
BRANCH   1   2
ATOM      2  O   UNL     1       1.500  -1.239  30.378  0.00  0.00    -0.388 OA
ATOM      3  H   UNL     1       1.604  -1.999  29.800  0.00  0.00    +0.210 HD
ENDBRANCH   1   2
BRANCH   1   4
ATOM      4  C   UNL     1       1.894  -0.291  28.152  0.00  0.00    +0.175 C 
BRANCH   4   5
ATOM      5  C   UNL     1       3.136  -1.194  28.118  0.00  0.00    +0.176 C 
ATOM      6  O   UNL     1       4.042  -0.746  29.164  0.00  0.00    -0.332 OA
ATOM      7  C   UNL     1       5.245  -1.563  29.352  0.00  0.00    +0.277 C 
ATOM      8  C   UNL     1       6.016  -1.706  28.017  0.00  0.00    +0.110 C 
ATOM      9  C   UNL     1       5.087  -2.149  26.867  0.00  0.00    +0.143 C 
ATOM     10  C   UNL     1       3.867  -1.233  26.763  0.00  0.00    +0.133 C 
BRANCH  10  11
ATOM     11  N   UNL     1       2.947  -1.716  25.722  0.00  0.00    -0.308 N 
ATOM     12  H   UNL     1       2.501  -2.612  25.865  0.00  0.00    +0.149 HD
ATOM     13  C   UNL     1       2.662  -1.049  24.600  0.00  0.00    +0.210 C 
ATOM     14  C   UNL     1       3.378   0.300  24.400  0.00  0.00    +0.109 C 
ATOM     15  O   UNL     1       1.876  -1.472  23.752  0.00  0.00    -0.276 OA
ENDBRANCH  10  11
BRANCH   7  16
ATOM     16  C   UNL     1       4.878  -2.962  29.888  0.00  0.00    +0.414 C 
ATOM     17  O   UNL     1       3.817  -3.139  30.486  0.00  0.00    -0.240 OA
ATOM     18  O   UNL     1       5.642  -3.914  29.722  0.00  0.00    -0.240 OA
ENDBRANCH   7  16
BRANCH   7  19
ATOM     19  O   UNL     1       6.103  -0.885  30.305  0.00  0.00    -0.343 OA
ATOM     20  C   UNL     1       5.409  -0.235  31.400  0.00  0.00    +0.198 C 
ENDBRANCH   7  19
BRANCH   9  21
ATOM     21  O   UNL     1       5.803  -2.122  25.632  0.00  0.00    -0.390 OA
ATOM     22  H   UNL     1       5.396  -2.732  25.012  0.00  0.00    +0.210 HD
ENDBRANCH   9  21
ENDBRANCH   4   5
BRANCH   4  23
ATOM     23  O   UNL     1       2.174   0.965  27.501  0.00  0.00    -0.387 OA
ATOM     24  H   UNL     1       2.948   0.869  26.941  0.00  0.00    +0.210 HD
ENDBRANCH   4  23
ENDBRANCH   1   4
BRANCH   1  25
ATOM     25  C   UNL     1      -0.053   0.432  29.548  0.00  0.00    +0.141 C 
BRANCH  25  28
ATOM     26  C   UNL     1      -0.107   2.895  29.360  0.00  0.00    +0.401 C 
ATOM     27  O   UNL     1       0.094   3.085  30.561  0.00  0.00    -0.226 OA
ATOM     28  N   UNL     1      -0.196   1.687  28.801  0.00  0.00    -0.279 N 
ATOM     29  H   UNL     1      -0.373   1.633  27.807  0.00  0.00    +0.152 HD
BRANCH  26  30
ATOM     30  O   UNL     1      -0.261   4.023  28.494  0.00  0.00    -0.444 OA
BRANCH  30  31
ATOM     31  C   UNL     1      -0.647   3.576  27.191  0.00  0.00    +0.292 C 
BRANCH  31  33
ATOM     32  N   UNL     1       1.673   3.779  26.352  0.00  0.00    -0.131 NA
ATOM     33  C   UNL     1       0.336   4.019  26.185  0.00  0.00    +0.120 A 
ATOM     34  C   UNL     1       0.142   4.674  24.989  0.00  0.00    +0.137 A 
ATOM     35  N   UNL     1       1.389   4.742  24.440  0.00  0.00    -0.247 N 
ATOM     36  N   UNL     1       2.311   4.234  25.283  0.00  0.00    -0.065 NA
BRANCH  35  37
ATOM     37  C   UNL     1       1.826   5.203  23.132  0.00  0.00    +0.180 C 
BRANCH  37  38
ATOM     38  C   UNL     1       1.781   4.156  22.045  0.00  0.00    -0.026 A 
ATOM     39  C   UNL     1       1.746   4.532  20.696  0.00  0.00    +0.009 A 
ATOM     40  C   UNL     1       1.706   3.556  19.696  0.00  0.00    +0.046 A 
ATOM     41  C   UNL     1       1.718   2.199  20.024  0.00  0.00    +0.120 A 
ATOM     42  C   UNL     1       1.728   1.819  21.363  0.00  0.00    +0.046 A 
ATOM     43  C   UNL     1       1.760   2.791  22.370  0.00  0.00    +0.009 A 
BRANCH  41  44
ATOM     44  O   UNL     1       1.655   1.339  18.962  0.00  0.00    -0.495 OA
ATOM     45  C   UNL     1       1.912   1.921  17.688  0.00  0.00    +0.277 C 
ENDBRANCH  41  44
ENDBRANCH  37  38
ENDBRANCH  35  37
ENDBRANCH  31  33
ENDBRANCH  30  31
ENDBRANCH  26  30
ENDBRANCH  25  28
ENDBRANCH   1  25
TORSDOF 16
