REMARK VINA RESULT:    -5.732     14.393     17.861
REMARK INTER + INTRA:         -13.019
REMARK INTER:                 -10.690
REMARK INTRA:                  -2.329
REMARK UNBOUND:                -2.094
REMARK  Name = lig_assembled_19.pdb
REMARK  20 active torsions:
REMARK  status: ('A' for Active; 'I' for Inactive)
REMARK    1  A    between atoms: _2  and  _9
REMARK    2  A    between atoms: _4  and  _18
REMARK    3  A    between atoms: _5  and  _11
REMARK    4  A    between atoms: _6  and  _7
REMARK    5  A    between atoms: _6  and  _18
REMARK    6  A    between atoms: _9  and  _10
REMARK    7  A    between atoms: _10  and  _13
REMARK    8  A    between atoms: _11  and  _13
REMARK    9  A    between atoms: _14  and  _34
REMARK   10  A    between atoms: _16  and  _22
REMARK   11  A    between atoms: _17  and  _21
REMARK   12  A    between atoms: _21  and  _22
REMARK   13  A    between atoms: _24  and  _25
REMARK   14  A    between atoms: _26  and  _27
REMARK   15  A    between atoms: _28  and  _30
REMARK   16  A    between atoms: _30  and  _31
REMARK   17  A    between atoms: _30  and  _32
REMARK   18  A    between atoms: _32  and  _33
REMARK   19  A    between atoms: _32  and  _34
REMARK   20  A    between atoms: _35  and  _37
REMARK                            x       y       z     vdW  Elec       q    Type
REMARK                         _______ _______ _______ _____ _____    ______ ____
ROOT
ATOM      1  C   UNL     1      16.981   2.506  22.974  0.00  0.00    +0.163 C 
ENDROOT
BRANCH   1   2
ATOM      2  O   UNL     1      17.498   1.624  21.964  0.00  0.00    -0.388 OA
ATOM      3  H   UNL     1      16.776   1.129  21.570  0.00  0.00    +0.210 HD
ENDBRANCH   1   2
BRANCH   1   4
ATOM      4  C   UNL     1      17.468   2.086  24.372  0.00  0.00    +0.175 C 
BRANCH   4   5
ATOM      5  C   UNL     1      17.902   0.614  24.414  0.00  0.00    +0.176 C 
ATOM      6  O   UNL     1      16.742  -0.204  24.098  0.00  0.00    -0.332 OA
ATOM      7  C   UNL     1      16.993  -1.644  23.987  0.00  0.00    +0.277 C 
ATOM      8  C   UNL     1      17.672  -2.175  25.273  0.00  0.00    +0.110 C 
ATOM      9  C   UNL     1      18.893  -1.318  25.668  0.00  0.00    +0.143 C 
ATOM     10  C   UNL     1      18.520   0.163  25.751  0.00  0.00    +0.133 C 
BRANCH  10  11
ATOM     11  N   UNL     1      19.710   0.978  26.043  0.00  0.00    -0.308 N 
ATOM     12  H   UNL     1      20.488   0.924  25.401  0.00  0.00    +0.149 HD
ATOM     13  C   UNL     1      19.828   1.786  27.100  0.00  0.00    +0.210 C 
ATOM     14  C   UNL     1      18.635   1.827  28.074  0.00  0.00    +0.109 C 
ATOM     15  O   UNL     1      20.831   2.468  27.311  0.00  0.00    -0.276 OA
ENDBRANCH  10  11
BRANCH   7  16
ATOM     16  C   UNL     1      17.887  -1.952  22.768  0.00  0.00    +0.414 C 
ATOM     17  O   UNL     1      17.970  -1.147  21.841  0.00  0.00    -0.240 OA
ATOM     18  O   UNL     1      18.524  -3.004  22.711  0.00  0.00    -0.240 OA
ENDBRANCH   7  16
BRANCH   9  19
ATOM     19  O   UNL     1      19.395  -1.748  26.934  0.00  0.00    -0.390 OA
ATOM     20  H   UNL     1      18.972  -1.245  27.635  0.00  0.00    +0.210 HD
ENDBRANCH   9  19
BRANCH   7  21
ATOM     21  O   UNL     1      15.714  -2.312  23.836  0.00  0.00    -0.343 OA
ATOM     22  C   UNL     1      15.375  -3.234  24.903  0.00  0.00    +0.198 C 
ENDBRANCH   7  21
ENDBRANCH   4   5
BRANCH   4  23
ATOM     23  O   UNL     1      16.437   2.329  25.350  0.00  0.00    -0.387 OA
ATOM     24  H   UNL     1      16.679   3.085  25.890  0.00  0.00    +0.210 HD
ENDBRANCH   4  23
ENDBRANCH   1   4
BRANCH   1  25
ATOM     25  C   UNL     1      17.421   3.939  22.690  0.00  0.00    +0.141 C 
BRANCH  25  28
ATOM     26  C   UNL     1      18.613   5.751  23.874  0.00  0.00    +0.401 C 
ATOM     27  O   UNL     1      18.214   6.637  23.115  0.00  0.00    -0.226 OA
ATOM     28  N   UNL     1      18.298   4.461  23.746  0.00  0.00    -0.279 N 
ATOM     29  H   UNL     1      18.683   3.807  24.413  0.00  0.00    +0.152 HD
BRANCH  26  30
ATOM     30  O   UNL     1      19.473   6.103  24.961  0.00  0.00    -0.444 OA
BRANCH  30  31
ATOM     31  C   UNL     1      19.070   5.395  26.137  0.00  0.00    +0.292 C 
BRANCH  31  33
ATOM     32  N   UNL     1      18.883   5.818  28.571  0.00  0.00    -0.131 NA
ATOM     33  C   UNL     1      19.031   6.303  27.297  0.00  0.00    +0.120 A 
ATOM     34  C   UNL     1      19.125   7.675  27.347  0.00  0.00    +0.137 A 
ATOM     35  N   UNL     1      19.016   7.962  28.674  0.00  0.00    -0.248 N 
ATOM     36  N   UNL     1      18.875   6.847  29.409  0.00  0.00    -0.065 NA
BRANCH  35  37
ATOM     37  C   UNL     1      19.049   9.262  29.308  0.00  0.00    +0.186 C 
BRANCH  37  38
ATOM     38  C   UNL     1      18.492   9.215  30.727  0.00  0.00    +0.255 C 
BRANCH  38  39
ATOM     39  O   UNL     1      17.556  10.282  30.980  0.00  0.00    -0.463 OA
BRANCH  39  40
ATOM     40  C   UNL     1      16.852  10.193  32.140  0.00  0.00    +0.304 C 
ATOM     41  O   UNL     1      16.201   9.219  32.490  0.00  0.00    -0.251 OA
ATOM     42  C   UNL     1      17.003  11.441  32.954  0.00  0.00    +0.136 C 
ENDBRANCH  39  40
ENDBRANCH  38  39
ENDBRANCH  37  38
ENDBRANCH  35  37
ENDBRANCH  31  33
ENDBRANCH  30  31
ENDBRANCH  26  30
ENDBRANCH  25  28
ENDBRANCH   1  25
TORSDOF 17
