REMARK VINA RESULT:    -5.541     11.556     15.470
REMARK INTER + INTRA:         -12.881
REMARK INTER:                 -10.887
REMARK INTRA:                  -1.994
REMARK UNBOUND:                -2.805
REMARK  Name = lig_assembled_72.pdb
REMARK  20 active torsions:
REMARK  status: ('A' for Active; 'I' for Inactive)
REMARK    1  A    between atoms: _2  and  _9
REMARK    2  A    between atoms: _4  and  _17
REMARK    3  A    between atoms: _5  and  _9
REMARK    4  A    between atoms: _5  and  _12
REMARK    5  A    between atoms: _6  and  _7
REMARK    6  A    between atoms: _6  and  _17
REMARK    7  A    between atoms: _9  and  _10
REMARK    8  A    between atoms: _9  and  _11
REMARK    9  A    between atoms: _13  and  _33
REMARK   10  A    between atoms: _15  and  _21
REMARK   11  A    between atoms: _16  and  _20
REMARK   12  A    between atoms: _20  and  _21
REMARK   13  A    between atoms: _23  and  _24
REMARK   14  A    between atoms: _25  and  _26
REMARK   15  A    between atoms: _27  and  _29
REMARK   16  A    between atoms: _29  and  _30
REMARK   17  A    between atoms: _29  and  _31
REMARK   18  A    between atoms: _31  and  _32
REMARK   19  A    between atoms: _31  and  _33
REMARK   20  A    between atoms: _34  and  _36
REMARK                            x       y       z     vdW  Elec       q    Type
REMARK                         _______ _______ _______ _____ _____    ______ ____
ROOT
ATOM      1  C   UNL     1       9.905   3.027  35.052  0.00  0.00    +0.163 C 
ENDROOT
BRANCH   1   2
ATOM      2  O   UNL     1       9.729   2.136  33.938  0.00  0.00    -0.388 OA
ATOM      3  H   UNL     1       9.860   1.230  34.228  0.00  0.00    +0.210 HD
ENDBRANCH   1   2
BRANCH   1   4
ATOM      4  C   UNL     1       8.601   3.165  35.857  0.00  0.00    +0.175 C 
BRANCH   4   5
ATOM      5  C   UNL     1       7.778   4.385  35.420  0.00  0.00    +0.176 C 
ATOM      6  O   UNL     1       7.460   5.159  36.609  0.00  0.00    -0.332 OA
ATOM      7  C   UNL     1       6.762   6.427  36.372  0.00  0.00    +0.277 C 
ATOM      8  C   UNL     1       5.476   6.190  35.543  0.00  0.00    +0.110 C 
ATOM      9  C   UNL     1       5.759   5.343  34.284  0.00  0.00    +0.143 C 
ATOM     10  C   UNL     1       6.490   4.050  34.645  0.00  0.00    +0.133 C 
BRANCH  10  11
ATOM     11  N   UNL     1       6.831   3.294  33.429  0.00  0.00    -0.308 N 
ATOM     12  H   UNL     1       7.468   3.721  32.771  0.00  0.00    +0.149 HD
ATOM     13  C   UNL     1       6.354   2.080  33.139  0.00  0.00    +0.210 C 
ATOM     14  C   UNL     1       5.365   1.468  34.149  0.00  0.00    +0.109 C 
ATOM     15  O   UNL     1       6.668   1.464  32.120  0.00  0.00    -0.276 OA
ENDBRANCH  10  11
BRANCH   7  16
ATOM     16  C   UNL     1       7.677   7.425  35.632  0.00  0.00    +0.414 C 
ATOM     17  O   UNL     1       8.857   7.544  35.959  0.00  0.00    -0.240 OA
ATOM     18  O   UNL     1       7.235   8.110  34.709  0.00  0.00    -0.240 OA
ENDBRANCH   7  16
BRANCH   9  19
ATOM     19  O   UNL     1       4.529   5.022  33.633  0.00  0.00    -0.390 OA
ATOM     20  H   UNL     1       4.362   4.080  33.710  0.00  0.00    +0.210 HD
ENDBRANCH   9  19
BRANCH   7  21
ATOM     21  O   UNL     1       6.381   6.976  37.660  0.00  0.00    -0.343 OA
ATOM     22  C   UNL     1       6.664   6.123  38.798  0.00  0.00    +0.198 C 
ENDBRANCH   7  21
ENDBRANCH   4   5
BRANCH   4  23
ATOM     23  O   UNL     1       8.894   3.242  37.267  0.00  0.00    -0.387 OA
ATOM     24  H   UNL     1       8.761   4.142  37.572  0.00  0.00    +0.210 HD
ENDBRANCH   4  23
ENDBRANCH   1   4
BRANCH   1  25
ATOM     25  C   UNL     1      11.014   2.511  35.963  0.00  0.00    +0.141 C 
BRANCH  25  28
ATOM     26  C   UNL     1      12.996   3.903  35.473  0.00  0.00    +0.401 C 
ATOM     27  O   UNL     1      13.215   3.373  34.381  0.00  0.00    -0.226 OA
ATOM     28  N   UNL     1      11.993   3.558  36.281  0.00  0.00    -0.279 N 
ATOM     29  H   UNL     1      11.900   4.044  37.162  0.00  0.00    +0.152 HD
BRANCH  26  30
ATOM     30  O   UNL     1      13.860   4.950  35.923  0.00  0.00    -0.444 OA
BRANCH  30  31
ATOM     31  C   UNL     1      15.165   4.763  35.369  0.00  0.00    +0.292 C 
BRANCH  31  33
ATOM     32  N   UNL     1      15.252   6.009  33.234  0.00  0.00    -0.131 NA
ATOM     33  C   UNL     1      15.554   5.937  34.567  0.00  0.00    +0.120 A 
ATOM     34  C   UNL     1      16.226   7.082  34.937  0.00  0.00    +0.137 A 
ATOM     35  N   UNL     1      16.303   7.816  33.785  0.00  0.00    -0.244 N 
ATOM     36  N   UNL     1      15.714   7.158  32.767  0.00  0.00    -0.065 NA
BRANCH  35  37
ATOM     37  C   UNL     1      16.913   9.139  33.589  0.00  0.00    +0.083 C 
ATOM     38  C   UNL     1      17.477   9.229  32.158  0.00  0.00    +0.038 C 
ATOM     39  C   UNL     1      18.056   9.338  34.604  0.00  0.00    +0.038 C 
BRANCH  37  40
ATOM     40  C   UNL     1      15.874  10.280  33.761  0.00  0.00    +0.185 C 
BRANCH  40  41
ATOM     41  O   UNL     1      14.791  10.184  32.837  0.00  0.00    -0.393 OA
ATOM     42  H   UNL     1      14.605  11.102  32.544  0.00  0.00    +0.209 HD
ENDBRANCH  40  41
ENDBRANCH  37  40
ENDBRANCH  35  37
ENDBRANCH  31  33
ENDBRANCH  30  31
ENDBRANCH  26  30
ENDBRANCH  25  28
ENDBRANCH   1  25
TORSDOF 16
