REMARK VINA RESULT:    -6.399      5.252      7.169
REMARK INTER + INTRA:         -13.106
REMARK INTER:                 -10.876
REMARK INTRA:                  -2.230
REMARK UNBOUND:                -2.031
REMARK  Name = lig_assembled_42.pdb
REMARK  16 active torsions:
REMARK  status: ('A' for Active; 'I' for Inactive)
REMARK    1  A    between atoms: _2  and  _9
REMARK    2  A    between atoms: _4  and  _21
REMARK    3  A    between atoms: _6  and  _7
REMARK    4  A    between atoms: _6  and  _21
REMARK    5  A    between atoms: _17  and  _37
REMARK    6  A    between atoms: _19  and  _25
REMARK    7  A    between atoms: _20  and  _24
REMARK    8  A    between atoms: _24  and  _25
REMARK    9  A    between atoms: _27  and  _28
REMARK   10  A    between atoms: _29  and  _30
REMARK   11  A    between atoms: _31  and  _33
REMARK   12  A    between atoms: _33  and  _34
REMARK   13  A    between atoms: _33  and  _35
REMARK   14  A    between atoms: _35  and  _36
REMARK   15  A    between atoms: _35  and  _37
REMARK   16  A    between atoms: _38  and  _40
REMARK                            x       y       z     vdW  Elec       q    Type
REMARK                         _______ _______ _______ _____ _____    ______ ____
ROOT
ATOM      1  C   UNL     1       7.950   2.125  35.970  0.00  0.00    +0.163 C 
ENDROOT
BRANCH   1   2
ATOM      2  O   UNL     1       7.722   2.447  37.352  0.00  0.00    -0.388 OA
ATOM      3  H   UNL     1       8.564   2.573  37.795  0.00  0.00    +0.210 HD
ENDBRANCH   1   2
BRANCH   1   4
ATOM      4  C   UNL     1       8.776   0.848  35.861  0.00  0.00    +0.141 C 
BRANCH   4   7
ATOM      5  C   UNL     1       8.071  -1.458  35.322  0.00  0.00    +0.401 C 
ATOM      6  O   UNL     1       8.584  -1.951  36.329  0.00  0.00    -0.226 OA
ATOM      7  N   UNL     1       8.118  -0.160  35.021  0.00  0.00    -0.279 N 
ATOM      8  H   UNL     1       7.675   0.148  34.166  0.00  0.00    +0.152 HD
BRANCH   5   9
ATOM      9  O   UNL     1       7.383  -2.312  34.404  0.00  0.00    -0.444 OA
BRANCH   9  10
ATOM     10  C   UNL     1       8.249  -2.640  33.315  0.00  0.00    +0.292 C 
BRANCH  10  12
ATOM     11  N   UNL     1       6.904  -1.060  31.955  0.00  0.00    -0.131 NA
ATOM     12  C   UNL     1       7.668  -2.187  32.037  0.00  0.00    +0.121 A 
ATOM     13  C   UNL     1       7.766  -2.752  30.788  0.00  0.00    +0.143 A 
ATOM     14  N   UNL     1       7.039  -1.929  29.962  0.00  0.00    -0.220 N 
ATOM     15  N   UNL     1       6.525  -0.907  30.691  0.00  0.00    -0.060 NA
BRANCH  14  16
ATOM     16  C   UNL     1       6.814  -2.060  28.569  0.00  0.00    +0.071 A 
ATOM     17  C   UNL     1       7.826  -2.565  27.738  0.00  0.00    +0.077 A 
ATOM     18  C   UNL     1       7.558  -2.674  26.391  0.00  0.00    +0.168 A 
ATOM     19  O   UNL     1       8.424  -3.145  25.456  0.00  0.00    -0.453 OA
ATOM     20  C   UNL     1       7.619  -3.037  24.265  0.00  0.00    +0.466 C 
ATOM     21  O   UNL     1       6.302  -2.499  24.510  0.00  0.00    -0.453 OA
ATOM     22  C   UNL     1       6.348  -2.306  25.855  0.00  0.00    +0.166 A 
ATOM     23  C   UNL     1       5.332  -1.804  26.639  0.00  0.00    +0.051 A 
ATOM     24  C   UNL     1       5.568  -1.679  28.015  0.00  0.00    +0.031 A 
ENDBRANCH  14  16
ENDBRANCH  10  12
ENDBRANCH   9  10
ENDBRANCH   5   9
ENDBRANCH   4   7
ENDBRANCH   1   4
BRANCH   1  25
ATOM     25  C   UNL     1       8.680   3.273  35.251  0.00  0.00    +0.175 C 
BRANCH  25  26
ATOM     26  C   UNL     1       7.808   4.532  35.139  0.00  0.00    +0.176 C 
ATOM     27  O   UNL     1       7.730   5.141  36.457  0.00  0.00    -0.332 OA
ATOM     28  C   UNL     1       7.020   6.422  36.523  0.00  0.00    +0.277 C 
ATOM     29  C   UNL     1       5.598   6.283  35.925  0.00  0.00    +0.110 C 
ATOM     30  C   UNL     1       5.627   5.612  34.536  0.00  0.00    +0.143 C 
ATOM     31  C   UNL     1       6.393   4.289  34.582  0.00  0.00    +0.133 C 
BRANCH  31  32
ATOM     32  N   UNL     1       6.489   3.702  33.236  0.00  0.00    -0.308 N 
ATOM     33  H   UNL     1       7.092   4.156  32.565  0.00  0.00    +0.149 HD
ATOM     34  C   UNL     1       5.830   2.608  32.844  0.00  0.00    +0.210 C 
ATOM     35  C   UNL     1       4.899   1.954  33.882  0.00  0.00    +0.109 C 
ATOM     36  O   UNL     1       5.941   2.130  31.714  0.00  0.00    -0.276 OA
ENDBRANCH  31  32
BRANCH  28  37
ATOM     37  C   UNL     1       7.795   7.517  35.761  0.00  0.00    +0.414 C 
ATOM     38  O   UNL     1       7.236   8.178  34.887  0.00  0.00    -0.240 OA
ATOM     39  O   UNL     1       8.978   7.739  36.021  0.00  0.00    -0.240 OA
ENDBRANCH  28  37
BRANCH  30  40
ATOM     40  O   UNL     1       4.293   5.367  34.091  0.00  0.00    -0.390 OA
ATOM     41  H   UNL     1       3.816   6.199  34.034  0.00  0.00    +0.210 HD
ENDBRANCH  30  40
BRANCH  28  42
ATOM     42  O   UNL     1       6.895   6.794  37.920  0.00  0.00    -0.343 OA
ATOM     43  C   UNL     1       7.636   5.959  38.845  0.00  0.00    +0.198 C 
ENDBRANCH  28  42
ENDBRANCH  25  26
BRANCH  25  44
ATOM     44  O   UNL     1       9.108   2.846  33.942  0.00  0.00    -0.387 OA
ATOM     45  H   UNL     1       8.626   2.055  33.689  0.00  0.00    +0.210 HD
ENDBRANCH  25  44
ENDBRANCH   1  25
TORSDOF 14
