REMARK VINA RESULT:    -6.822     15.226     17.855
REMARK INTER + INTRA:         -14.742
REMARK INTER:                 -12.471
REMARK INTRA:                  -2.271
REMARK UNBOUND:                -2.138
REMARK  Name = lig_assembled_92.pdb
REMARK  18 active torsions:
REMARK  status: ('A' for Active; 'I' for Inactive)
REMARK    1  A    between atoms: _2  and  _11
REMARK    2  A    between atoms: _3  and  _46
REMARK    3  A    between atoms: _6  and  _25
REMARK    4  A    between atoms: _8  and  _9
REMARK    5  A    between atoms: _8  and  _25
REMARK    6  A    between atoms: _14  and  _46
REMARK    7  A    between atoms: _21  and  _41
REMARK    8  A    between atoms: _23  and  _29
REMARK    9  A    between atoms: _24  and  _28
REMARK   10  A    between atoms: _28  and  _29
REMARK   11  A    between atoms: _31  and  _32
REMARK   12  A    between atoms: _33  and  _34
REMARK   13  A    between atoms: _35  and  _37
REMARK   14  A    between atoms: _37  and  _38
REMARK   15  A    between atoms: _37  and  _39
REMARK   16  A    between atoms: _39  and  _40
REMARK   17  A    between atoms: _39  and  _41
REMARK   18  A    between atoms: _42  and  _44
REMARK                            x       y       z     vdW  Elec       q    Type
REMARK                         _______ _______ _______ _____ _____    ______ ____
ROOT
ATOM      1  C   UNL     1       1.608   2.997  29.323  0.00  0.00    +0.401 C 
ATOM      2  O   UNL     1       2.361   2.024  29.237  0.00  0.00    -0.226 OA
ATOM      3  N   UNL     1       1.052   3.410  30.463  0.00  0.00    -0.279 N 
ATOM      4  H   UNL     1       0.456   4.225  30.434  0.00  0.00    +0.152 HD
ENDROOT
BRANCH   3   5
ATOM      5  C   UNL     1       1.257   2.747  31.757  0.00  0.00    +0.141 C 
BRANCH   5   6
ATOM      6  C   UNL     1       2.198   3.539  32.659  0.00  0.00    +0.163 C 
BRANCH   6   7
ATOM      7  O   UNL     1       1.559   3.812  33.916  0.00  0.00    -0.388 OA
ATOM      8  H   UNL     1       1.482   2.998  34.420  0.00  0.00    +0.210 HD
ENDBRANCH   6   7
BRANCH   6   9
ATOM      9  C   UNL     1       3.501   2.747  32.864  0.00  0.00    +0.175 C 
BRANCH   9  10
ATOM     10  C   UNL     1       4.370   3.344  33.980  0.00  0.00    +0.176 C 
ATOM     11  O   UNL     1       4.506   4.769  33.727  0.00  0.00    -0.332 OA
ATOM     12  C   UNL     1       5.222   5.530  34.756  0.00  0.00    +0.277 C 
ATOM     13  C   UNL     1       6.617   4.909  35.015  0.00  0.00    +0.110 C 
ATOM     14  C   UNL     1       6.527   3.388  35.258  0.00  0.00    +0.143 C 
ATOM     15  C   UNL     1       5.760   2.697  34.130  0.00  0.00    +0.133 C 
BRANCH  15  16
ATOM     16  N   UNL     1       5.605   1.262  34.416  0.00  0.00    -0.308 N 
ATOM     17  H   UNL     1       4.971   0.994  35.155  0.00  0.00    +0.149 HD
ATOM     18  C   UNL     1       6.249   0.290  33.763  0.00  0.00    +0.210 C 
ATOM     19  C   UNL     1       7.228   0.733  32.659  0.00  0.00    +0.109 C 
ATOM     20  O   UNL     1       6.089  -0.904  34.014  0.00  0.00    -0.276 OA
ENDBRANCH  15  16
BRANCH  12  21
ATOM     21  C   UNL     1       4.418   5.561  36.072  0.00  0.00    +0.414 C 
ATOM     22  O   UNL     1       3.192   5.465  36.052  0.00  0.00    -0.240 OA
ATOM     23  O   UNL     1       4.996   5.681  37.153  0.00  0.00    -0.240 OA
ENDBRANCH  12  21
BRANCH  14  24
ATOM     24  O   UNL     1       7.841   2.835  35.341  0.00  0.00    -0.390 OA
ATOM     25  H   UNL     1       7.998   2.265  34.585  0.00  0.00    +0.210 HD
ENDBRANCH  14  24
BRANCH  12  26
ATOM     26  O   UNL     1       5.408   6.883  34.265  0.00  0.00    -0.343 OA
ATOM     27  C   UNL     1       6.764   7.387  34.358  0.00  0.00    +0.198 C 
ENDBRANCH  12  26
ENDBRANCH   9  10
BRANCH   9  28
ATOM     28  O   UNL     1       4.246   2.689  31.631  0.00  0.00    -0.387 OA
ATOM     29  H   UNL     1       4.121   3.506  31.142  0.00  0.00    +0.210 HD
ENDBRANCH   9  28
ENDBRANCH   6   9
ENDBRANCH   5   6
ENDBRANCH   3   5
BRANCH   1  30
ATOM     30  O   UNL     1       1.303   3.745  28.144  0.00  0.00    -0.444 OA
BRANCH  30  31
ATOM     31  C   UNL     1       1.864   3.090  27.004  0.00  0.00    +0.292 C 
BRANCH  31  33
ATOM     32  N   UNL     1       0.777   4.940  25.762  0.00  0.00    -0.131 NA
ATOM     33  C   UNL     1       1.371   3.712  25.760  0.00  0.00    +0.121 A 
ATOM     34  C   UNL     1       1.413   3.236  24.470  0.00  0.00    +0.143 A 
ATOM     35  N   UNL     1       0.853   4.233  23.704  0.00  0.00    -0.220 N 
ATOM     36  N   UNL     1       0.459   5.248  24.510  0.00  0.00    -0.060 NA
BRANCH  35  37
ATOM     37  C   UNL     1       0.710   4.284  22.295  0.00  0.00    +0.067 A 
ATOM     38  C   UNL     1      -0.526   4.617  21.718  0.00  0.00    +0.030 A 
ATOM     39  C   UNL     1      -0.679   4.608  20.333  0.00  0.00    +0.031 A 
ATOM     40  C   UNL     1       0.404   4.279  19.516  0.00  0.00    +0.109 A 
ATOM     41  C   UNL     1       1.644   3.955  20.074  0.00  0.00    +0.031 A 
ATOM     42  C   UNL     1       1.799   3.968  21.465  0.00  0.00    +0.030 A 
BRANCH  40  43
ATOM     43  S   UNL     1       0.133   4.130  17.770  0.00  0.00    +0.074 S 
ATOM     44  O   UNL     1      -0.483   5.363  17.317  0.00  0.00    -0.150 OA
ATOM     45  O   UNL     1       1.349   3.658  17.153  0.00  0.00    -0.150 OA
BRANCH  43  46
ATOM     46  N   UNL     1      -1.086   2.966  17.659  0.00  0.00    -0.194 N 
ATOM     47  H   UNL     1      -1.510   3.086  16.743  0.00  0.00    +0.176 HD
ATOM     48  C   UNL     1      -0.598   1.663  17.887  0.00  0.00    +0.177 A 
ATOM     49  S   UNL     1      -0.190   0.595  16.617  0.00  0.00    -0.059 S 
ATOM     50  C   UNL     1       0.119  -0.630  17.779  0.00  0.00    +0.068 A 
ATOM     51  C   UNL     1      -0.186  -0.157  19.038  0.00  0.00    +0.120 A 
ATOM     52  N   UNL     1      -0.567   1.171  19.101  0.00  0.00    -0.232 NA
ENDBRANCH  43  46
ENDBRANCH  40  43
ENDBRANCH  35  37
ENDBRANCH  31  33
ENDBRANCH  30  31
ENDBRANCH   1  30
TORSDOF 16
