REMARK VINA RESULT:    -6.566     12.567     14.790
REMARK INTER + INTRA:         -13.934
REMARK INTER:                 -11.741
REMARK INTRA:                  -2.194
REMARK UNBOUND:                -1.802
REMARK  Name = lig_assembled_36.pdb
REMARK  18 active torsions:
REMARK  status: ('A' for Active; 'I' for Inactive)
REMARK    1  A    between atoms: _2  and  _10
REMARK    2  A    between atoms: _5  and  _21
REMARK    3  A    between atoms: _7  and  _8
REMARK    4  A    between atoms: _7  and  _21
REMARK    5  A    between atoms: _10  and  _11
REMARK    6  A    between atoms: _14  and  _15
REMARK    7  A    between atoms: _17  and  _37
REMARK    8  A    between atoms: _19  and  _25
REMARK    9  A    between atoms: _20  and  _24
REMARK   10  A    between atoms: _24  and  _25
REMARK   11  A    between atoms: _27  and  _28
REMARK   12  A    between atoms: _29  and  _30
REMARK   13  A    between atoms: _31  and  _33
REMARK   14  A    between atoms: _33  and  _34
REMARK   15  A    between atoms: _33  and  _35
REMARK   16  A    between atoms: _35  and  _36
REMARK   17  A    between atoms: _35  and  _37
REMARK   18  A    between atoms: _38  and  _40
REMARK                            x       y       z     vdW  Elec       q    Type
REMARK                         _______ _______ _______ _____ _____    ______ ____
ROOT
ATOM      1  C   UNL     1       3.200   5.566  36.565  0.00  0.00    +0.163 C 
ENDROOT
BRANCH   1   2
ATOM      2  O   UNL     1       2.018   6.251  37.012  0.00  0.00    -0.388 OA
ATOM      3  H   UNL     1       1.597   5.742  37.709  0.00  0.00    +0.210 HD
ENDBRANCH   1   2
BRANCH   1   4
ATOM      4  C   UNL     1       4.285   5.572  37.656  0.00  0.00    +0.175 C 
BRANCH   4   5
ATOM      5  C   UNL     1       5.566   6.282  37.193  0.00  0.00    +0.176 C 
ATOM      6  O   UNL     1       6.117   5.528  36.079  0.00  0.00    -0.332 OA
ATOM      7  C   UNL     1       7.294   6.119  35.434  0.00  0.00    +0.277 C 
ATOM      8  C   UNL     1       8.402   6.394  36.480  0.00  0.00    +0.110 C 
ATOM      9  C   UNL     1       7.856   7.167  37.699  0.00  0.00    +0.143 C 
ATOM     10  C   UNL     1       6.632   6.466  38.289  0.00  0.00    +0.133 C 
BRANCH  10  11
ATOM     11  N   UNL     1       6.069   7.257  39.395  0.00  0.00    -0.308 N 
ATOM     12  H   UNL     1       5.702   8.174  39.180  0.00  0.00    +0.149 HD
ATOM     13  C   UNL     1       6.011   6.842  40.663  0.00  0.00    +0.210 C 
ATOM     14  C   UNL     1       6.602   5.452  40.962  0.00  0.00    +0.109 C 
ATOM     15  O   UNL     1       5.520   7.520  41.567  0.00  0.00    -0.276 OA
ENDBRANCH  10  11
BRANCH   7  16
ATOM     16  C   UNL     1       6.922   7.433  34.718  0.00  0.00    +0.414 C 
ATOM     17  O   UNL     1       7.791   8.265  34.458  0.00  0.00    -0.240 OA
ATOM     18  O   UNL     1       5.755   7.662  34.399  0.00  0.00    -0.240 OA
ENDBRANCH   7  16
BRANCH   7  19
ATOM     19  O   UNL     1       7.803   5.163  34.469  0.00  0.00    -0.343 OA
ATOM     20  C   UNL     1       8.243   3.901  35.030  0.00  0.00    +0.198 C 
ENDBRANCH   7  19
BRANCH   9  21
ATOM     21  O   UNL     1       8.870   7.266  38.700  0.00  0.00    -0.390 OA
ATOM     22  H   UNL     1       9.615   6.712  38.457  0.00  0.00    +0.210 HD
ENDBRANCH   9  21
ENDBRANCH   4   5
BRANCH   4  23
ATOM     23  O   UNL     1       4.585   4.223  38.066  0.00  0.00    -0.387 OA
ATOM     24  H   UNL     1       3.783   3.796  38.376  0.00  0.00    +0.210 HD
ENDBRANCH   4  23
ENDBRANCH   1   4
BRANCH   1  25
ATOM     25  C   UNL     1       2.860   4.126  36.194  0.00  0.00    +0.141 C 
BRANCH  25  28
ATOM     26  C   UNL     1       3.067   3.589  33.791  0.00  0.00    +0.401 C 
ATOM     27  O   UNL     1       1.893   3.865  33.532  0.00  0.00    -0.226 OA
ATOM     28  N   UNL     1       3.601   3.677  35.009  0.00  0.00    -0.279 N 
ATOM     29  H   UNL     1       4.572   3.419  35.124  0.00  0.00    +0.152 HD
BRANCH  26  30
ATOM     30  O   UNL     1       3.924   3.143  32.737  0.00  0.00    -0.444 OA
BRANCH  30  31
ATOM     31  C   UNL     1       5.223   2.863  33.265  0.00  0.00    +0.292 C 
BRANCH  31  33
ATOM     32  N   UNL     1       7.105   1.408  32.572  0.00  0.00    -0.131 NA
ATOM     33  C   UNL     1       5.756   1.618  32.680  0.00  0.00    +0.120 A 
ATOM     34  C   UNL     1       5.088   0.516  32.196  0.00  0.00    +0.137 A 
ATOM     35  N   UNL     1       6.087  -0.365  31.900  0.00  0.00    -0.247 N 
ATOM     36  N   UNL     1       7.298   0.195  32.074  0.00  0.00    -0.065 NA
BRANCH  35  37
ATOM     37  C   UNL     1       5.963  -1.743  31.468  0.00  0.00    +0.180 C 
BRANCH  37  38
ATOM     38  C   UNL     1       6.252  -1.882  29.991  0.00  0.00    -0.026 A 
ATOM     39  C   UNL     1       5.308  -1.487  29.031  0.00  0.00    +0.007 A 
ATOM     40  C   UNL     1       5.586  -1.615  27.667  0.00  0.00    +0.019 A 
ATOM     41  C   UNL     1       6.809  -2.145  27.243  0.00  0.00    +0.052 A 
ATOM     42  C   UNL     1       7.745  -2.563  28.193  0.00  0.00    +0.019 A 
ATOM     43  C   UNL     1       7.467  -2.437  29.557  0.00  0.00    +0.007 A 
BRANCH  41  44
ATOM     44  C   UNL     1       7.101  -2.256  25.842  0.00  0.00    +0.099 C 
ATOM     45  N   UNL     1       7.348  -2.340  24.712  0.00  0.00    -0.191 NA
ENDBRANCH  41  44
ENDBRANCH  37  38
ENDBRANCH  35  37
ENDBRANCH  31  33
ENDBRANCH  30  31
ENDBRANCH  26  30
ENDBRANCH  25  28
ENDBRANCH   1  25
TORSDOF 16
