REMARK VINA RESULT:    -5.527      3.815     13.572
REMARK INTER + INTRA:         -13.202
REMARK INTER:                 -10.485
REMARK INTRA:                  -2.718
REMARK UNBOUND:                -3.313
REMARK  Name = lig_assembled_71.pdb
REMARK  17 active torsions:
REMARK  status: ('A' for Active; 'I' for Inactive)
REMARK    1  A    between atoms: _2  and  _12
REMARK    2  A    between atoms: _7  and  _22
REMARK    3  A    between atoms: _9  and  _10
REMARK    4  A    between atoms: _9  and  _22
REMARK    5  A    between atoms: _12  and  _13
REMARK    6  A    between atoms: _18  and  _38
REMARK    7  A    between atoms: _20  and  _26
REMARK    8  A    between atoms: _21  and  _25
REMARK    9  A    between atoms: _25  and  _26
REMARK   10  A    between atoms: _28  and  _29
REMARK   11  A    between atoms: _30  and  _31
REMARK   12  A    between atoms: _32  and  _34
REMARK   13  A    between atoms: _34  and  _35
REMARK   14  A    between atoms: _34  and  _36
REMARK   15  A    between atoms: _36  and  _37
REMARK   16  A    between atoms: _36  and  _38
REMARK   17  A    between atoms: _39  and  _41
REMARK                            x       y       z     vdW  Elec       q    Type
REMARK                         _______ _______ _______ _____ _____    ______ ____
ROOT
ATOM      1  C   UNL     1      -2.048   3.598  22.587  0.00  0.00    +0.163 C 
ENDROOT
BRANCH   1   2
ATOM      2  O   UNL     1      -3.098   2.797  22.020  0.00  0.00    -0.388 OA
ATOM      3  H   UNL     1      -3.767   2.627  22.688  0.00  0.00    +0.210 HD
ENDBRANCH   1   2
BRANCH   1   4
ATOM      4  C   UNL     1      -2.513   4.216  23.901  0.00  0.00    +0.141 C 
BRANCH   4   7
ATOM      5  C   UNL     1      -0.927   5.035  25.610  0.00  0.00    +0.401 C 
ATOM      6  O   UNL     1      -1.127   6.226  25.360  0.00  0.00    -0.226 OA
ATOM      7  N   UNL     1      -1.528   4.028  24.973  0.00  0.00    -0.279 N 
ATOM      8  H   UNL     1      -1.291   3.084  25.243  0.00  0.00    +0.152 HD
BRANCH   5   9
ATOM      9  O   UNL     1       0.003   4.687  26.639  0.00  0.00    -0.444 OA
BRANCH   9  10
ATOM     10  C   UNL     1      -0.645   3.862  27.610  0.00  0.00    +0.292 C 
BRANCH  10  12
ATOM     11  N   UNL     1       1.675   3.584  28.450  0.00  0.00    -0.131 NA
ATOM     12  C   UNL     1       0.353   3.222  28.488  0.00  0.00    +0.120 A 
ATOM     13  C   UNL     1       0.187   2.238  29.433  0.00  0.00    +0.137 A 
ATOM     14  N   UNL     1       1.443   2.030  29.925  0.00  0.00    -0.242 N 
ATOM     15  N   UNL     1       2.333   2.852  29.340  0.00  0.00    -0.065 NA
BRANCH  14  16
ATOM     16  C   UNL     1       1.858   1.167  31.013  0.00  0.00    +0.241 C 
BRANCH  16  17
ATOM     17  C   UNL     1       3.239   1.513  31.504  0.00  0.00    +0.241 C 
ATOM     18  O   UNL     1       4.167   0.724  31.340  0.00  0.00    -0.273 OA
ATOM     19  N   UNL     1       3.320   2.707  32.189  0.00  0.00    -0.253 N 
ATOM     20  H   UNL     1       2.500   3.220  32.474  0.00  0.00    +0.158 HD
ATOM     21  C   UNL     1       4.502   3.225  32.706  0.00  0.00    +0.221 A 
ATOM     22  N   UNL     1       4.354   4.231  33.581  0.00  0.00    -0.223 NA
ATOM     23  C   UNL     1       5.487   4.696  34.150  0.00  0.00    +0.116 A 
ATOM     24  C   UNL     1       6.742   4.219  33.857  0.00  0.00    +0.039 A 
ATOM     25  C   UNL     1       6.783   3.224  32.916  0.00  0.00    +0.116 A 
ATOM     26  N   UNL     1       5.683   2.720  32.336  0.00  0.00    -0.223 NA
ENDBRANCH  16  17
ENDBRANCH  14  16
ENDBRANCH  10  12
ENDBRANCH   9  10
ENDBRANCH   5   9
ENDBRANCH   4   7
ENDBRANCH   1   4
BRANCH   1  27
ATOM     27  C   UNL     1      -1.622   4.713  21.616  0.00  0.00    +0.175 C 
BRANCH  27  28
ATOM     28  C   UNL     1      -0.625   4.212  20.561  0.00  0.00    +0.176 C 
ATOM     29  O   UNL     1      -1.369   3.452  19.569  0.00  0.00    -0.332 OA
ATOM     30  C   UNL     1      -0.592   2.980  18.419  0.00  0.00    +0.277 C 
ATOM     31  C   UNL     1       0.635   2.163  18.893  0.00  0.00    +0.110 C 
ATOM     32  C   UNL     1       1.440   2.918  19.972  0.00  0.00    +0.143 C 
ATOM     33  C   UNL     1       0.533   3.365  21.120  0.00  0.00    +0.133 C 
BRANCH  33  34
ATOM     34  N   UNL     1       1.294   4.158  22.099  0.00  0.00    -0.308 N 
ATOM     35  H   UNL     1       1.569   5.094  21.836  0.00  0.00    +0.149 HD
ATOM     36  C   UNL     1       1.645   3.722  23.311  0.00  0.00    +0.210 C 
ATOM     37  C   UNL     1       1.233   2.282  23.672  0.00  0.00    +0.109 C 
ATOM     38  O   UNL     1       2.269   4.413  24.116  0.00  0.00    -0.276 OA
ENDBRANCH  33  34
BRANCH  30  39
ATOM     39  C   UNL     1      -0.118   4.168  17.555  0.00  0.00    +0.414 C 
ATOM     40  O   UNL     1       0.905   4.073  16.878  0.00  0.00    -0.240 OA
ATOM     41  O   UNL     1      -0.758   5.220  17.535  0.00  0.00    -0.240 OA
ENDBRANCH  30  39
BRANCH  30  42
ATOM     42  O   UNL     1      -1.443   2.111  17.629  0.00  0.00    -0.343 OA
ATOM     43  C   UNL     1      -0.762   0.997  16.997  0.00  0.00    +0.198 C 
ENDBRANCH  30  42
BRANCH  32  44
ATOM     44  O   UNL     1       2.468   2.071  20.487  0.00  0.00    -0.390 OA
ATOM     45  H   UNL     1       3.320   2.366  20.159  0.00  0.00    +0.210 HD
ENDBRANCH  32  44
ENDBRANCH  27  28
BRANCH  27  46
ATOM     46  O   UNL     1      -1.057   5.819  22.348  0.00  0.00    -0.387 OA
ATOM     47  H   UNL     1      -0.463   5.485  23.025  0.00  0.00    +0.210 HD
ENDBRANCH  27  46
ENDBRANCH   1  27
TORSDOF 15
