REMARK VINA RESULT:    -5.998      1.776      2.413
REMARK INTER + INTRA:         -14.874
REMARK INTER:                 -11.994
REMARK INTRA:                  -2.880
REMARK UNBOUND:                -2.564
REMARK  Name = lig_assembled_74.pdb
REMARK  24 active torsions:
REMARK  status: ('A' for Active; 'I' for Inactive)
REMARK    1  A    between atoms: _2  and  _9
REMARK    2  A    between atoms: _4  and  _22
REMARK    3  A    between atoms: _5  and  _14
REMARK    4  A    between atoms: _6  and  _7
REMARK    5  A    between atoms: _6  and  _22
REMARK    6  A    between atoms: _9  and  _10
REMARK    7  A    between atoms: _10  and  _11
REMARK    8  A    between atoms: _10  and  _13
REMARK    9  A    between atoms: _11  and  _12
REMARK   10  A    between atoms: _12  and  _16
REMARK   11  A    between atoms: _13  and  _14
REMARK   12  A    between atoms: _14  and  _15
REMARK   13  A    between atoms: _18  and  _38
REMARK   14  A    between atoms: _20  and  _26
REMARK   15  A    between atoms: _21  and  _25
REMARK   16  A    between atoms: _25  and  _26
REMARK   17  A    between atoms: _28  and  _29
REMARK   18  A    between atoms: _30  and  _31
REMARK   19  A    between atoms: _32  and  _34
REMARK   20  A    between atoms: _34  and  _35
REMARK   21  A    between atoms: _34  and  _36
REMARK   22  A    between atoms: _36  and  _37
REMARK   23  A    between atoms: _36  and  _38
REMARK   24  A    between atoms: _39  and  _41
REMARK                            x       y       z     vdW  Elec       q    Type
REMARK                         _______ _______ _______ _____ _____    ______ ____
ROOT
ATOM      1  C   UNL     1      18.470  10.443  30.131  0.00  0.00    +0.163 C 
ENDROOT
BRANCH   1   2
ATOM      2  O   UNL     1      17.123  10.733  30.540  0.00  0.00    -0.388 OA
ATOM      3  H   UNL     1      17.137  11.219  31.368  0.00  0.00    +0.210 HD
ENDBRANCH   1   2
BRANCH   1   4
ATOM      4  C   UNL     1      18.780   8.944  30.286  0.00  0.00    +0.175 C 
BRANCH   4   5
ATOM      5  C   UNL     1      17.947   8.293  31.400  0.00  0.00    +0.176 C 
ATOM      6  O   UNL     1      17.995   9.167  32.562  0.00  0.00    -0.332 OA
ATOM      7  C   UNL     1      17.164   8.756  33.698  0.00  0.00    +0.277 C 
ATOM      8  C   UNL     1      17.502   7.305  34.120  0.00  0.00    +0.110 C 
ATOM      9  C   UNL     1      17.496   6.345  32.912  0.00  0.00    +0.143 C 
ATOM     10  C   UNL     1      18.390   6.870  31.788  0.00  0.00    +0.133 C 
BRANCH  10  11
ATOM     11  N   UNL     1      18.308   5.992  30.611  0.00  0.00    -0.308 N 
ATOM     12  H   UNL     1      17.435   5.967  30.101  0.00  0.00    +0.149 HD
ATOM     13  C   UNL     1      19.310   5.225  30.172  0.00  0.00    +0.210 C 
ATOM     14  C   UNL     1      20.617   5.266  30.985  0.00  0.00    +0.109 C 
ATOM     15  O   UNL     1      19.217   4.510  29.173  0.00  0.00    -0.276 OA
ENDBRANCH  10  11
BRANCH   7  16
ATOM     16  C   UNL     1      15.665   8.853  33.343  0.00  0.00    +0.414 C 
ATOM     17  O   UNL     1      14.903   7.926  33.613  0.00  0.00    -0.240 OA
ATOM     18  O   UNL     1      15.220   9.858  32.787  0.00  0.00    -0.240 OA
ENDBRANCH   7  16
BRANCH   9  19
ATOM     19  O   UNL     1      17.959   5.056  33.319  0.00  0.00    -0.390 OA
ATOM     20  H   UNL     1      18.383   4.619  32.577  0.00  0.00    +0.210 HD
ENDBRANCH   9  19
BRANCH   7  21
ATOM     21  O   UNL     1      17.460   9.637  34.812  0.00  0.00    -0.343 OA
ATOM     22  C   UNL     1      16.893   9.229  36.083  0.00  0.00    +0.198 C 
ENDBRANCH   7  21
ENDBRANCH   4   5
BRANCH   4  23
ATOM     23  O   UNL     1      20.186   8.752  30.541  0.00  0.00    -0.387 OA
ATOM     24  H   UNL     1      20.546   9.536  30.963  0.00  0.00    +0.210 HD
ENDBRANCH   4  23
ENDBRANCH   1   4
BRANCH   1  25
ATOM     25  C   UNL     1      18.675  10.858  28.679  0.00  0.00    +0.141 C 
BRANCH  25  28
ATOM     26  C   UNL     1      19.672   9.774  26.695  0.00  0.00    +0.401 C 
ATOM     27  O   UNL     1      20.178  10.813  26.264  0.00  0.00    -0.226 OA
ATOM     28  N   UNL     1      18.949   9.704  27.813  0.00  0.00    -0.279 N 
ATOM     29  H   UNL     1      18.567   8.808  28.079  0.00  0.00    +0.152 HD
BRANCH  26  30
ATOM     30  O   UNL     1      19.856   8.558  25.965  0.00  0.00    -0.444 OA
BRANCH  30  31
ATOM     31  C   UNL     1      18.968   7.558  26.471  0.00  0.00    +0.292 C 
BRANCH  31  33
ATOM     32  N   UNL     1      18.434   6.686  24.209  0.00  0.00    -0.131 NA
ATOM     33  C   UNL     1      18.818   6.454  25.503  0.00  0.00    +0.120 A 
ATOM     34  C   UNL     1      19.093   5.112  25.656  0.00  0.00    +0.137 A 
ATOM     35  N   UNL     1      19.034   4.625  24.381  0.00  0.00    -0.251 N 
ATOM     36  N   UNL     1      18.545   5.549  23.534  0.00  0.00    -0.065 NA
BRANCH  35  37
ATOM     37  C   UNL     1      19.711   3.451  23.865  0.00  0.00    +0.149 C 
BRANCH  37  38
ATOM     38  C   UNL     1      18.793   2.353  23.287  0.00  0.00    +0.021 C 
BRANCH  38  39
ATOM     39  C   UNL     1      18.078   1.518  24.368  0.00  0.00    +0.125 C 
BRANCH  39  40
ATOM     40  C   UNL     1      16.620   1.872  24.583  0.00  0.00    +0.305 C 
ATOM     41  O   UNL     1      15.896   1.370  25.426  0.00  0.00    -0.251 OA
BRANCH  40  42
ATOM     42  O   UNL     1      16.197   2.866  23.779  0.00  0.00    -0.481 OA
ATOM     43  H   UNL     1      16.529   3.754  24.001  0.00  0.00    +0.295 HD
ENDBRANCH  40  42
ENDBRANCH  39  40
ENDBRANCH  38  39
BRANCH  38  44
ATOM     44  C   UNL     1      19.609   1.482  22.286  0.00  0.00    +0.009 C 
BRANCH  44  45
ATOM     45  C   UNL     1      18.796   0.810  21.159  0.00  0.00    -0.017 C 
ATOM     46  C   UNL     1      18.273  -0.569  21.567  0.00  0.00    +0.007 C 
ATOM     47  C   UNL     1      17.611   1.692  20.750  0.00  0.00    +0.007 C 
ENDBRANCH  44  45
ENDBRANCH  38  44
ENDBRANCH  37  38
ENDBRANCH  35  37
ENDBRANCH  31  33
ENDBRANCH  30  31
ENDBRANCH  26  30
ENDBRANCH  25  28
ENDBRANCH   1  25
TORSDOF 20
