REMARK VINA RESULT:    -6.528     15.145     17.937
REMARK INTER + INTRA:         -13.330
REMARK INTER:                 -10.263
REMARK INTRA:                  -3.067
REMARK UNBOUND:                -2.031
REMARK  Name = lig_assembled_42.pdb
REMARK  16 active torsions:
REMARK  status: ('A' for Active; 'I' for Inactive)
REMARK    1  A    between atoms: _2  and  _9
REMARK    2  A    between atoms: _4  and  _21
REMARK    3  A    between atoms: _6  and  _7
REMARK    4  A    between atoms: _6  and  _21
REMARK    5  A    between atoms: _17  and  _37
REMARK    6  A    between atoms: _19  and  _25
REMARK    7  A    between atoms: _20  and  _24
REMARK    8  A    between atoms: _24  and  _25
REMARK    9  A    between atoms: _27  and  _28
REMARK   10  A    between atoms: _29  and  _30
REMARK   11  A    between atoms: _31  and  _33
REMARK   12  A    between atoms: _33  and  _34
REMARK   13  A    between atoms: _33  and  _35
REMARK   14  A    between atoms: _35  and  _36
REMARK   15  A    between atoms: _35  and  _37
REMARK   16  A    between atoms: _38  and  _40
REMARK                            x       y       z     vdW  Elec       q    Type
REMARK                         _______ _______ _______ _____ _____    ______ ____
ROOT
ATOM      1  C   UNL     1      18.199  -1.083  22.175  0.00  0.00    +0.163 C 
ENDROOT
BRANCH   1   2
ATOM      2  O   UNL     1      18.842  -2.368  22.182  0.00  0.00    -0.388 OA
ATOM      3  H   UNL     1      18.354  -2.974  21.620  0.00  0.00    +0.210 HD
ENDBRANCH   1   2
BRANCH   1   4
ATOM      4  C   UNL     1      18.950  -0.128  21.253  0.00  0.00    +0.141 C 
BRANCH   4   7
ATOM      5  C   UNL     1      17.574   1.780  20.498  0.00  0.00    +0.401 C 
ATOM      6  O   UNL     1      17.115   1.184  19.522  0.00  0.00    -0.226 OA
ATOM      7  N   UNL     1      18.443   1.246  21.357  0.00  0.00    -0.279 N 
ATOM      8  H   UNL     1      18.771   1.818  22.122  0.00  0.00    +0.152 HD
BRANCH   5   9
ATOM      9  O   UNL     1      17.169   3.130  20.742  0.00  0.00    -0.444 OA
BRANCH   9  10
ATOM     10  C   UNL     1      16.598   3.229  22.049  0.00  0.00    +0.292 C 
BRANCH  10  12
ATOM     11  N   UNL     1      18.306   3.211  23.849  0.00  0.00    -0.131 NA
ATOM     12  C   UNL     1      17.529   3.908  22.971  0.00  0.00    +0.121 A 
ATOM     13  C   UNL     1      17.778   5.250  23.121  0.00  0.00    +0.143 A 
ATOM     14  N   UNL     1      18.726   5.331  24.113  0.00  0.00    -0.220 N 
ATOM     15  N   UNL     1      19.032   4.081  24.541  0.00  0.00    -0.060 NA
BRANCH  14  16
ATOM     16  C   UNL     1      19.331   6.492  24.657  0.00  0.00    +0.071 A 
ATOM     17  C   UNL     1      18.800   7.086  25.811  0.00  0.00    +0.077 A 
ATOM     18  C   UNL     1      19.424   8.212  26.302  0.00  0.00    +0.168 A 
ATOM     19  O   UNL     1      19.039   8.902  27.407  0.00  0.00    -0.453 OA
ATOM     20  C   UNL     1      20.036   9.943  27.436  0.00  0.00    +0.466 C 
ATOM     21  O   UNL     1      20.984   9.859  26.349  0.00  0.00    -0.453 OA
ATOM     22  C   UNL     1      20.532   8.755  25.698  0.00  0.00    +0.166 A 
ATOM     23  C   UNL     1      21.081   8.200  24.562  0.00  0.00    +0.051 A 
ATOM     24  C   UNL     1      20.473   7.053  24.034  0.00  0.00    +0.031 A 
ENDBRANCH  14  16
ENDBRANCH  10  12
ENDBRANCH   9  10
ENDBRANCH   5   9
ENDBRANCH   4   7
ENDBRANCH   1   4
BRANCH   1  25
ATOM     25  C   UNL     1      18.140  -0.489  23.593  0.00  0.00    +0.175 C 
BRANCH  25  26
ATOM     26  C   UNL     1      18.040  -1.577  24.672  0.00  0.00    +0.176 C 
ATOM     27  O   UNL     1      17.074  -2.566  24.221  0.00  0.00    -0.332 OA
ATOM     28  C   UNL     1      16.924  -3.744  25.082  0.00  0.00    +0.277 C 
ATOM     29  C   UNL     1      16.596  -3.315  26.533  0.00  0.00    +0.110 C 
ATOM     30  C   UNL     1      17.578  -2.240  27.045  0.00  0.00    +0.143 C 
ATOM     31  C   UNL     1      17.659  -1.063  26.072  0.00  0.00    +0.133 C 
BRANCH  31  32
ATOM     32  N   UNL     1      18.661  -0.087  26.527  0.00  0.00    -0.308 N 
ATOM     33  H   UNL     1      19.628  -0.380  26.551  0.00  0.00    +0.149 HD
ATOM     34  C   UNL     1      18.377   1.161  26.911  0.00  0.00    +0.210 C 
ATOM     35  C   UNL     1      16.892   1.568  26.888  0.00  0.00    +0.109 C 
ATOM     36  O   UNL     1      19.240   1.962  27.273  0.00  0.00    -0.276 OA
ENDBRANCH  31  32
BRANCH  28  37
ATOM     37  C   UNL     1      18.211  -4.594  25.074  0.00  0.00    +0.414 C 
ATOM     38  O   UNL     1      18.531  -5.244  26.069  0.00  0.00    -0.240 OA
ATOM     39  O   UNL     1      18.929  -4.631  24.074  0.00  0.00    -0.240 OA
ENDBRANCH  28  37
BRANCH  30  40
ATOM     40  O   UNL     1      17.150  -1.766  28.322  0.00  0.00    -0.390 OA
ATOM     41  H   UNL     1      16.270  -1.390  28.246  0.00  0.00    +0.210 HD
ENDBRANCH  30  40
BRANCH  28  42
ATOM     42  O   UNL     1      15.816  -4.531  24.575  0.00  0.00    -0.343 OA
ATOM     43  C   UNL     1      15.349  -4.154  23.255  0.00  0.00    +0.198 C 
ENDBRANCH  28  42
ENDBRANCH  25  26
BRANCH  25  44
ATOM     44  O   UNL     1      17.030   0.424  23.703  0.00  0.00    -0.387 OA
ATOM     45  H   UNL     1      17.106   1.104  23.030  0.00  0.00    +0.210 HD
ENDBRANCH  25  44
ENDBRANCH   1  25
TORSDOF 14
