REMARK VINA RESULT:    -7.066      2.283      3.487
REMARK INTER + INTRA:         -14.082
REMARK INTER:                 -12.245
REMARK INTRA:                  -1.837
REMARK UNBOUND:                -1.853
REMARK  Name = lig_assembled_86.pdb
REMARK  17 active torsions:
REMARK  status: ('A' for Active; 'I' for Inactive)
REMARK    1  A    between atoms: _2  and  _10
REMARK    2  A    between atoms: _3  and  _13
REMARK    3  A    between atoms: _5  and  _21
REMARK    4  A    between atoms: _7  and  _8
REMARK    5  A    between atoms: _7  and  _21
REMARK    6  A    between atoms: _17  and  _37
REMARK    7  A    between atoms: _19  and  _25
REMARK    8  A    between atoms: _20  and  _24
REMARK    9  A    between atoms: _24  and  _25
REMARK   10  A    between atoms: _27  and  _28
REMARK   11  A    between atoms: _29  and  _30
REMARK   12  A    between atoms: _31  and  _33
REMARK   13  A    between atoms: _33  and  _34
REMARK   14  A    between atoms: _33  and  _35
REMARK   15  A    between atoms: _35  and  _36
REMARK   16  A    between atoms: _35  and  _37
REMARK   17  A    between atoms: _38  and  _40
REMARK                            x       y       z     vdW  Elec       q    Type
REMARK                         _______ _______ _______ _____ _____    ______ ____
ROOT
ATOM      1  C   UNL     1       6.426   2.875  32.776  0.00  0.00    +0.163 C 
ENDROOT
BRANCH   1   2
ATOM      2  O   UNL     1       6.207   3.232  31.402  0.00  0.00    -0.388 OA
ATOM      3  H   UNL     1       6.076   4.181  31.334  0.00  0.00    +0.210 HD
ENDBRANCH   1   2
BRANCH   1   4
ATOM      4  C   UNL     1       5.166   3.145  33.592  0.00  0.00    +0.141 C 
BRANCH   4   7
ATOM      5  C   UNL     1       3.005   3.521  32.455  0.00  0.00    +0.401 C 
ATOM      6  O   UNL     1       2.592   2.377  32.658  0.00  0.00    -0.226 OA
ATOM      7  N   UNL     1       4.199   3.964  32.851  0.00  0.00    -0.279 N 
ATOM      8  H   UNL     1       4.452   4.916  32.629  0.00  0.00    +0.152 HD
BRANCH   5   9
ATOM      9  O   UNL     1       2.172   4.445  31.750  0.00  0.00    -0.444 OA
BRANCH   9  10
ATOM     10  C   UNL     1       0.919   3.825  31.449  0.00  0.00    +0.292 C 
BRANCH  10  12
ATOM     11  N   UNL     1      -0.240   4.319  29.313  0.00  0.00    -0.131 NA
ATOM     12  C   UNL     1       0.762   3.675  29.989  0.00  0.00    +0.120 A 
ATOM     13  C   UNL     1       1.513   2.952  29.093  0.00  0.00    +0.137 A 
ATOM     14  N   UNL     1       0.941   3.224  27.887  0.00  0.00    -0.248 N 
ATOM     15  N   UNL     1      -0.132   4.021  28.024  0.00  0.00    -0.065 NA
BRANCH  14  16
ATOM     16  C   UNL     1       1.379   2.762  26.579  0.00  0.00    +0.112 C 
ATOM     17  C   UNL     1       0.196   2.282  25.714  0.00  0.00    +0.045 C 
ATOM     18  C   UNL     1       0.206   2.801  24.273  0.00  0.00    +0.059 C 
ATOM     19  C   UNL     1      -0.245   4.264  24.209  0.00  0.00    +0.020 C 
ATOM     20  C   UNL     1       1.052   5.068  24.261  0.00  0.00    +0.020 C 
ATOM     21  C   UNL     1       2.149   4.016  24.434  0.00  0.00    +0.059 C 
ATOM     22  N   UNL     1       1.554   2.890  23.713  0.00  0.00    -0.299 NA
ATOM     23  C   UNL     1       2.330   1.665  23.675  0.00  0.00    +0.105 C 
ATOM     24  C   UNL     1       2.403   3.713  25.917  0.00  0.00    +0.045 C 
ENDBRANCH  14  16
ENDBRANCH  10  12
ENDBRANCH   9  10
ENDBRANCH   5   9
ENDBRANCH   4   7
ENDBRANCH   1   4
BRANCH   1  25
ATOM     25  C   UNL     1       7.603   3.667  33.370  0.00  0.00    +0.175 C 
BRANCH  25  26
ATOM     26  C   UNL     1       7.289   4.203  34.775  0.00  0.00    +0.176 C 
ATOM     27  O   UNL     1       7.345   5.655  34.723  0.00  0.00    -0.332 OA
ATOM     28  C   UNL     1       6.966   6.349  35.957  0.00  0.00    +0.277 C 
ATOM     29  C   UNL     1       7.811   5.834  37.148  0.00  0.00    +0.110 C 
ATOM     30  C   UNL     1       7.807   4.293  37.226  0.00  0.00    +0.143 C 
ATOM     31  C   UNL     1       8.213   3.675  35.888  0.00  0.00    +0.133 C 
BRANCH  31  32
ATOM     32  N   UNL     1       8.122   2.208  35.948  0.00  0.00    -0.308 N 
ATOM     33  H   UNL     1       7.246   1.802  36.248  0.00  0.00    +0.149 HD
ATOM     34  C   UNL     1       9.119   1.378  35.633  0.00  0.00    +0.210 C 
ATOM     35  C   UNL     1      10.449   2.028  35.205  0.00  0.00    +0.109 C 
ATOM     36  O   UNL     1       9.009   0.152  35.679  0.00  0.00    -0.276 OA
ENDBRANCH  31  32
BRANCH  28  37
ATOM     37  C   UNL     1       5.468   6.144  36.262  0.00  0.00    +0.414 C 
ATOM     38  O   UNL     1       5.073   6.092  37.426  0.00  0.00    -0.240 OA
ATOM     39  O   UNL     1       4.654   6.031  35.344  0.00  0.00    -0.240 OA
ENDBRANCH  28  37
BRANCH  30  40
ATOM     40  O   UNL     1       8.715   3.859  38.239  0.00  0.00    -0.390 OA
ATOM     41  H   UNL     1       8.221   3.545  39.000  0.00  0.00    +0.210 HD
ENDBRANCH  30  40
BRANCH  28  42
ATOM     42  O   UNL     1       7.240   7.763  35.780  0.00  0.00    -0.343 OA
ATOM     43  C   UNL     1       7.644   8.144  34.440  0.00  0.00    +0.198 C 
ENDBRANCH  28  42
ENDBRANCH  25  26
BRANCH  25  44
ATOM     44  O   UNL     1       7.963   4.753  32.494  0.00  0.00    -0.387 OA
ATOM     45  H   UNL     1       7.189   5.292  32.316  0.00  0.00    +0.210 HD
ENDBRANCH  25  44
ENDBRANCH   1  25
TORSDOF 14
