REMARK VINA RESULT:    -7.084     14.095     16.031
REMARK INTER + INTRA:         -14.252
REMARK INTER:                 -11.929
REMARK INTRA:                  -2.324
REMARK UNBOUND:                -1.992
REMARK  Name = lig_assembled_25.pdb
REMARK  16 active torsions:
REMARK  status: ('A' for Active; 'I' for Inactive)
REMARK    1  A    between atoms: _2  and  _9
REMARK    2  A    between atoms: _4  and  _25
REMARK    3  A    between atoms: _6  and  _7
REMARK    4  A    between atoms: _6  and  _25
REMARK    5  A    between atoms: _21  and  _41
REMARK    6  A    between atoms: _23  and  _29
REMARK    7  A    between atoms: _24  and  _28
REMARK    8  A    between atoms: _28  and  _29
REMARK    9  A    between atoms: _31  and  _32
REMARK   10  A    between atoms: _33  and  _34
REMARK   11  A    between atoms: _35  and  _37
REMARK   12  A    between atoms: _37  and  _38
REMARK   13  A    between atoms: _37  and  _39
REMARK   14  A    between atoms: _39  and  _40
REMARK   15  A    between atoms: _39  and  _41
REMARK   16  A    between atoms: _42  and  _44
REMARK                            x       y       z     vdW  Elec       q    Type
REMARK                         _______ _______ _______ _____ _____    ______ ____
ROOT
ATOM      1  C   UNL     1      19.114   9.679  28.378  0.00  0.00    +0.141 C 
ENDROOT
BRANCH   1   4
ATOM      2  C   UNL     1      19.257   7.935  26.633  0.00  0.00    +0.401 C 
ATOM      3  O   UNL     1      18.258   8.327  26.026  0.00  0.00    -0.226 OA
ATOM      4  N   UNL     1      19.726   8.504  27.744  0.00  0.00    -0.279 N 
ATOM      5  H   UNL     1      20.548   8.104  28.175  0.00  0.00    +0.152 HD
BRANCH   2   6
ATOM      6  O   UNL     1      19.971   6.801  26.134  0.00  0.00    -0.444 OA
BRANCH   6   7
ATOM      7  C   UNL     1      20.008   6.849  24.705  0.00  0.00    +0.292 C 
BRANCH   7   9
ATOM      8  N   UNL     1      18.197   6.252  23.136  0.00  0.00    -0.131 NA
ATOM      9  C   UNL     1      19.057   5.878  24.132  0.00  0.00    +0.120 A 
ATOM     10  C   UNL     1      18.834   4.556  24.447  0.00  0.00    +0.138 A 
ATOM     11  N   UNL     1      17.812   4.183  23.620  0.00  0.00    -0.240 N 
ATOM     12  N   UNL     1      17.442   5.209  22.824  0.00  0.00    -0.064 NA
BRANCH  11  13
ATOM     13  C   UNL     1      17.071   2.934  23.557  0.00  0.00    +0.170 C 
ATOM     14  C   UNL     1      17.241   2.092  24.814  0.00  0.00    -0.011 A 
ATOM     15  C   UNL     1      17.718   0.806  24.474  0.00  0.00    -0.012 A 
ATOM     16  C   UNL     1      17.900   0.738  23.037  0.00  0.00    -0.012 A 
ATOM     17  C   UNL     1      18.309  -0.315  22.235  0.00  0.00    +0.009 A 
ATOM     18  C   UNL     1      18.367  -0.114  20.853  0.00  0.00    +0.001 A 
ATOM     19  C   UNL     1      18.024   1.127  20.291  0.00  0.00    +0.000 A 
ATOM     20  C   UNL     1      17.612   2.191  21.097  0.00  0.00    +0.006 A 
ATOM     21  C   UNL     1      17.928  -0.147  25.455  0.00  0.00    +0.009 A 
ATOM     22  C   UNL     1      17.658   0.195  26.784  0.00  0.00    +0.001 A 
ATOM     23  C   UNL     1      17.181   1.473  27.118  0.00  0.00    +0.000 A 
ATOM     24  C   UNL     1      16.964   2.435  26.131  0.00  0.00    +0.006 A 
ATOM     25  C   UNL     1      17.555   1.985  22.468  0.00  0.00    -0.011 A 
ENDBRANCH  11  13
ENDBRANCH   7   9
ENDBRANCH   6   7
ENDBRANCH   2   6
ENDBRANCH   1   4
BRANCH   1  26
ATOM     26  C   UNL     1      18.838   9.447  29.859  0.00  0.00    +0.163 C 
BRANCH  26  27
ATOM     27  O   UNL     1      17.531   9.939  30.199  0.00  0.00    -0.388 OA
ATOM     28  H   UNL     1      16.866   9.317  29.896  0.00  0.00    +0.210 HD
ENDBRANCH  26  27
BRANCH  26  29
ATOM     29  C   UNL     1      18.960   7.946  30.176  0.00  0.00    +0.175 C 
BRANCH  29  30
ATOM     30  C   UNL     1      18.082   7.534  31.367  0.00  0.00    +0.176 C 
ATOM     31  O   UNL     1      18.229   8.546  32.401  0.00  0.00    -0.332 OA
ATOM     32  C   UNL     1      17.377   8.373  33.582  0.00  0.00    +0.277 C 
ATOM     33  C   UNL     1      17.580   6.966  34.195  0.00  0.00    +0.110 C 
ATOM     34  C   UNL     1      17.465   5.858  33.126  0.00  0.00    +0.143 C 
ATOM     35  C   UNL     1      18.391   6.139  31.943  0.00  0.00    +0.133 C 
BRANCH  35  36
ATOM     36  N   UNL     1      18.209   5.124  30.894  0.00  0.00    -0.308 N 
ATOM     37  H   UNL     1      17.339   5.126  30.380  0.00  0.00    +0.149 HD
ATOM     38  C   UNL     1      19.119   4.198  30.575  0.00  0.00    +0.210 C 
ATOM     39  C   UNL     1      20.424   4.204  31.394  0.00  0.00    +0.109 C 
ATOM     40  O   UNL     1      18.945   3.369  29.682  0.00  0.00    -0.276 OA
ENDBRANCH  35  36
BRANCH  32  41
ATOM     41  C   UNL     1      15.890   8.567  33.217  0.00  0.00    +0.414 C 
ATOM     42  O   UNL     1      15.544   9.508  32.504  0.00  0.00    -0.240 OA
ATOM     43  O   UNL     1      15.038   7.783  33.635  0.00  0.00    -0.240 OA
ENDBRANCH  32  41
BRANCH  34  44
ATOM     44  O   UNL     1      17.807   4.596  33.702  0.00  0.00    -0.390 OA
ATOM     45  H   UNL     1      17.031   4.210  34.113  0.00  0.00    +0.210 HD
ENDBRANCH  34  44
BRANCH  32  46
ATOM     46  O   UNL     1      17.771   9.362  34.568  0.00  0.00    -0.343 OA
ATOM     47  C   UNL     1      17.196   9.175  35.886  0.00  0.00    +0.198 C 
ENDBRANCH  32  46
ENDBRANCH  29  30
BRANCH  29  48
ATOM     48  O   UNL     1      20.336   7.602  30.430  0.00  0.00    -0.387 OA
ATOM     49  H   UNL     1      20.873   8.398  30.417  0.00  0.00    +0.210 HD
ENDBRANCH  29  48
ENDBRANCH  26  29
ENDBRANCH   1  26
TORSDOF 14
