REMARK VINA RESULT:    -5.958      2.395      4.783
REMARK INTER + INTRA:         -14.000
REMARK INTER:                 -11.658
REMARK INTRA:                  -2.343
REMARK UNBOUND:                -2.643
REMARK  Name = lig_assembled_21.pdb
REMARK  20 active torsions:
REMARK  status: ('A' for Active; 'I' for Inactive)
REMARK    1  A    between atoms: _2  and  _9
REMARK    2  A    between atoms: _4  and  _23
REMARK    3  A    between atoms: _6  and  _7
REMARK    4  A    between atoms: _6  and  _23
REMARK    5  A    between atoms: _9  and  _10
REMARK    6  A    between atoms: _11  and  _18
REMARK    7  A    between atoms: _12  and  _13
REMARK    8  A    between atoms: _12  and  _18
REMARK    9  A    between atoms: _19  and  _39
REMARK   10  A    between atoms: _21  and  _27
REMARK   11  A    between atoms: _22  and  _26
REMARK   12  A    between atoms: _26  and  _27
REMARK   13  A    between atoms: _29  and  _30
REMARK   14  A    between atoms: _31  and  _32
REMARK   15  A    between atoms: _33  and  _35
REMARK   16  A    between atoms: _35  and  _36
REMARK   17  A    between atoms: _35  and  _37
REMARK   18  A    between atoms: _37  and  _38
REMARK   19  A    between atoms: _37  and  _39
REMARK   20  A    between atoms: _40  and  _42
REMARK                            x       y       z     vdW  Elec       q    Type
REMARK                         _______ _______ _______ _____ _____    ______ ____
ROOT
ATOM      1  C   UNL     1       5.107   4.516  33.599  0.00  0.00    +0.163 C 
ENDROOT
BRANCH   1   2
ATOM      2  O   UNL     1       4.305   4.850  34.744  0.00  0.00    -0.388 OA
ATOM      3  H   UNL     1       3.626   4.181  34.866  0.00  0.00    +0.210 HD
ENDBRANCH   1   2
BRANCH   1   4
ATOM      4  C   UNL     1       6.576   4.300  34.002  0.00  0.00    +0.175 C 
BRANCH   4   5
ATOM      5  C   UNL     1       6.778   4.390  35.522  0.00  0.00    +0.176 C 
ATOM      6  O   UNL     1       7.079   5.774  35.852  0.00  0.00    -0.332 OA
ATOM      7  C   UNL     1       7.200   6.072  37.282  0.00  0.00    +0.277 C 
ATOM      8  C   UNL     1       8.243   5.138  37.943  0.00  0.00    +0.110 C 
ATOM      9  C   UNL     1       7.983   3.657  37.595  0.00  0.00    +0.143 C 
ATOM     10  C   UNL     1       7.871   3.461  36.082  0.00  0.00    +0.133 C 
BRANCH  10  11
ATOM     11  N   UNL     1       7.537   2.063  35.767  0.00  0.00    -0.308 N 
ATOM     12  H   UNL     1       6.687   1.682  36.158  0.00  0.00    +0.149 HD
ATOM     13  C   UNL     1       8.284   1.266  34.999  0.00  0.00    +0.210 C 
ATOM     14  C   UNL     1       9.586   1.869  34.439  0.00  0.00    +0.109 C 
ATOM     15  O   UNL     1       7.972   0.103  34.740  0.00  0.00    -0.276 OA
ENDBRANCH  10  11
BRANCH   7  16
ATOM     16  C   UNL     1       5.840   5.911  37.992  0.00  0.00    +0.414 C 
ATOM     17  O   UNL     1       4.796   6.188  37.402  0.00  0.00    -0.240 OA
ATOM     18  O   UNL     1       5.786   5.504  39.153  0.00  0.00    -0.240 OA
ENDBRANCH   7  16
BRANCH   9  19
ATOM     19  O   UNL     1       9.049   2.850  38.096  0.00  0.00    -0.390 OA
ATOM     20  H   UNL     1       8.731   2.320  38.831  0.00  0.00    +0.210 HD
ENDBRANCH   9  19
BRANCH   7  21
ATOM     21  O   UNL     1       7.662   7.441  37.417  0.00  0.00    -0.343 OA
ATOM     22  C   UNL     1       8.198   8.029  36.205  0.00  0.00    +0.198 C 
ENDBRANCH   7  21
ENDBRANCH   4   5
BRANCH   4  23
ATOM     23  O   UNL     1       7.420   5.257  33.331  0.00  0.00    -0.387 OA
ATOM     24  H   UNL     1       7.861   5.808  33.983  0.00  0.00    +0.210 HD
ENDBRANCH   4  23
ENDBRANCH   1   4
BRANCH   1  25
ATOM     25  C   UNL     1       4.570   3.252  32.936  0.00  0.00    +0.141 C 
BRANCH  25  28
ATOM     26  C   UNL     1       2.352   3.784  31.986  0.00  0.00    +0.401 C 
ATOM     27  O   UNL     1       1.772   3.744  33.073  0.00  0.00    -0.226 OA
ATOM     28  N   UNL     1       3.657   3.560  31.829  0.00  0.00    -0.279 N 
ATOM     29  H   UNL     1       4.040   3.606  30.895  0.00  0.00    +0.152 HD
BRANCH  26  30
ATOM     30  O   UNL     1       1.599   4.081  30.808  0.00  0.00    -0.444 OA
BRANCH  30  31
ATOM     31  C   UNL     1       1.524   2.916  29.981  0.00  0.00    +0.292 C 
BRANCH  31  33
ATOM     32  N   UNL     1       2.356   3.716  27.795  0.00  0.00    -0.131 NA
ATOM     33  C   UNL     1       1.310   3.302  28.574  0.00  0.00    +0.120 A 
ATOM     34  C   UNL     1       0.160   3.298  27.817  0.00  0.00    +0.137 A 
ATOM     35  N   UNL     1       0.588   3.631  26.560  0.00  0.00    -0.247 N 
ATOM     36  N   UNL     1       1.903   3.916  26.567  0.00  0.00    -0.065 NA
BRANCH  35  37
ATOM     37  C   UNL     1      -0.218   3.601  25.344  0.00  0.00    +0.184 C 
BRANCH  37  38
ATOM     38  C   UNL     1       0.532   3.836  24.055  0.00  0.00    +0.016 A 
ATOM     39  C   UNL     1       1.091   2.776  23.317  0.00  0.00    +0.137 A 
ATOM     40  C   UNL     1       1.777   3.014  22.126  0.00  0.00    +0.047 A 
ATOM     41  C   UNL     1       1.899   4.318  21.645  0.00  0.00    +0.004 A 
ATOM     42  C   UNL     1       1.364   5.382  22.369  0.00  0.00    +0.001 A 
ATOM     43  C   UNL     1       0.683   5.143  23.563  0.00  0.00    +0.009 A 
BRANCH  39  44
ATOM     44  O   UNL     1       0.997   1.483  23.885  0.00  0.00    -0.426 OA
BRANCH  44  45
ATOM     45  C   UNL     1       2.057   0.883  24.565  0.00  0.00    +0.309 C 
ATOM     46  O   UNL     1       3.243   0.912  24.262  0.00  0.00    -0.251 OA
ATOM     47  C   UNL     1       1.530   0.233  25.811  0.00  0.00    +0.136 C 
ENDBRANCH  44  45
ENDBRANCH  39  44
ENDBRANCH  37  38
ENDBRANCH  35  37
ENDBRANCH  31  33
ENDBRANCH  30  31
ENDBRANCH  26  30
ENDBRANCH  25  28
ENDBRANCH   1  25
TORSDOF 17
