REMARK VINA RESULT:    -7.298     17.903     24.291
REMARK INTER + INTRA:         -17.172
REMARK INTER:                 -14.507
REMARK INTRA:                  -2.665
REMARK UNBOUND:                -3.474
REMARK  Name = lig_assembled_34.pdb
REMARK  19 active torsions:
REMARK  status: ('A' for Active; 'I' for Inactive)
REMARK    1  A    between atoms: _2  and  _9
REMARK    2  A    between atoms: _4  and  _37
REMARK    3  A    between atoms: _6  and  _7
REMARK    4  A    between atoms: _6  and  _37
REMARK    5  A    between atoms: _11  and  _12
REMARK    6  A    between atoms: _13  and  _14
REMARK    7  A    between atoms: _18  and  _31
REMARK    8  A    between atoms: _33  and  _53
REMARK    9  A    between atoms: _35  and  _41
REMARK   10  A    between atoms: _36  and  _40
REMARK   11  A    between atoms: _40  and  _41
REMARK   12  A    between atoms: _43  and  _44
REMARK   13  A    between atoms: _45  and  _46
REMARK   14  A    between atoms: _47  and  _49
REMARK   15  A    between atoms: _49  and  _50
REMARK   16  A    between atoms: _49  and  _51
REMARK   17  A    between atoms: _51  and  _52
REMARK   18  A    between atoms: _51  and  _53
REMARK   19  A    between atoms: _54  and  _56
REMARK                            x       y       z     vdW  Elec       q    Type
REMARK                         _______ _______ _______ _____ _____    ______ ____
ROOT
ATOM      1  N   UNL     1       2.612   0.044  28.825  0.00  0.00    -0.131 NA
ATOM      2  C   UNL     1       2.448   1.277  29.392  0.00  0.00    +0.121 A 
ATOM      3  C   UNL     1       1.978   2.145  28.438  0.00  0.00    +0.143 A 
ATOM      4  N   UNL     1       1.836   1.394  27.292  0.00  0.00    -0.220 N 
ATOM      5  N   UNL     1       2.253   0.124  27.546  0.00  0.00    -0.060 NA
ENDROOT
BRANCH   4   6
ATOM      6  C   UNL     1       1.305   1.801  26.039  0.00  0.00    +0.068 A 
ATOM      7  C   UNL     1       1.500   3.114  25.598  0.00  0.00    +0.038 A 
ATOM      8  C   UNL     1       0.893   3.625  24.425  0.00  0.00    +0.007 A 
ATOM      9  C   UNL     1       0.122   2.752  23.631  0.00  0.00    -0.008 A 
ATOM     10  C   UNL     1      -0.030   1.410  24.058  0.00  0.00    +0.011 A 
ATOM     11  C   UNL     1       0.538   0.939  25.255  0.00  0.00    +0.028 A 
BRANCH   9  12
ATOM     12  C   UNL     1      -0.625   3.157  22.396  0.00  0.00    +0.004 A 
ATOM     13  C   UNL     1      -1.921   3.579  22.431  0.00  0.00    +0.026 A 
ATOM     14  C   UNL     1      -2.711   3.613  23.668  0.00  0.00    +0.016 A 
ATOM     15  C   UNL     1      -4.031   3.848  23.652  0.00  0.00    +0.051 A 
ATOM     16  C   UNL     1      -4.733   4.120  22.375  0.00  0.00    +0.183 A 
ATOM     17  O   UNL     1      -5.952   4.273  22.338  0.00  0.00    -0.288 OA
ATOM     18  C   UNL     1      -3.906   4.273  21.162  0.00  0.00    +0.097 A 
ATOM     19  C   UNL     1      -2.586   4.052  21.203  0.00  0.00    +0.140 A 
ATOM     20  O   UNL     1      -1.834   4.345  20.075  0.00  0.00    -0.455 OA
ATOM     21  C   UNL     1      -0.543   3.892  20.013  0.00  0.00    +0.140 A 
ATOM     22  C   UNL     1       0.139   4.132  18.820  0.00  0.00    +0.092 A 
ATOM     23  C   UNL     1       1.430   3.651  18.667  0.00  0.00    +0.120 A 
ATOM     24  C   UNL     1       2.013   2.868  19.658  0.00  0.00    +0.046 A 
ATOM     25  C   UNL     1       1.321   2.647  20.853  0.00  0.00    +0.016 A 
ATOM     26  C   UNL     1       0.055   3.212  21.070  0.00  0.00    +0.026 A 
BRANCH  23  27
ATOM     27  O   UNL     1       2.110   3.974  17.530  0.00  0.00    -0.507 OA
ATOM     28  H   UNL     1       1.753   4.817  17.205  0.00  0.00    +0.292 HD
ENDBRANCH  23  27
ENDBRANCH   9  12
BRANCH   8  29
ATOM     29  C   UNL     1       1.066   5.109  24.165  0.00  0.00    +0.072 C 
ATOM     30  O   UNL     1       0.209   5.876  24.712  0.00  0.00    -0.545 OA
ATOM     31  O   UNL     1       1.985   5.477  23.376  0.00  0.00    -0.545 OA
ENDBRANCH   8  29
ENDBRANCH   4   6
BRANCH   2  32
ATOM     32  C   UNL     1       2.752   1.542  30.811  0.00  0.00    +0.292 C 
BRANCH  32  33
ATOM     33  O   UNL     1       2.189   2.789  31.226  0.00  0.00    -0.444 OA
BRANCH  33  34
ATOM     34  C   UNL     1       2.966   3.332  32.297  0.00  0.00    +0.401 C 
ATOM     35  O   UNL     1       2.388   3.887  33.234  0.00  0.00    -0.226 OA
ATOM     36  N   UNL     1       4.290   3.196  32.213  0.00  0.00    -0.279 N 
ATOM     37  H   UNL     1       4.670   2.716  31.409  0.00  0.00    +0.152 HD
BRANCH  36  38
ATOM     38  C   UNL     1       5.226   3.704  33.222  0.00  0.00    +0.141 C 
BRANCH  38  39
ATOM     39  C   UNL     1       6.425   2.778  33.404  0.00  0.00    +0.163 C 
BRANCH  39  40
ATOM     40  O   UNL     1       6.580   1.942  32.245  0.00  0.00    -0.388 OA
ATOM     41  H   UNL     1       5.917   1.247  32.261  0.00  0.00    +0.210 HD
ENDBRANCH  39  40
BRANCH  39  42
ATOM     42  C   UNL     1       7.690   3.618  33.650  0.00  0.00    +0.175 C 
BRANCH  42  43
ATOM     43  C   UNL     1       7.699   4.254  35.048  0.00  0.00    +0.176 C 
ATOM     44  O   UNL     1       7.693   5.698  34.882  0.00  0.00    -0.332 OA
ATOM     45  C   UNL     1       7.593   6.478  36.119  0.00  0.00    +0.277 C 
ATOM     46  C   UNL     1       8.713   6.070  37.108  0.00  0.00    +0.110 C 
ATOM     47  C   UNL     1       8.780   4.539  37.292  0.00  0.00    +0.143 C 
ATOM     48  C   UNL     1       8.878   3.827  35.942  0.00  0.00    +0.133 C 
BRANCH  48  49
ATOM     49  N   UNL     1       8.853   2.368  36.126  0.00  0.00    -0.308 N 
ATOM     50  H   UNL     1       8.039   1.962  36.565  0.00  0.00    +0.149 HD
ATOM     51  C   UNL     1       9.836   1.545  35.749  0.00  0.00    +0.210 C 
ATOM     52  C   UNL     1      11.074   2.198  35.106  0.00  0.00    +0.109 C 
ATOM     53  O   UNL     1       9.781   0.324  35.903  0.00  0.00    -0.276 OA
ENDBRANCH  48  49
BRANCH  45  54
ATOM     54  C   UNL     1       6.217   6.273  36.786  0.00  0.00    +0.414 C 
ATOM     55  O   UNL     1       5.225   6.030  36.099  0.00  0.00    -0.240 OA
ATOM     56  O   UNL     1       6.099   6.350  38.009  0.00  0.00    -0.240 OA
ENDBRANCH  45  54
BRANCH  47  57
ATOM     57  O   UNL     1       9.916   4.198  38.087  0.00  0.00    -0.390 OA
ATOM     58  H   UNL     1      10.678   4.701  37.790  0.00  0.00    +0.210 HD
ENDBRANCH  47  57
BRANCH  45  59
ATOM     59  O   UNL     1       7.769   7.878  35.783  0.00  0.00    -0.343 OA
ATOM     60  C   UNL     1       7.549   8.205  34.387  0.00  0.00    +0.198 C 
ENDBRANCH  45  59
ENDBRANCH  42  43
BRANCH  42  61
ATOM     61  O   UNL     1       7.813   4.638  32.639  0.00  0.00    -0.387 OA
ATOM     62  H   UNL     1       7.286   4.397  31.874  0.00  0.00    +0.210 HD
ENDBRANCH  42  61
ENDBRANCH  39  42
ENDBRANCH  38  39
ENDBRANCH  36  38
ENDBRANCH  33  34
ENDBRANCH  32  33
ENDBRANCH   2  32
TORSDOF 17
