REMARK VINA RESULT:    -6.585      3.503     12.600
REMARK INTER + INTRA:         -13.226
REMARK INTER:                 -11.243
REMARK INTRA:                  -1.983
REMARK UNBOUND:                -1.828
REMARK  Name = lig_assembled_70.pdb
REMARK  16 active torsions:
REMARK  status: ('A' for Active; 'I' for Inactive)
REMARK    1  A    between atoms: _2  and  _10
REMARK    2  A    between atoms: _5  and  _22
REMARK    3  A    between atoms: _7  and  _8
REMARK    4  A    between atoms: _7  and  _22
REMARK    5  A    between atoms: _18  and  _38
REMARK    6  A    between atoms: _20  and  _26
REMARK    7  A    between atoms: _21  and  _25
REMARK    8  A    between atoms: _25  and  _26
REMARK    9  A    between atoms: _28  and  _29
REMARK   10  A    between atoms: _30  and  _31
REMARK   11  A    between atoms: _32  and  _34
REMARK   12  A    between atoms: _34  and  _35
REMARK   13  A    between atoms: _34  and  _36
REMARK   14  A    between atoms: _36  and  _37
REMARK   15  A    between atoms: _36  and  _38
REMARK   16  A    between atoms: _39  and  _41
REMARK                            x       y       z     vdW  Elec       q    Type
REMARK                         _______ _______ _______ _____ _____    ______ ____
ROOT
ATOM      1  C   UNL     1       2.906   2.980  30.900  0.00  0.00    +0.163 C 
ENDROOT
BRANCH   1   2
ATOM      2  O   UNL     1       2.903   1.639  30.383  0.00  0.00    -0.388 OA
ATOM      3  H   UNL     1       3.556   1.113  30.851  0.00  0.00    +0.210 HD
ENDBRANCH   1   2
BRANCH   1   4
ATOM      4  C   UNL     1       3.423   2.984  32.335  0.00  0.00    +0.141 C 
BRANCH   4   7
ATOM      5  C   UNL     1       5.850   2.576  32.115  0.00  0.00    +0.401 C 
ATOM      6  O   UNL     1       5.716   1.401  31.763  0.00  0.00    -0.226 OA
ATOM      7  N   UNL     1       4.833   3.387  32.408  0.00  0.00    -0.279 N 
ATOM      8  H   UNL     1       5.044   4.332  32.697  0.00  0.00    +0.152 HD
BRANCH   5   9
ATOM      9  O   UNL     1       7.167   3.121  32.226  0.00  0.00    -0.444 OA
BRANCH   9  10
ATOM     10  C   UNL     1       7.729   2.758  33.490  0.00  0.00    +0.292 C 
BRANCH  10  12
ATOM     11  N   UNL     1       7.390   5.167  33.968  0.00  0.00    -0.131 NA
ATOM     12  C   UNL     1       7.773   3.926  34.390  0.00  0.00    +0.121 A 
ATOM     13  C   UNL     1       8.167   4.002  35.705  0.00  0.00    +0.143 A 
ATOM     14  N   UNL     1       7.992   5.321  36.054  0.00  0.00    -0.218 N 
ATOM     15  N   UNL     1       7.533   6.010  34.984  0.00  0.00    -0.060 NA
BRANCH  14  16
ATOM     16  C   UNL     1       8.208   5.931  37.307  0.00  0.00    +0.086 A 
ATOM     17  C   UNL     1       9.468   5.926  37.884  0.00  0.00    +0.139 A 
ATOM     18  N   UNL     1       9.756   6.533  39.064  0.00  0.00    -0.253 NA
ATOM     19  C   UNL     1       8.768   7.183  39.705  0.00  0.00    +0.071 A 
ATOM     20  C   UNL     1       7.451   7.228  39.202  0.00  0.00    +0.002 A 
ATOM     21  C   UNL     1       6.443   7.917  39.900  0.00  0.00    +0.010 A 
ATOM     22  C   UNL     1       6.739   8.582  41.087  0.00  0.00    +0.001 A 
ATOM     23  C   UNL     1       8.037   8.549  41.583  0.00  0.00    +0.002 A 
ATOM     24  C   UNL     1       9.032   7.848  40.895  0.00  0.00    +0.028 A 
ATOM     25  C   UNL     1       7.179   6.581  37.990  0.00  0.00    +0.039 A 
ENDBRANCH  14  16
ENDBRANCH  10  12
ENDBRANCH   9  10
ENDBRANCH   5   9
ENDBRANCH   4   7
ENDBRANCH   1   4
BRANCH   1  26
ATOM     26  C   UNL     1       1.494   3.588  30.860  0.00  0.00    +0.175 C 
BRANCH  26  27
ATOM     27  C   UNL     1       0.751   3.239  29.563  0.00  0.00    +0.176 C 
ATOM     28  O   UNL     1       1.544   3.729  28.447  0.00  0.00    -0.332 OA
ATOM     29  C   UNL     1       1.038   3.391  27.113  0.00  0.00    +0.277 C 
ATOM     30  C   UNL     1      -0.430   3.858  26.956  0.00  0.00    +0.110 C 
ATOM     31  C   UNL     1      -1.306   3.387  28.136  0.00  0.00    +0.143 C 
ATOM     32  C   UNL     1      -0.685   3.788  29.475  0.00  0.00    +0.133 C 
BRANCH  32  33
ATOM     33  N   UNL     1      -1.483   3.259  30.592  0.00  0.00    -0.308 N 
ATOM     34  H   UNL     1      -1.579   2.256  30.670  0.00  0.00    +0.149 HD
ATOM     35  C   UNL     1      -2.089   4.017  31.510  0.00  0.00    +0.210 C 
ATOM     36  C   UNL     1      -1.946   5.542  31.348  0.00  0.00    +0.109 C 
ATOM     37  O   UNL     1      -2.739   3.546  32.443  0.00  0.00    -0.276 OA
ENDBRANCH  32  33
BRANCH  29  38
ATOM     38  C   UNL     1       1.126   1.871  26.864  0.00  0.00    +0.414 C 
ATOM     39  O   UNL     1       0.334   1.322  26.099  0.00  0.00    -0.240 OA
ATOM     40  O   UNL     1       1.988   1.195  27.427  0.00  0.00    -0.240 OA
ENDBRANCH  29  38
BRANCH  31  41
ATOM     41  O   UNL     1      -2.608   3.963  28.029  0.00  0.00    -0.390 OA
ATOM     42  H   UNL     1      -2.574   4.884  28.298  0.00  0.00    +0.210 HD
ENDBRANCH  31  41
BRANCH  29  43
ATOM     43  O   UNL     1       1.848   4.094  26.135  0.00  0.00    -0.343 OA
ATOM     44  C   UNL     1       1.147   4.487  24.928  0.00  0.00    +0.198 C 
ENDBRANCH  29  43
ENDBRANCH  26  27
BRANCH  26  45
ATOM     45  O   UNL     1       1.565   5.019  31.023  0.00  0.00    -0.387 OA
ATOM     46  H   UNL     1       1.939   5.413  30.231  0.00  0.00    +0.210 HD
ENDBRANCH  26  45
ENDBRANCH   1  26
TORSDOF 14
