REMARK VINA RESULT:    -6.242     14.966     17.482
REMARK INTER + INTRA:         -12.995
REMARK INTER:                 -10.209
REMARK INTRA:                  -2.785
REMARK UNBOUND:                -2.191
REMARK  Name = lig_assembled_48.pdb
REMARK  16 active torsions:
REMARK  status: ('A' for Active; 'I' for Inactive)
REMARK    1  A    between atoms: _2  and  _9
REMARK    2  A    between atoms: _4  and  _18
REMARK    3  A    between atoms: _6  and  _7
REMARK    4  A    between atoms: _6  and  _18
REMARK    5  A    between atoms: _14  and  _34
REMARK    6  A    between atoms: _16  and  _22
REMARK    7  A    between atoms: _17  and  _21
REMARK    8  A    between atoms: _21  and  _22
REMARK    9  A    between atoms: _24  and  _25
REMARK   10  A    between atoms: _26  and  _27
REMARK   11  A    between atoms: _28  and  _30
REMARK   12  A    between atoms: _30  and  _31
REMARK   13  A    between atoms: _30  and  _32
REMARK   14  A    between atoms: _32  and  _33
REMARK   15  A    between atoms: _32  and  _34
REMARK   16  A    between atoms: _35  and  _37
REMARK                            x       y       z     vdW  Elec       q    Type
REMARK                         _______ _______ _______ _____ _____    ______ ____
ROOT
ATOM      1  C   UNL     1      16.915   3.669  22.817  0.00  0.00    +0.163 C 
ENDROOT
BRANCH   1   2
ATOM      2  O   UNL     1      16.050   2.885  23.655  0.00  0.00    -0.388 OA
ATOM      3  H   UNL     1      16.389   1.988  23.715  0.00  0.00    +0.210 HD
ENDBRANCH   1   2
BRANCH   1   4
ATOM      4  C   UNL     1      17.096   2.982  21.467  0.00  0.00    +0.141 C 
BRANCH   4   7
ATOM      5  C   UNL     1      18.328   0.858  21.196  0.00  0.00    +0.401 C 
ATOM      6  O   UNL     1      19.298   1.382  20.643  0.00  0.00    -0.226 OA
ATOM      7  N   UNL     1      17.253   1.529  21.609  0.00  0.00    -0.279 N 
ATOM      8  H   UNL     1      16.503   1.009  22.043  0.00  0.00    +0.152 HD
BRANCH   5   9
ATOM      9  O   UNL     1      18.334  -0.555  21.415  0.00  0.00    -0.444 OA
BRANCH   9  10
ATOM     10  C   UNL     1      19.171  -0.863  22.533  0.00  0.00    +0.292 C 
BRANCH  10  12
ATOM     11  N   UNL     1      18.235  -3.145  22.674  0.00  0.00    -0.131 NA
ATOM     12  C   UNL     1      18.601  -1.986  23.298  0.00  0.00    +0.120 A 
ATOM     13  C   UNL     1      18.367  -2.109  24.650  0.00  0.00    +0.137 A 
ATOM     14  N   UNL     1      17.947  -3.398  24.801  0.00  0.00    -0.248 N 
ATOM     15  N   UNL     1      17.799  -3.990  23.596  0.00  0.00    -0.065 NA
BRANCH  14  16
ATOM     16  C   UNL     1      17.709  -4.187  26.004  0.00  0.00    +0.109 C 
ATOM     17  C   UNL     1      17.192  -3.300  27.154  0.00  0.00    +0.027 C 
ATOM     18  C   UNL     1      15.752  -2.856  26.912  0.00  0.00    +0.002 C 
ATOM     19  C   UNL     1      14.826  -4.059  26.791  0.00  0.00    +0.000 C 
ATOM     20  C   UNL     1      15.290  -5.049  25.726  0.00  0.00    +0.002 C 
ATOM     21  C   UNL     1      16.778  -5.403  25.836  0.00  0.00    +0.027 C 
ENDBRANCH  14  16
ENDBRANCH  10  12
ENDBRANCH   9  10
ENDBRANCH   5   9
ENDBRANCH   4   7
ENDBRANCH   1   4
BRANCH   1  22
ATOM     22  C   UNL     1      18.289   3.870  23.479  0.00  0.00    +0.175 C 
BRANCH  22  23
ATOM     23  C   UNL     1      18.534   2.869  24.617  0.00  0.00    +0.176 C 
ATOM     24  O   UNL     1      17.921   3.403  25.823  0.00  0.00    -0.332 OA
ATOM     25  C   UNL     1      17.963   2.526  26.997  0.00  0.00    +0.277 C 
ATOM     26  C   UNL     1      19.420   2.095  27.298  0.00  0.00    +0.110 C 
ATOM     27  C   UNL     1      20.124   1.549  26.037  0.00  0.00    +0.143 C 
ATOM     28  C   UNL     1      20.016   2.539  24.877  0.00  0.00    +0.133 C 
BRANCH  28  29
ATOM     29  N   UNL     1      20.614   1.971  23.658  0.00  0.00    -0.308 N 
ATOM     30  H   UNL     1      20.166   1.166  23.244  0.00  0.00    +0.149 HD
ATOM     31  C   UNL     1      21.710   2.451  23.064  0.00  0.00    +0.210 C 
ATOM     32  C   UNL     1      22.383   3.663  23.734  0.00  0.00    +0.109 C 
ATOM     33  O   UNL     1      22.180   1.964  22.035  0.00  0.00    -0.276 OA
ENDBRANCH  28  29
BRANCH  25  34
ATOM     34  C   UNL     1      17.090   1.274  26.777  0.00  0.00    +0.414 C 
ATOM     35  O   UNL     1      16.017   1.363  26.181  0.00  0.00    -0.240 OA
ATOM     36  O   UNL     1      17.457   0.175  27.195  0.00  0.00    -0.240 OA
ENDBRANCH  25  34
BRANCH  27  37
ATOM     37  O   UNL     1      21.502   1.307  26.322  0.00  0.00    -0.390 OA
ATOM     38  H   UNL     1      21.674   0.363  26.294  0.00  0.00    +0.210 HD
ENDBRANCH  27  37
BRANCH  25  39
ATOM     39  O   UNL     1      17.465   3.276  28.135  0.00  0.00    -0.343 OA
ATOM     40  C   UNL     1      18.432   3.503  29.190  0.00  0.00    +0.198 C 
ENDBRANCH  25  39
ENDBRANCH  22  23
BRANCH  22  41
ATOM     41  O   UNL     1      18.410   5.220  23.971  0.00  0.00    -0.387 OA
ATOM     42  H   UNL     1      19.301   5.363  24.297  0.00  0.00    +0.210 HD
ENDBRANCH  22  41
ENDBRANCH   1  22
TORSDOF 14
