REMARK VINA RESULT:    -6.292     14.044     15.791
REMARK INTER + INTRA:         -14.188
REMARK INTER:                 -11.940
REMARK INTRA:                  -2.249
REMARK UNBOUND:                -2.378
REMARK  Name = lig_assembled_68.pdb
REMARK  19 active torsions:
REMARK  status: ('A' for Active; 'I' for Inactive)
REMARK    1  A    between atoms: _2  and  _9
REMARK    2  A    between atoms: _4  and  _21
REMARK    3  A    between atoms: _6  and  _7
REMARK    4  A    between atoms: _6  and  _21
REMARK    5  A    between atoms: _9  and  _10
REMARK    6  A    between atoms: _10  and  _11
REMARK    7  A    between atoms: _10  and  _16
REMARK    8  A    between atoms: _17  and  _37
REMARK    9  A    between atoms: _19  and  _25
REMARK   10  A    between atoms: _20  and  _24
REMARK   11  A    between atoms: _24  and  _25
REMARK   12  A    between atoms: _27  and  _28
REMARK   13  A    between atoms: _29  and  _30
REMARK   14  A    between atoms: _31  and  _33
REMARK   15  A    between atoms: _33  and  _34
REMARK   16  A    between atoms: _33  and  _35
REMARK   17  A    between atoms: _35  and  _36
REMARK   18  A    between atoms: _35  and  _37
REMARK   19  A    between atoms: _38  and  _40
REMARK                            x       y       z     vdW  Elec       q    Type
REMARK                         _______ _______ _______ _____ _____    ______ ____
ROOT
ATOM      1  C   UNL     1      18.623  10.825  29.724  0.00  0.00    +0.163 C 
ENDROOT
BRANCH   1   2
ATOM      2  O   UNL     1      17.203  10.841  29.941  0.00  0.00    -0.388 OA
ATOM      3  H   UNL     1      16.957  11.651  30.396  0.00  0.00    +0.210 HD
ENDBRANCH   1   2
BRANCH   1   4
ATOM      4  C   UNL     1      19.236   9.492  30.186  0.00  0.00    +0.175 C 
BRANCH   4   5
ATOM      5  C   UNL     1      18.293   8.715  31.117  0.00  0.00    +0.176 C 
ATOM      6  O   UNL     1      18.340   9.344  32.427  0.00  0.00    -0.332 OA
ATOM      7  C   UNL     1      17.416   8.797  33.426  0.00  0.00    +0.277 C 
ATOM      8  C   UNL     1      17.619   7.269  33.571  0.00  0.00    +0.110 C 
ATOM      9  C   UNL     1      17.608   6.560  32.200  0.00  0.00    +0.143 C 
ATOM     10  C   UNL     1      18.602   7.211  31.238  0.00  0.00    +0.133 C 
BRANCH  10  11
ATOM     11  N   UNL     1      18.521   6.584  29.910  0.00  0.00    -0.308 N 
ATOM     12  H   UNL     1      17.630   6.603  29.433  0.00  0.00    +0.149 HD
ATOM     13  C   UNL     1      19.546   5.991  29.293  0.00  0.00    +0.210 C 
ATOM     14  C   UNL     1      20.884   5.956  30.057  0.00  0.00    +0.109 C 
ATOM     15  O   UNL     1      19.452   5.487  28.174  0.00  0.00    -0.276 OA
ENDBRANCH  10  11
BRANCH   7  16
ATOM     16  C   UNL     1      15.953   9.089  33.035  0.00  0.00    +0.414 C 
ATOM     17  O   UNL     1      15.102   8.203  33.112  0.00  0.00    -0.240 OA
ATOM     18  O   UNL     1      15.623  10.209  32.643  0.00  0.00    -0.240 OA
ENDBRANCH   7  16
BRANCH   7  19
ATOM     19  O   UNL     1      17.714   9.421  34.702  0.00  0.00    -0.343 OA
ATOM     20  C   UNL     1      16.896   8.969  35.810  0.00  0.00    +0.198 C 
ENDBRANCH   7  19
BRANCH   9  21
ATOM     21  O   UNL     1      17.947   5.183  32.367  0.00  0.00    -0.390 OA
ATOM     22  H   UNL     1      18.893   5.101  32.505  0.00  0.00    +0.210 HD
ENDBRANCH   9  21
ENDBRANCH   4   5
BRANCH   4  23
ATOM     23  O   UNL     1      20.498   9.726  30.841  0.00  0.00    -0.387 OA
ATOM     24  H   UNL     1      20.992   8.904  30.889  0.00  0.00    +0.210 HD
ENDBRANCH   4  23
ENDBRANCH   1   4
BRANCH   1  25
ATOM     25  C   UNL     1      18.928  11.040  28.245  0.00  0.00    +0.141 C 
BRANCH  25  28
ATOM     26  C   UNL     1      19.299   9.018  26.873  0.00  0.00    +0.401 C 
ATOM     27  O   UNL     1      20.527   9.053  26.986  0.00  0.00    -0.226 OA
ATOM     28  N   UNL     1      18.475   9.911  27.423  0.00  0.00    -0.279 N 
ATOM     29  H   UNL     1      17.482   9.803  27.266  0.00  0.00    +0.152 HD
BRANCH  26  30
ATOM     30  O   UNL     1      18.702   7.969  26.108  0.00  0.00    -0.444 OA
BRANCH  30  31
ATOM     31  C   UNL     1      19.685   7.385  25.249  0.00  0.00    +0.292 C 
BRANCH  31  33
ATOM     32  N   UNL     1      18.121   6.593  23.495  0.00  0.00    -0.131 NA
ATOM     33  C   UNL     1      19.086   6.316  24.430  0.00  0.00    +0.120 A 
ATOM     34  C   UNL     1      19.330   4.963  24.436  0.00  0.00    +0.137 A 
ATOM     35  N   UNL     1      18.492   4.473  23.477  0.00  0.00    -0.249 N 
ATOM     36  N   UNL     1      17.759   5.453  22.921  0.00  0.00    -0.065 NA
BRANCH  35  37
ATOM     37  C   UNL     1      18.270   3.088  23.118  0.00  0.00    +0.181 C 
BRANCH  37  38
ATOM     38  C   UNL     1      17.156   2.446  23.955  0.00  0.00    +0.166 C 
BRANCH  38  39
ATOM     39  C   UNL     1      17.113   0.926  23.881  0.00  0.00    -0.017 A 
ATOM     40  C   UNL     1      16.315   0.223  24.802  0.00  0.00    +0.006 A 
ATOM     41  C   UNL     1      16.227  -1.170  24.754  0.00  0.00    +0.000 A 
ATOM     42  C   UNL     1      16.926  -1.881  23.783  0.00  0.00    +0.000 A 
ATOM     43  C   UNL     1      17.705  -1.202  22.854  0.00  0.00    +0.000 A 
ATOM     44  C   UNL     1      17.795   0.193  22.898  0.00  0.00    +0.006 A 
ENDBRANCH  38  39
BRANCH  38  45
ATOM     45  O   UNL     1      15.890   2.944  23.507  0.00  0.00    -0.385 OA
ATOM     46  H   UNL     1      15.438   3.351  24.264  0.00  0.00    +0.210 HD
ENDBRANCH  38  45
ENDBRANCH  37  38
ENDBRANCH  35  37
ENDBRANCH  31  33
ENDBRANCH  30  31
ENDBRANCH  26  30
ENDBRANCH  25  28
ENDBRANCH   1  25
TORSDOF 17
