REMARK VINA RESULT:    -5.289     10.445     14.308
REMARK INTER + INTRA:         -12.253
REMARK INTER:                  -9.928
REMARK INTRA:                  -2.326
REMARK UNBOUND:                -2.326
REMARK  Name = lig_assembled_32.pdb
REMARK  19 active torsions:
REMARK  status: ('A' for Active; 'I' for Inactive)
REMARK    1  A    between atoms: _2  and  _9
REMARK    2  A    between atoms: _4  and  _17
REMARK    3  A    between atoms: _5  and  _10
REMARK    4  A    between atoms: _5  and  _11
REMARK    5  A    between atoms: _6  and  _7
REMARK    6  A    between atoms: _6  and  _17
REMARK    7  A    between atoms: _9  and  _10
REMARK    8  A    between atoms: _13  and  _33
REMARK    9  A    between atoms: _15  and  _21
REMARK   10  A    between atoms: _16  and  _20
REMARK   11  A    between atoms: _20  and  _21
REMARK   12  A    between atoms: _23  and  _24
REMARK   13  A    between atoms: _25  and  _26
REMARK   14  A    between atoms: _27  and  _29
REMARK   15  A    between atoms: _29  and  _30
REMARK   16  A    between atoms: _29  and  _31
REMARK   17  A    between atoms: _31  and  _32
REMARK   18  A    between atoms: _31  and  _33
REMARK   19  A    between atoms: _34  and  _36
REMARK                            x       y       z     vdW  Elec       q    Type
REMARK                         _______ _______ _______ _____ _____    ______ ____
ROOT
ATOM      1  C   UNL     1      18.818   5.364  24.998  0.00  0.00    +0.163 C 
ENDROOT
BRANCH   1   2
ATOM      2  O   UNL     1      17.922   5.554  23.891  0.00  0.00    -0.388 OA
ATOM      3  H   UNL     1      17.016   5.565  24.209  0.00  0.00    +0.210 HD
ENDBRANCH   1   2
BRANCH   1   4
ATOM      4  C   UNL     1      19.990   4.448  24.606  0.00  0.00    +0.175 C 
BRANCH   4   5
ATOM      5  C   UNL     1      19.530   3.013  24.314  0.00  0.00    +0.176 C 
ATOM      6  O   UNL     1      18.798   3.025  23.058  0.00  0.00    -0.332 OA
ATOM      7  C   UNL     1      18.369   1.714  22.561  0.00  0.00    +0.277 C 
ATOM      8  C   UNL     1      17.544   0.970  23.640  0.00  0.00    +0.110 C 
ATOM      9  C   UNL     1      18.268   0.959  25.003  0.00  0.00    +0.143 C 
ATOM     10  C   UNL     1      18.672   2.373  25.422  0.00  0.00    +0.133 C 
BRANCH  10  11
ATOM     11  N   UNL     1      19.437   2.339  26.678  0.00  0.00    -0.308 N 
ATOM     12  H   UNL     1      20.367   1.946  26.654  0.00  0.00    +0.149 HD
ATOM     13  C   UNL     1      18.983   2.795  27.848  0.00  0.00    +0.210 C 
ATOM     14  C   UNL     1      17.552   3.365  27.858  0.00  0.00    +0.109 C 
ATOM     15  O   UNL     1      19.652   2.768  28.882  0.00  0.00    -0.276 OA
ENDBRANCH  10  11
BRANCH   7  16
ATOM     16  C   UNL     1      19.586   0.855  22.160  0.00  0.00    +0.414 C 
ATOM     17  O   UNL     1      20.570   1.379  21.639  0.00  0.00    -0.240 OA
ATOM     18  O   UNL     1      19.585  -0.360  22.358  0.00  0.00    -0.240 OA
ENDBRANCH   7  16
BRANCH   7  19
ATOM     19  O   UNL     1      17.520   1.928  21.404  0.00  0.00    -0.343 OA
ATOM     20  C   UNL     1      16.651   3.086  21.488  0.00  0.00    +0.198 C 
ENDBRANCH   7  19
BRANCH   9  21
ATOM     21  O   UNL     1      17.411   0.400  25.999  0.00  0.00    -0.390 OA
ATOM     22  H   UNL     1      16.495   0.506  25.731  0.00  0.00    +0.210 HD
ENDBRANCH   9  21
ENDBRANCH   4   5
BRANCH   4  23
ATOM     23  O   UNL     1      20.989   4.448  25.646  0.00  0.00    -0.387 OA
ATOM     24  H   UNL     1      21.491   3.630  25.607  0.00  0.00    +0.210 HD
ENDBRANCH   4  23
ENDBRANCH   1   4
BRANCH   1  25
ATOM     25  C   UNL     1      19.358   6.710  25.469  0.00  0.00    +0.141 C 
BRANCH  25  28
ATOM     26  C   UNL     1      20.509   7.050  27.629  0.00  0.00    +0.401 C 
ATOM     27  O   UNL     1      21.619   7.219  27.119  0.00  0.00    -0.226 OA
ATOM     28  N   UNL     1      19.398   6.801  26.934  0.00  0.00    -0.279 N 
ATOM     29  H   UNL     1      18.536   6.667  27.444  0.00  0.00    +0.152 HD
BRANCH  26  30
ATOM     30  O   UNL     1      20.382   7.117  29.052  0.00  0.00    -0.444 OA
BRANCH  30  31
ATOM     31  C   UNL     1      19.049   6.761  29.430  0.00  0.00    +0.292 C 
BRANCH  31  33
ATOM     32  N   UNL     1      18.376   9.120  29.758  0.00  0.00    -0.131 NA
ATOM     33  C   UNL     1      18.439   7.837  30.234  0.00  0.00    +0.120 A 
ATOM     34  C   UNL     1      17.873   7.794  31.489  0.00  0.00    +0.137 A 
ATOM     35  N   UNL     1      17.497   9.081  31.721  0.00  0.00    -0.251 N 
ATOM     36  N   UNL     1      17.799   9.877  30.681  0.00  0.00    -0.065 NA
BRANCH  35  37
ATOM     37  C   UNL     1      16.849   9.628  32.892  0.00  0.00    +0.156 C 
BRANCH  37  38
ATOM     38  C   UNL     1      16.477  11.093  32.706  0.00  0.00    +0.143 C 
BRANCH  38  39
ATOM     39  C   UNL     1      17.345  11.961  33.571  0.00  0.00    +0.306 C 
ATOM     40  O   UNL     1      17.248  12.056  34.784  0.00  0.00    -0.251 OA
BRANCH  39  41
ATOM     41  O   UNL     1      18.258  12.659  32.860  0.00  0.00    -0.481 OA
ATOM     42  H   UNL     1      18.318  12.401  31.919  0.00  0.00    +0.295 HD
ENDBRANCH  39  41
ENDBRANCH  38  39
ENDBRANCH  37  38
ENDBRANCH  35  37
ENDBRANCH  31  33
ENDBRANCH  30  31
ENDBRANCH  26  30
ENDBRANCH  25  28
ENDBRANCH   1  25
TORSDOF 17
