REMARK VINA RESULT:    -4.902      6.181     10.387
REMARK INTER + INTRA:         -12.890
REMARK INTER:                  -9.828
REMARK INTRA:                  -3.062
REMARK UNBOUND:                -3.545
REMARK  Name = lig_assembled_55.pdb
REMARK  20 active torsions:
REMARK  status: ('A' for Active; 'I' for Inactive)
REMARK    1  A    between atoms: _2  and  _10
REMARK    2  A    between atoms: _3  and  _11
REMARK    3  A    between atoms: _3  and  _38
REMARK    4  A    between atoms: _5  and  _18
REMARK    5  A    between atoms: _6  and  _38
REMARK    6  A    between atoms: _7  and  _8
REMARK    7  A    between atoms: _7  and  _18
REMARK    8  A    between atoms: _10  and  _11
REMARK    9  A    between atoms: _14  and  _34
REMARK   10  A    between atoms: _16  and  _22
REMARK   11  A    between atoms: _17  and  _21
REMARK   12  A    between atoms: _21  and  _22
REMARK   13  A    between atoms: _24  and  _25
REMARK   14  A    between atoms: _26  and  _27
REMARK   15  A    between atoms: _28  and  _30
REMARK   16  A    between atoms: _30  and  _31
REMARK   17  A    between atoms: _30  and  _32
REMARK   18  A    between atoms: _32  and  _33
REMARK   19  A    between atoms: _32  and  _34
REMARK   20  A    between atoms: _35  and  _37
REMARK                            x       y       z     vdW  Elec       q    Type
REMARK                         _______ _______ _______ _____ _____    ______ ____
ROOT
ATOM      1  C   UNL     1       6.384   8.865  40.625  0.00  0.00    +0.163 C 
ENDROOT
BRANCH   1   2
ATOM      2  O   UNL     1       5.166   8.128  40.428  0.00  0.00    -0.388 OA
ATOM      3  H   UNL     1       4.449   8.565  40.894  0.00  0.00    +0.210 HD
ENDBRANCH   1   2
BRANCH   1   4
ATOM      4  C   UNL     1       6.297   9.747  41.882  0.00  0.00    +0.175 C 
BRANCH   4   5
ATOM      5  C   UNL     1       4.945  10.468  41.989  0.00  0.00    +0.176 C 
ATOM      6  O   UNL     1       4.599  10.967  40.667  0.00  0.00    -0.332 OA
ATOM      7  C   UNL     1       3.280  11.597  40.553  0.00  0.00    +0.277 C 
ATOM      8  C   UNL     1       3.130  12.731  41.597  0.00  0.00    +0.110 C 
ATOM      9  C   UNL     1       3.518  12.257  43.013  0.00  0.00    +0.143 C 
ATOM     10  C   UNL     1       4.906  11.615  43.016  0.00  0.00    +0.133 C 
BRANCH  10  11
ATOM     11  N   UNL     1       5.228  11.089  44.352  0.00  0.00    -0.308 N 
ATOM     12  H   UNL     1       4.688  10.306  44.693  0.00  0.00    +0.149 HD
ATOM     13  C   UNL     1       6.187  11.579  45.143  0.00  0.00    +0.210 C 
ATOM     14  C   UNL     1       6.973  12.789  44.604  0.00  0.00    +0.109 C 
ATOM     15  O   UNL     1       6.444  11.109  46.251  0.00  0.00    -0.276 OA
ENDBRANCH  10  11
BRANCH   7  16
ATOM     16  C   UNL     1       2.158  10.558  40.757  0.00  0.00    +0.414 C 
ATOM     17  O   UNL     1       2.317   9.394  40.390  0.00  0.00    -0.240 OA
ATOM     18  O   UNL     1       1.094  10.883  41.287  0.00  0.00    -0.240 OA
ENDBRANCH   7  16
BRANCH   7  19
ATOM     19  O   UNL     1       3.173  12.178  39.228  0.00  0.00    -0.343 OA
ATOM     20  C   UNL     1       2.138  13.183  39.082  0.00  0.00    +0.198 C 
ENDBRANCH   7  19
BRANCH   9  21
ATOM     21  O   UNL     1       3.511  13.366  43.912  0.00  0.00    -0.390 OA
ATOM     22  H   UNL     1       3.339  14.174  43.422  0.00  0.00    +0.210 HD
ENDBRANCH   9  21
ENDBRANCH   4   5
BRANCH   4  23
ATOM     23  O   UNL     1       7.373  10.706  41.891  0.00  0.00    -0.387 OA
ATOM     24  H   UNL     1       8.149  10.321  41.477  0.00  0.00    +0.210 HD
ENDBRANCH   4  23
ENDBRANCH   1   4
BRANCH   1  25
ATOM     25  C   UNL     1       7.560   7.902  40.759  0.00  0.00    +0.141 C 
BRANCH  25  28
ATOM     26  C   UNL     1       8.360   6.620  38.804  0.00  0.00    +0.401 C 
ATOM     27  O   UNL     1       7.819   5.568  39.154  0.00  0.00    -0.226 OA
ATOM     28  N   UNL     1       8.296   7.757  39.497  0.00  0.00    -0.279 N 
ATOM     29  H   UNL     1       8.781   8.566  39.133  0.00  0.00    +0.152 HD
BRANCH  26  30
ATOM     30  O   UNL     1       9.110   6.643  37.587  0.00  0.00    -0.444 OA
BRANCH  30  31
ATOM     31  C   UNL     1       8.576   7.644  36.716  0.00  0.00    +0.292 C 
BRANCH  31  33
ATOM     32  N   UNL     1       6.803   7.868  35.007  0.00  0.00    -0.131 NA
ATOM     33  C   UNL     1       7.525   7.071  35.856  0.00  0.00    +0.120 A 
ATOM     34  C   UNL     1       7.087   5.770  35.733  0.00  0.00    +0.137 A 
ATOM     35  N   UNL     1       6.087   5.845  34.810  0.00  0.00    -0.250 N 
ATOM     36  N   UNL     1       5.922   7.107  34.374  0.00  0.00    -0.065 NA
BRANCH  35  37
ATOM     37  C   UNL     1       5.276   4.771  34.280  0.00  0.00    +0.162 C 
BRANCH  37  38
ATOM     38  C   UNL     1       4.046   4.445  35.134  0.00  0.00    +0.129 C 
BRANCH  38  39
ATOM     39  N   UNL     1       3.516   5.615  35.893  0.00  0.00    -0.193 NA
ATOM     40  H   UNL     1       2.585   5.878  35.545  0.00  0.00    +0.148 HD
BRANCH  39  41
ATOM     41  S   UNL     1       3.582   5.505  37.572  0.00  0.00    +0.027 S 
ATOM     42  O   UNL     1       4.620   6.412  38.009  0.00  0.00    -0.158 OA
ATOM     43  O   UNL     1       2.229   5.614  38.071  0.00  0.00    -0.158 OA
ATOM     44  C   UNL     1       4.163   3.840  37.798  0.00  0.00    +0.214 C 
ENDBRANCH  39  41
ENDBRANCH  38  39
ENDBRANCH  37  38
ENDBRANCH  35  37
ENDBRANCH  31  33
ENDBRANCH  30  31
ENDBRANCH  26  30
ENDBRANCH  25  28
ENDBRANCH   1  25
TORSDOF 17
