REMARK VINA RESULT:    -5.626     22.562     27.003
REMARK INTER + INTRA:         -12.627
REMARK INTER:                 -10.823
REMARK INTRA:                  -1.803
REMARK UNBOUND:                -1.902
REMARK  Name = lig_assembled_13.pdb
REMARK  20 active torsions:
REMARK  status: ('A' for Active; 'I' for Inactive)
REMARK    1  A    between atoms: _2  and  _9
REMARK    2  A    between atoms: _4  and  _18
REMARK    3  A    between atoms: _5  and  _11
REMARK    4  A    between atoms: _6  and  _7
REMARK    5  A    between atoms: _6  and  _18
REMARK    6  A    between atoms: _9  and  _10
REMARK    7  A    between atoms: _10  and  _12
REMARK    8  A    between atoms: _11  and  _12
REMARK    9  A    between atoms: _14  and  _34
REMARK   10  A    between atoms: _16  and  _22
REMARK   11  A    between atoms: _17  and  _21
REMARK   12  A    between atoms: _21  and  _22
REMARK   13  A    between atoms: _24  and  _25
REMARK   14  A    between atoms: _26  and  _27
REMARK   15  A    between atoms: _28  and  _30
REMARK   16  A    between atoms: _30  and  _31
REMARK   17  A    between atoms: _30  and  _32
REMARK   18  A    between atoms: _32  and  _33
REMARK   19  A    between atoms: _32  and  _34
REMARK   20  A    between atoms: _35  and  _37
REMARK                            x       y       z     vdW  Elec       q    Type
REMARK                         _______ _______ _______ _____ _____    ______ ____
ROOT
ATOM      1  C   UNL     1       2.233  16.438   8.789  0.00  0.00    +0.163 C 
ENDROOT
BRANCH   1   2
ATOM      2  O   UNL     1       1.771  16.034   7.490  0.00  0.00    -0.388 OA
ATOM      3  H   UNL     1       0.841  16.253   7.398  0.00  0.00    +0.210 HD
ENDBRANCH   1   2
BRANCH   1   4
ATOM      4  C   UNL     1       2.286  15.240   9.752  0.00  0.00    +0.175 C 
BRANCH   4   5
ATOM      5  C   UNL     1       1.048  15.173  10.660  0.00  0.00    +0.176 C 
ATOM      6  O   UNL     1      -0.086  14.780   9.840  0.00  0.00    -0.332 OA
ATOM      7  C   UNL     1      -1.344  14.561  10.561  0.00  0.00    +0.277 C 
ATOM      8  C   UNL     1      -1.711  15.809  11.400  0.00  0.00    +0.110 C 
ATOM      9  C   UNL     1      -0.525  16.283  12.265  0.00  0.00    +0.143 C 
ATOM     10  C   UNL     1       0.731  16.477  11.415  0.00  0.00    +0.133 C 
BRANCH  10  11
ATOM     11  N   UNL     1       1.876  16.844  12.263  0.00  0.00    -0.308 N 
ATOM     12  H   UNL     1       2.239  16.144  12.895  0.00  0.00    +0.149 HD
ATOM     13  C   UNL     1       2.467  18.042  12.252  0.00  0.00    +0.210 C 
ATOM     14  C   UNL     1       1.874  19.095  11.297  0.00  0.00    +0.109 C 
ATOM     15  O   UNL     1       3.434  18.317  12.963  0.00  0.00    -0.276 OA
ENDBRANCH  10  11
BRANCH   7  16
ATOM     16  C   UNL     1      -1.236  13.331  11.486  0.00  0.00    +0.414 C 
ATOM     17  O   UNL     1      -1.483  13.435  12.687  0.00  0.00    -0.240 OA
ATOM     18  O   UNL     1      -0.903  12.235  11.033  0.00  0.00    -0.240 OA
ENDBRANCH   7  16
BRANCH   7  19
ATOM     19  O   UNL     1      -2.391  14.344   9.581  0.00  0.00    -0.343 OA
ATOM     20  C   UNL     1      -2.440  15.320   8.510  0.00  0.00    +0.198 C 
ENDBRANCH   7  19
BRANCH   9  21
ATOM     21  O   UNL     1      -0.856  17.517  12.903  0.00  0.00    -0.390 OA
ATOM     22  H   UNL     1      -1.261  17.339  13.755  0.00  0.00    +0.210 HD
ENDBRANCH   9  21
ENDBRANCH   4   5
BRANCH   4  23
ATOM     23  O   UNL     1       3.485  15.297  10.551  0.00  0.00    -0.387 OA
ATOM     24  H   UNL     1       3.870  16.174  10.487  0.00  0.00    +0.210 HD
ENDBRANCH   4  23
ENDBRANCH   1   4
BRANCH   1  25
ATOM     25  C   UNL     1       3.619  17.065   8.679  0.00  0.00    +0.141 C 
BRANCH  25  28
ATOM     26  C   UNL     1       5.086  16.921   6.695  0.00  0.00    +0.401 C 
ATOM     27  O   UNL     1       4.993  18.120   6.423  0.00  0.00    -0.226 OA
ATOM     28  N   UNL     1       4.472  16.341   7.728  0.00  0.00    -0.279 N 
ATOM     29  H   UNL     1       4.601  15.348   7.863  0.00  0.00    +0.152 HD
BRANCH  26  30
ATOM     30  O   UNL     1       5.891  16.081   5.864  0.00  0.00    -0.444 OA
BRANCH  30  31
ATOM     31  C   UNL     1       5.502  16.246   4.498  0.00  0.00    +0.292 C 
BRANCH  31  33
ATOM     32  N   UNL     1       7.402  15.106   3.397  0.00  0.00    -0.131 NA
ATOM     33  C   UNL     1       6.687  16.250   3.622  0.00  0.00    +0.120 A 
ATOM     34  C   UNL     1       7.265  17.287   2.930  0.00  0.00    +0.137 A 
ATOM     35  N   UNL     1       8.368  16.724   2.358  0.00  0.00    -0.241 N 
ATOM     36  N   UNL     1       8.422  15.405   2.600  0.00  0.00    -0.065 NA
BRANCH  35  37
ATOM     37  C   UNL     1       9.347  17.348   1.495  0.00  0.00    +0.265 C 
BRANCH  37  38
ATOM     38  C   UNL     1      10.748  17.149   1.996  0.00  0.00    +0.329 C 
ATOM     39  O   UNL     1      11.715  16.801   1.334  0.00  0.00    -0.249 OA
BRANCH  38  40
ATOM     40  O   UNL     1      10.762  17.317   3.353  0.00  0.00    -0.464 OA
BRANCH  40  41
ATOM     41  C   UNL     1      11.568  18.409   3.819  0.00  0.00    +0.229 C 
ATOM     42  C   UNL     1      12.528  17.866   4.863  0.00  0.00    +0.048 C 
ENDBRANCH  40  41
ENDBRANCH  38  40
ENDBRANCH  37  38
ENDBRANCH  35  37
ENDBRANCH  31  33
ENDBRANCH  30  31
ENDBRANCH  26  30
ENDBRANCH  25  28
ENDBRANCH   1  25
TORSDOF 17
