REMARK VINA RESULT:    -6.064      5.219      7.352
REMARK INTER + INTRA:         -14.198
REMARK INTER:                 -11.989
REMARK INTRA:                  -2.209
REMARK UNBOUND:                -2.640
REMARK  Name = lig_assembled_29.pdb
REMARK  21 active torsions:
REMARK  status: ('A' for Active; 'I' for Inactive)
REMARK    1  A    between atoms: _2  and  _9
REMARK    2  A    between atoms: _4  and  _23
REMARK    3  A    between atoms: _6  and  _7
REMARK    4  A    between atoms: _6  and  _23
REMARK    5  A    between atoms: _9  and  _10
REMARK    6  A    between atoms: _12  and  _18
REMARK    7  A    between atoms: _13  and  _18
REMARK    8  A    between atoms: _14  and  _17
REMARK    9  A    between atoms: _15  and  _17
REMARK   10  A    between atoms: _19  and  _39
REMARK   11  A    between atoms: _21  and  _27
REMARK   12  A    between atoms: _22  and  _26
REMARK   13  A    between atoms: _26  and  _27
REMARK   14  A    between atoms: _29  and  _30
REMARK   15  A    between atoms: _31  and  _32
REMARK   16  A    between atoms: _33  and  _35
REMARK   17  A    between atoms: _35  and  _36
REMARK   18  A    between atoms: _35  and  _37
REMARK   19  A    between atoms: _37  and  _38
REMARK   20  A    between atoms: _37  and  _39
REMARK   21  A    between atoms: _40  and  _42
REMARK                            x       y       z     vdW  Elec       q    Type
REMARK                         _______ _______ _______ _____ _____    ______ ____
ROOT
ATOM      1  C   UNL     1       2.598   3.615  33.009  0.00  0.00    +0.163 C 
ENDROOT
BRANCH   1   2
ATOM      2  O   UNL     1       2.095   3.890  34.327  0.00  0.00    -0.388 OA
ATOM      3  H   UNL     1       1.316   3.353  34.492  0.00  0.00    +0.210 HD
ENDBRANCH   1   2
BRANCH   1   4
ATOM      4  C   UNL     1       4.054   3.124  33.068  0.00  0.00    +0.175 C 
BRANCH   4   5
ATOM      5  C   UNL     1       4.833   3.760  34.229  0.00  0.00    +0.176 C 
ATOM      6  O   UNL     1       4.915   5.191  33.980  0.00  0.00    -0.332 OA
ATOM      7  C   UNL     1       5.538   5.984  35.044  0.00  0.00    +0.277 C 
ATOM      8  C   UNL     1       6.944   5.429  35.380  0.00  0.00    +0.110 C 
ATOM      9  C   UNL     1       6.912   3.905  35.622  0.00  0.00    +0.143 C 
ATOM     10  C   UNL     1       6.241   3.179  34.455  0.00  0.00    +0.133 C 
BRANCH  10  11
ATOM     11  N   UNL     1       6.139   1.738  34.736  0.00  0.00    -0.308 N 
ATOM     12  H   UNL     1       5.501   1.443  35.462  0.00  0.00    +0.149 HD
ATOM     13  C   UNL     1       6.833   0.795  34.093  0.00  0.00    +0.210 C 
ATOM     14  C   UNL     1       7.815   1.279  33.010  0.00  0.00    +0.109 C 
ATOM     15  O   UNL     1       6.716  -0.406  34.339  0.00  0.00    -0.276 OA
ENDBRANCH  10  11
BRANCH   7  16
ATOM     16  C   UNL     1       4.663   5.977  36.315  0.00  0.00    +0.414 C 
ATOM     17  O   UNL     1       3.470   5.687  36.245  0.00  0.00    -0.240 OA
ATOM     18  O   UNL     1       5.151   6.261  37.410  0.00  0.00    -0.240 OA
ENDBRANCH   7  16
BRANCH   7  19
ATOM     19  O   UNL     1       5.687   7.344  34.561  0.00  0.00    -0.343 OA
ATOM     20  C   UNL     1       7.055   7.816  34.472  0.00  0.00    +0.198 C 
ENDBRANCH   7  19
BRANCH   9  21
ATOM     21  O   UNL     1       8.244   3.414  35.778  0.00  0.00    -0.390 OA
ATOM     22  H   UNL     1       8.744   4.014  36.336  0.00  0.00    +0.210 HD
ENDBRANCH   9  21
ENDBRANCH   4   5
BRANCH   4  23
ATOM     23  O   UNL     1       4.719   3.391  31.817  0.00  0.00    -0.387 OA
ATOM     24  H   UNL     1       5.588   2.982  31.822  0.00  0.00    +0.210 HD
ENDBRANCH   4  23
ENDBRANCH   1   4
BRANCH   1  25
ATOM     25  C   UNL     1       1.731   2.561  32.330  0.00  0.00    +0.141 C 
BRANCH  25  28
ATOM     26  C   UNL     1       1.538   3.172  29.943  0.00  0.00    +0.401 C 
ATOM     27  O   UNL     1       2.677   2.796  29.658  0.00  0.00    -0.226 OA
ATOM     28  N   UNL     1       1.016   3.105  31.169  0.00  0.00    -0.279 N 
ATOM     29  H   UNL     1       0.076   3.448  31.306  0.00  0.00    +0.152 HD
BRANCH  26  30
ATOM     30  O   UNL     1       0.710   3.721  28.915  0.00  0.00    -0.444 OA
BRANCH  30  31
ATOM     31  C   UNL     1       0.702   2.842  27.787  0.00  0.00    +0.292 C 
BRANCH  31  33
ATOM     32  N   UNL     1       2.393   3.690  26.184  0.00  0.00    -0.131 NA
ATOM     33  C   UNL     1       1.082   3.571  26.563  0.00  0.00    +0.120 A 
ATOM     34  C   UNL     1       0.285   4.191  25.627  0.00  0.00    +0.137 A 
ATOM     35  N   UNL     1       1.164   4.585  24.660  0.00  0.00    -0.247 N 
ATOM     36  N   UNL     1       2.433   4.325  25.019  0.00  0.00    -0.065 NA
BRANCH  35  37
ATOM     37  C   UNL     1       0.866   5.163  23.362  0.00  0.00    +0.180 C 
BRANCH  37  38
ATOM     38  C   UNL     1       1.143   4.170  22.256  0.00  0.00    -0.022 A 
ATOM     39  C   UNL     1       0.743   2.829  22.392  0.00  0.00    +0.054 A 
ATOM     40  C   UNL     1       0.924   1.917  21.343  0.00  0.00    +0.162 A 
ATOM     41  C   UNL     1       1.521   2.348  20.141  0.00  0.00    +0.162 A 
ATOM     42  C   UNL     1       1.918   3.681  20.008  0.00  0.00    +0.050 A 
ATOM     43  C   UNL     1       1.733   4.584  21.058  0.00  0.00    +0.009 A 
BRANCH  40  44
ATOM     44  O   UNL     1       0.542   0.598  21.390  0.00  0.00    -0.491 OA
ATOM     45  C   UNL     1       0.976  -0.179  22.497  0.00  0.00    +0.277 C 
ENDBRANCH  40  44
BRANCH  41  46
ATOM     46  O   UNL     1       1.668   1.394  19.164  0.00  0.00    -0.491 OA
ATOM     47  C   UNL     1       2.099   1.825  17.880  0.00  0.00    +0.277 C 
ENDBRANCH  41  46
ENDBRANCH  37  38
ENDBRANCH  35  37
ENDBRANCH  31  33
ENDBRANCH  30  31
ENDBRANCH  26  30
ENDBRANCH  25  28
ENDBRANCH   1  25
TORSDOF 17
