REMARK VINA RESULT:    -6.281     13.699     17.536
REMARK INTER + INTRA:         -13.561
REMARK INTER:                 -12.470
REMARK INTRA:                  -1.091
REMARK UNBOUND:                -1.955
REMARK  Name = lig_assembled_78.pdb
REMARK  18 active torsions:
REMARK  status: ('A' for Active; 'I' for Inactive)
REMARK    1  A    between atoms: _2  and  _9
REMARK    2  A    between atoms: _4  and  _21
REMARK    3  A    between atoms: _6  and  _7
REMARK    4  A    between atoms: _6  and  _21
REMARK    5  A    between atoms: _9  and  _41
REMARK    6  A    between atoms: _10  and  _41
REMARK    7  A    between atoms: _17  and  _37
REMARK    8  A    between atoms: _19  and  _25
REMARK    9  A    between atoms: _20  and  _24
REMARK   10  A    between atoms: _24  and  _25
REMARK   11  A    between atoms: _27  and  _28
REMARK   12  A    between atoms: _29  and  _30
REMARK   13  A    between atoms: _31  and  _33
REMARK   14  A    between atoms: _33  and  _34
REMARK   15  A    between atoms: _33  and  _35
REMARK   16  A    between atoms: _35  and  _36
REMARK   17  A    between atoms: _35  and  _37
REMARK   18  A    between atoms: _38  and  _40
REMARK                            x       y       z     vdW  Elec       q    Type
REMARK                         _______ _______ _______ _____ _____    ______ ____
ROOT
ATOM      1  C   UNL     1      18.671   2.355  24.746  0.00  0.00    +0.163 C 
ENDROOT
BRANCH   1   2
ATOM      2  O   UNL     1      18.995   2.584  26.127  0.00  0.00    -0.388 OA
ATOM      3  H   UNL     1      19.305   3.486  26.238  0.00  0.00    +0.210 HD
ENDBRANCH   1   2
BRANCH   1   4
ATOM      4  C   UNL     1      17.227   1.846  24.597  0.00  0.00    +0.175 C 
BRANCH   4   5
ATOM      5  C   UNL     1      17.174   0.346  24.270  0.00  0.00    +0.176 C 
ATOM      6  O   UNL     1      17.454  -0.388  25.494  0.00  0.00    -0.332 OA
ATOM      7  C   UNL     1      17.342  -1.847  25.398  0.00  0.00    +0.277 C 
ATOM      8  C   UNL     1      18.234  -2.383  24.251  0.00  0.00    +0.110 C 
ATOM      9  C   UNL     1      17.995  -1.612  22.936  0.00  0.00    +0.143 C 
ATOM     10  C   UNL     1      18.132  -0.104  23.152  0.00  0.00    +0.133 C 
BRANCH  10  11
ATOM     11  N   UNL     1      17.817   0.624  21.913  0.00  0.00    -0.308 N 
ATOM     12  H   UNL     1      16.849   0.674  21.628  0.00  0.00    +0.149 HD
ATOM     13  C   UNL     1      18.727   1.224  21.140  0.00  0.00    +0.210 C 
ATOM     14  C   UNL     1      20.196   1.108  21.587  0.00  0.00    +0.109 C 
ATOM     15  O   UNL     1      18.433   1.840  20.115  0.00  0.00    -0.276 OA
ENDBRANCH  10  11
BRANCH   7  16
ATOM     16  C   UNL     1      15.879  -2.269  25.154  0.00  0.00    +0.414 C 
ATOM     17  O   UNL     1      15.265  -2.905  26.010  0.00  0.00    -0.240 OA
ATOM     18  O   UNL     1      15.311  -1.973  24.102  0.00  0.00    -0.240 OA
ENDBRANCH   7  16
BRANCH   7  19
ATOM     19  O   UNL     1      17.813  -2.416  26.647  0.00  0.00    -0.343 OA
ATOM     20  C   UNL     1      18.494  -3.690  26.521  0.00  0.00    +0.198 C 
ENDBRANCH   7  19
BRANCH   9  21
ATOM     21  O   UNL     1      18.939  -2.034  21.951  0.00  0.00    -0.390 OA
ATOM     22  H   UNL     1      18.890  -2.987  21.848  0.00  0.00    +0.210 HD
ENDBRANCH   9  21
ENDBRANCH   4   5
BRANCH   4  23
ATOM     23  O   UNL     1      16.536   2.600  23.580  0.00  0.00    -0.387 OA
ATOM     24  H   UNL     1      17.036   3.394  23.376  0.00  0.00    +0.210 HD
ENDBRANCH   4  23
ENDBRANCH   1   4
BRANCH   1  25
ATOM     25  C   UNL     1      18.840   3.645  23.950  0.00  0.00    +0.141 C 
BRANCH  25  28
ATOM     26  C   UNL     1      18.429   6.055  24.309  0.00  0.00    +0.401 C 
ATOM     27  O   UNL     1      18.337   6.315  23.107  0.00  0.00    -0.226 OA
ATOM     28  N   UNL     1      18.670   4.835  24.792  0.00  0.00    -0.279 N 
ATOM     29  H   UNL     1      18.738   4.724  25.794  0.00  0.00    +0.152 HD
BRANCH  26  30
ATOM     30  O   UNL     1      18.278   7.111  25.262  0.00  0.00    -0.444 OA
BRANCH  30  31
ATOM     31  C   UNL     1      19.548   7.415  25.844  0.00  0.00    +0.292 C 
BRANCH  31  33
ATOM     32  N   UNL     1      18.906   6.606  28.097  0.00  0.00    -0.131 NA
ATOM     33  C   UNL     1      19.414   7.598  27.301  0.00  0.00    +0.120 A 
ATOM     34  C   UNL     1      19.735   8.682  28.087  0.00  0.00    +0.139 A 
ATOM     35  N   UNL     1      19.457   8.264  29.354  0.00  0.00    -0.230 N 
ATOM     36  N   UNL     1      18.915   7.034  29.352  0.00  0.00    -0.064 NA
BRANCH  35  37
ATOM     37  C   UNL     1      19.595   8.989  30.593  0.00  0.00    +0.316 C 
BRANCH  37  38
ATOM     38  S   UNL     1      18.440  10.324  30.768  0.00  0.00    +0.017 S 
ATOM     39  O   UNL     1      19.079  11.449  31.418  0.00  0.00    -0.168 OA
ATOM     40  O   UNL     1      17.751  10.488  29.499  0.00  0.00    -0.168 OA
BRANCH  38  41
ATOM     41  C   UNL     1      17.240   9.709  31.931  0.00  0.00    +0.090 A 
ATOM     42  C   UNL     1      16.498  10.618  32.693  0.00  0.00    +0.027 A 
ATOM     43  C   UNL     1      15.540  10.142  33.586  0.00  0.00    +0.002 A 
ATOM     44  C   UNL     1      15.313   8.769  33.703  0.00  0.00    +0.000 A 
ATOM     45  C   UNL     1      16.042   7.868  32.926  0.00  0.00    +0.002 A 
ATOM     46  C   UNL     1      17.011   8.334  32.036  0.00  0.00    +0.027 A 
ENDBRANCH  38  41
ENDBRANCH  37  38
ENDBRANCH  35  37
ENDBRANCH  31  33
ENDBRANCH  30  31
ENDBRANCH  26  30
ENDBRANCH  25  28
ENDBRANCH   1  25
TORSDOF 16
