REMARK VINA RESULT:    -5.584      6.489      8.920
REMARK INTER + INTRA:         -12.638
REMARK INTER:                 -10.971
REMARK INTRA:                  -1.667
REMARK UNBOUND:                -1.667
REMARK  Name = lig_assembled_43.pdb
REMARK  20 active torsions:
REMARK  status: ('A' for Active; 'I' for Inactive)
REMARK    1  A    between atoms: _2  and  _9
REMARK    2  A    between atoms: _4  and  _18
REMARK    3  A    between atoms: _6  and  _7
REMARK    4  A    between atoms: _6  and  _18
REMARK    5  A    between atoms: _9  and  _10
REMARK    6  A    between atoms: _10  and  _11
REMARK    7  A    between atoms: _11  and  _12
REMARK    8  A    between atoms: _12  and  _13
REMARK    9  A    between atoms: _14  and  _34
REMARK   10  A    between atoms: _16  and  _22
REMARK   11  A    between atoms: _17  and  _21
REMARK   12  A    between atoms: _21  and  _22
REMARK   13  A    between atoms: _24  and  _25
REMARK   14  A    between atoms: _26  and  _27
REMARK   15  A    between atoms: _28  and  _30
REMARK   16  A    between atoms: _30  and  _31
REMARK   17  A    between atoms: _30  and  _32
REMARK   18  A    between atoms: _32  and  _33
REMARK   19  A    between atoms: _32  and  _34
REMARK   20  A    between atoms: _35  and  _37
REMARK                            x       y       z     vdW  Elec       q    Type
REMARK                         _______ _______ _______ _____ _____    ______ ____
ROOT
ATOM      1  C   UNL     1      -1.195   3.312  31.232  0.00  0.00    +0.163 C 
ENDROOT
BRANCH   1   2
ATOM      2  O   UNL     1      -1.730   2.573  32.343  0.00  0.00    -0.388 OA
ATOM      3  H   UNL     1      -1.299   2.857  33.153  0.00  0.00    +0.210 HD
ENDBRANCH   1   2
BRANCH   1   4
ATOM      4  C   UNL     1      -1.169   4.820  31.536  0.00  0.00    +0.175 C 
BRANCH   4   5
ATOM      5  C   UNL     1      -2.580   5.420  31.606  0.00  0.00    +0.176 C 
ATOM      6  O   UNL     1      -3.075   5.241  32.962  0.00  0.00    -0.332 OA
ATOM      7  C   UNL     1      -4.378   5.852  33.247  0.00  0.00    +0.277 C 
ATOM      8  C   UNL     1      -5.439   5.359  32.232  0.00  0.00    +0.110 C 
ATOM      9  C   UNL     1      -4.945   5.500  30.777  0.00  0.00    +0.143 C 
ATOM     10  C   UNL     1      -3.582   4.833  30.594  0.00  0.00    +0.133 C 
BRANCH  10  11
ATOM     11  N   UNL     1      -3.082   5.049  29.227  0.00  0.00    -0.308 N 
ATOM     12  H   UNL     1      -2.765   5.976  28.981  0.00  0.00    +0.149 HD
ATOM     13  C   UNL     1      -3.020   4.099  28.289  0.00  0.00    +0.210 C 
ATOM     14  C   UNL     1      -3.535   2.703  28.687  0.00  0.00    +0.109 C 
ATOM     15  O   UNL     1      -2.583   4.306  27.157  0.00  0.00    -0.276 OA
ENDBRANCH  10  11
BRANCH   7  16
ATOM     16  C   UNL     1      -4.285   7.391  33.190  0.00  0.00    +0.414 C 
ATOM     17  O   UNL     1      -3.205   7.954  33.364  0.00  0.00    -0.240 OA
ATOM     18  O   UNL     1      -5.289   8.069  32.969  0.00  0.00    -0.240 OA
ENDBRANCH   7  16
BRANCH   9  19
ATOM     19  O   UNL     1      -5.887   4.898  29.888  0.00  0.00    -0.390 OA
ATOM     20  H   UNL     1      -5.619   5.059  28.981  0.00  0.00    +0.210 HD
ENDBRANCH   9  19
BRANCH   7  21
ATOM     21  O   UNL     1      -4.787   5.436  34.575  0.00  0.00    -0.343 OA
ATOM     22  C   UNL     1      -4.731   4.007  34.814  0.00  0.00    +0.198 C 
ENDBRANCH   7  21
ENDBRANCH   4   5
BRANCH   4  23
ATOM     23  O   UNL     1      -0.383   5.512  30.545  0.00  0.00    -0.387 OA
ATOM     24  H   UNL     1      -0.620   5.195  29.670  0.00  0.00    +0.210 HD
ENDBRANCH   4  23
ENDBRANCH   1   4
BRANCH   1  25
ATOM     25  C   UNL     1       0.217   2.830  30.916  0.00  0.00    +0.141 C 
BRANCH  25  28
ATOM     26  C   UNL     1       1.927   3.253  29.183  0.00  0.00    +0.401 C 
ATOM     27  O   UNL     1       2.871   2.910  29.898  0.00  0.00    -0.226 OA
ATOM     28  N   UNL     1       0.653   3.254  29.580  0.00  0.00    -0.279 N 
ATOM     29  H   UNL     1      -0.051   3.562  28.924  0.00  0.00    +0.152 HD
BRANCH  26  30
ATOM     30  O   UNL     1       2.189   3.686  27.846  0.00  0.00    -0.444 OA
BRANCH  30  31
ATOM     31  C   UNL     1       1.252   3.076  26.954  0.00  0.00    +0.292 C 
BRANCH  31  33
ATOM     32  N   UNL     1       0.214   5.045  25.868  0.00  0.00    -0.131 NA
ATOM     33  C   UNL     1       1.022   3.940  25.782  0.00  0.00    +0.120 A 
ATOM     34  C   UNL     1       1.506   3.836  24.497  0.00  0.00    +0.137 A 
ATOM     35  N   UNL     1       0.952   4.901  23.853  0.00  0.00    -0.251 N 
ATOM     36  N   UNL     1       0.179   5.626  24.676  0.00  0.00    -0.065 NA
BRANCH  35  37
ATOM     37  C   UNL     1       1.086   5.269  22.459  0.00  0.00    +0.145 C 
BRANCH  37  38
ATOM     38  C   UNL     1       1.869   4.219  21.677  0.00  0.00    +0.024 C 
BRANCH  38  39
ATOM     39  C   UNL     1       1.080   3.688  20.478  0.00  0.00    +0.006 C 
BRANCH  39  40
ATOM     40  C   UNL     1       1.494   2.249  20.158  0.00  0.00    +0.026 C 
BRANCH  40  41
ATOM     41  C   UNL     1       2.705   2.196  19.274  0.00  0.00    -0.034 C 
ATOM     42  C   UNL     1       2.697   2.530  17.977  0.00  0.00    +0.004 C 
ENDBRANCH  40  41
ENDBRANCH  39  40
ENDBRANCH  38  39
ENDBRANCH  37  38
ENDBRANCH  35  37
ENDBRANCH  31  33
ENDBRANCH  30  31
ENDBRANCH  26  30
ENDBRANCH  25  28
ENDBRANCH   1  25
TORSDOF 18
