REMARK VINA RESULT:    -5.794      4.419      6.449
REMARK INTER + INTRA:         -12.619
REMARK INTER:                 -10.262
REMARK INTRA:                  -2.358
REMARK UNBOUND:                -2.083
REMARK  Name = lig_assembled_35.pdb
REMARK  19 active torsions:
REMARK  status: ('A' for Active; 'I' for Inactive)
REMARK    1  A    between atoms: _2  and  _9
REMARK    2  A    between atoms: _4  and  _17
REMARK    3  A    between atoms: _5  and  _9
REMARK    4  A    between atoms: _5  and  _11
REMARK    5  A    between atoms: _6  and  _7
REMARK    6  A    between atoms: _6  and  _17
REMARK    7  A    between atoms: _9  and  _10
REMARK    8  A    between atoms: _13  and  _33
REMARK    9  A    between atoms: _15  and  _21
REMARK   10  A    between atoms: _16  and  _20
REMARK   11  A    between atoms: _20  and  _21
REMARK   12  A    between atoms: _23  and  _24
REMARK   13  A    between atoms: _25  and  _26
REMARK   14  A    between atoms: _27  and  _29
REMARK   15  A    between atoms: _29  and  _30
REMARK   16  A    between atoms: _29  and  _31
REMARK   17  A    between atoms: _31  and  _32
REMARK   18  A    between atoms: _31  and  _33
REMARK   19  A    between atoms: _34  and  _36
REMARK                            x       y       z     vdW  Elec       q    Type
REMARK                         _______ _______ _______ _____ _____    ______ ____
ROOT
ATOM      1  C   UNL     1      18.755   6.718  24.615  0.00  0.00    +0.163 C 
ENDROOT
BRANCH   1   2
ATOM      2  O   UNL     1      17.448   7.224  24.299  0.00  0.00    -0.388 OA
ATOM      3  H   UNL     1      16.910   6.517  23.935  0.00  0.00    +0.210 HD
ENDBRANCH   1   2
BRANCH   1   4
ATOM      4  C   UNL     1      18.800   6.167  26.051  0.00  0.00    +0.175 C 
BRANCH   4   5
ATOM      5  C   UNL     1      18.834   7.289  27.099  0.00  0.00    +0.176 C 
ATOM      6  O   UNL     1      19.574   8.406  26.534  0.00  0.00    -0.332 OA
ATOM      7  C   UNL     1      19.620   9.617  27.359  0.00  0.00    +0.277 C 
ATOM      8  C   UNL     1      20.163   9.290  28.772  0.00  0.00    +0.110 C 
ATOM      9  C   UNL     1      19.427   8.088  29.400  0.00  0.00    +0.143 C 
ATOM     10  C   UNL     1      19.437   6.885  28.457  0.00  0.00    +0.133 C 
BRANCH  10  11
ATOM     11  N   UNL     1      18.659   5.775  29.029  0.00  0.00    -0.308 N 
ATOM     12  H   UNL     1      17.654   5.873  29.065  0.00  0.00    +0.149 HD
ATOM     13  C   UNL     1      19.194   4.647  29.504  0.00  0.00    +0.210 C 
ATOM     14  C   UNL     1      20.729   4.539  29.460  0.00  0.00    +0.109 C 
ATOM     15  O   UNL     1      18.516   3.728  29.965  0.00  0.00    -0.276 OA
ENDBRANCH  10  11
BRANCH   7  16
ATOM     16  C   UNL     1      18.219  10.251  27.479  0.00  0.00    +0.414 C 
ATOM     17  O   UNL     1      17.439  10.216  26.528  0.00  0.00    -0.240 OA
ATOM     18  O   UNL     1      17.868  10.796  28.526  0.00  0.00    -0.240 OA
ENDBRANCH   7  16
BRANCH   7  19
ATOM     19  O   UNL     1      20.528  10.556  26.727  0.00  0.00    -0.343 OA
ATOM     20  C   UNL     1      21.229  11.439  27.639  0.00  0.00    +0.198 C 
ENDBRANCH   7  19
BRANCH   9  21
ATOM     21  O   UNL     1      20.056   7.727  30.630  0.00  0.00    -0.390 OA
ATOM     22  H   UNL     1      19.388   7.597  31.306  0.00  0.00    +0.210 HD
ENDBRANCH   9  21
ENDBRANCH   4   5
BRANCH   4  23
ATOM     23  O   UNL     1      19.939   5.300  26.215  0.00  0.00    -0.387 OA
ATOM     24  H   UNL     1      20.537   5.676  26.865  0.00  0.00    +0.210 HD
ENDBRANCH   4  23
ENDBRANCH   1   4
BRANCH   1  25
ATOM     25  C   UNL     1      19.138   5.614  23.634  0.00  0.00    +0.141 C 
BRANCH  25  28
ATOM     26  C   UNL     1      17.142   4.357  22.898  0.00  0.00    +0.401 C 
ATOM     27  O   UNL     1      16.822   5.183  22.040  0.00  0.00    -0.226 OA
ATOM     28  N   UNL     1      18.205   4.482  23.693  0.00  0.00    -0.279 N 
ATOM     29  H   UNL     1      18.380   3.756  24.374  0.00  0.00    +0.152 HD
BRANCH  26  30
ATOM     30  O   UNL     1      16.335   3.190  23.073  0.00  0.00    -0.444 OA
BRANCH  30  31
ATOM     31  C   UNL     1      17.144   2.022  22.918  0.00  0.00    +0.292 C 
BRANCH  31  33
ATOM     32  N   UNL     1      16.306   1.559  25.199  0.00  0.00    -0.131 NA
ATOM     33  C   UNL     1      17.108   1.206  24.147  0.00  0.00    +0.120 A 
ATOM     34  C   UNL     1      17.793   0.056  24.469  0.00  0.00    +0.138 A 
ATOM     35  N   UNL     1      17.352  -0.251  25.723  0.00  0.00    -0.238 N 
ATOM     36  N   UNL     1      16.476   0.668  26.166  0.00  0.00    -0.065 NA
BRANCH  35  37
ATOM     37  C   UNL     1      17.716  -1.355  26.589  0.00  0.00    +0.214 C 
ATOM     38  C   UNL     1      18.195  -0.850  27.947  0.00  0.00    +0.045 C 
BRANCH  37  39
ATOM     39  C   UNL     1      16.586  -2.355  26.718  0.00  0.00    +0.329 C 
ATOM     40  O   UNL     1      16.659  -3.530  26.382  0.00  0.00    -0.249 OA
BRANCH  39  41
ATOM     41  O   UNL     1      15.437  -1.840  27.222  0.00  0.00    -0.479 OA
ATOM     42  H   UNL     1      14.748  -2.492  27.463  0.00  0.00    +0.295 HD
ENDBRANCH  39  41
ENDBRANCH  37  39
ENDBRANCH  35  37
ENDBRANCH  31  33
ENDBRANCH  30  31
ENDBRANCH  26  30
ENDBRANCH  25  28
ENDBRANCH   1  25
TORSDOF 16
