REMARK VINA RESULT:    -5.103     24.565     26.750
REMARK INTER + INTRA:         -13.108
REMARK INTER:                 -10.423
REMARK INTRA:                  -2.685
REMARK UNBOUND:                -3.380
REMARK  Name = lig_assembled_62.pdb
REMARK  20 active torsions:
REMARK  status: ('A' for Active; 'I' for Inactive)
REMARK    1  A    between atoms: _2  and  _10
REMARK    2  A    between atoms: _5  and  _19
REMARK    3  A    between atoms: _6  and  _10
REMARK    4  A    between atoms: _7  and  _8
REMARK    5  A    between atoms: _7  and  _19
REMARK    6  A    between atoms: _10  and  _11
REMARK    7  A    between atoms: _11  and  _14
REMARK    8  A    between atoms: _12  and  _14
REMARK    9  A    between atoms: _15  and  _35
REMARK   10  A    between atoms: _17  and  _23
REMARK   11  A    between atoms: _18  and  _22
REMARK   12  A    between atoms: _22  and  _23
REMARK   13  A    between atoms: _25  and  _26
REMARK   14  A    between atoms: _27  and  _28
REMARK   15  A    between atoms: _29  and  _31
REMARK   16  A    between atoms: _31  and  _32
REMARK   17  A    between atoms: _31  and  _33
REMARK   18  A    between atoms: _33  and  _34
REMARK   19  A    between atoms: _33  and  _35
REMARK   20  A    between atoms: _36  and  _38
REMARK                            x       y       z     vdW  Elec       q    Type
REMARK                         _______ _______ _______ _____ _____    ______ ____
ROOT
ATOM      1  C   UNL     1       2.167  16.247   8.727  0.00  0.00    +0.163 C 
ENDROOT
BRANCH   1   2
ATOM      2  O   UNL     1       1.823  15.719   7.436  0.00  0.00    -0.388 OA
ATOM      3  H   UNL     1       1.368  16.392   6.924  0.00  0.00    +0.210 HD
ENDBRANCH   1   2
BRANCH   1   4
ATOM      4  C   UNL     1       2.233  15.127   9.780  0.00  0.00    +0.175 C 
BRANCH   4   5
ATOM      5  C   UNL     1       0.990  15.107  10.681  0.00  0.00    +0.176 C 
ATOM      6  O   UNL     1      -0.149  14.718   9.865  0.00  0.00    -0.332 OA
ATOM      7  C   UNL     1      -1.414  14.542  10.584  0.00  0.00    +0.277 C 
ATOM      8  C   UNL     1      -1.760  15.818  11.390  0.00  0.00    +0.110 C 
ATOM      9  C   UNL     1      -0.569  16.289  12.250  0.00  0.00    +0.143 C 
ATOM     10  C   UNL     1       0.695  16.436  11.402  0.00  0.00    +0.133 C 
BRANCH  10  11
ATOM     11  N   UNL     1       1.843  16.801  12.248  0.00  0.00    -0.308 N 
ATOM     12  H   UNL     1       2.198  16.104  12.888  0.00  0.00    +0.149 HD
ATOM     13  C   UNL     1       2.447  17.992  12.225  0.00  0.00    +0.210 C 
ATOM     14  C   UNL     1       1.866  19.041  11.257  0.00  0.00    +0.109 C 
ATOM     15  O   UNL     1       3.416  18.265  12.934  0.00  0.00    -0.276 OA
ENDBRANCH  10  11
BRANCH   7  16
ATOM     16  C   UNL     1      -1.337  13.334  11.539  0.00  0.00    +0.414 C 
ATOM     17  O   UNL     1      -1.668  13.453  12.718  0.00  0.00    -0.240 OA
ATOM     18  O   UNL     1      -0.943  12.240  11.132  0.00  0.00    -0.240 OA
ENDBRANCH   7  16
BRANCH   7  19
ATOM     19  O   UNL     1      -2.461  14.323   9.603  0.00  0.00    -0.343 OA
ATOM     20  C   UNL     1      -3.808  14.564  10.081  0.00  0.00    +0.198 C 
ENDBRANCH   7  19
BRANCH   9  21
ATOM     21  O   UNL     1      -0.878  17.545  12.855  0.00  0.00    -0.390 OA
ATOM     22  H   UNL     1      -0.762  17.480  13.806  0.00  0.00    +0.210 HD
ENDBRANCH   9  21
ENDBRANCH   4   5
BRANCH   4  23
ATOM     23  O   UNL     1       3.424  15.267  10.579  0.00  0.00    -0.387 OA
ATOM     24  H   UNL     1       3.446  16.143  10.971  0.00  0.00    +0.210 HD
ENDBRANCH   4  23
ENDBRANCH   1   4
BRANCH   1  25
ATOM     25  C   UNL     1       3.513  16.961   8.657  0.00  0.00    +0.141 C 
BRANCH  25  28
ATOM     26  C   UNL     1       4.916  17.171   6.634  0.00  0.00    +0.401 C 
ATOM     27  O   UNL     1       4.762  18.391   6.539  0.00  0.00    -0.226 OA
ATOM     28  N   UNL     1       4.364  16.422   7.589  0.00  0.00    -0.279 N 
ATOM     29  H   UNL     1       4.541  15.427   7.577  0.00  0.00    +0.152 HD
BRANCH  26  30
ATOM     30  O   UNL     1       5.728  16.496   5.669  0.00  0.00    -0.444 OA
BRANCH  30  31
ATOM     31  C   UNL     1       4.913  16.066   4.576  0.00  0.00    +0.292 C 
BRANCH  31  33
ATOM     32  N   UNL     1       3.637  14.107   5.393  0.00  0.00    -0.131 NA
ATOM     33  C   UNL     1       4.673  14.613   4.655  0.00  0.00    +0.120 A 
ATOM     34  C   UNL     1       5.358  13.571   4.069  0.00  0.00    +0.138 A 
ATOM     35  N   UNL     1       4.700  12.456   4.501  0.00  0.00    -0.237 N 
ATOM     36  N   UNL     1       3.660  12.786   5.291  0.00  0.00    -0.065 NA
BRANCH  35  37
ATOM     37  C   UNL     1       4.952  11.057   4.199  0.00  0.00    +0.219 C 
BRANCH  37  38
ATOM     38  C   UNL     1       5.775  10.418   5.306  0.00  0.00    +0.237 C 
ATOM     39  O   UNL     1       5.305   9.735   6.212  0.00  0.00    -0.274 OA
ATOM     40  N   UNL     1       7.131  10.585   5.219  0.00  0.00    -0.328 N 
ATOM     41  H   UNL     1       7.592  11.057   4.452  0.00  0.00    +0.145 HD
ATOM     42  H   UNL     1       7.705  10.162   5.939  0.00  0.00    +0.145 HD
ENDBRANCH  37  38
BRANCH  37  43
ATOM     43  C   UNL     1       5.648  10.913   2.847  0.00  0.00    +0.195 C 
BRANCH  43  44
ATOM     44  O   UNL     1       6.025   9.543   2.651  0.00  0.00    -0.380 OA
ATOM     45  C   UNL     1       4.967   8.782   2.080  0.00  0.00    +0.194 C 
ENDBRANCH  43  44
ENDBRANCH  37  43
ENDBRANCH  35  37
ENDBRANCH  31  33
ENDBRANCH  30  31
ENDBRANCH  26  30
ENDBRANCH  25  28
ENDBRANCH   1  25
TORSDOF 17
