REMARK VINA RESULT:    -6.788     12.469     16.358
REMARK INTER + INTRA:         -14.185
REMARK INTER:                 -11.176
REMARK INTRA:                  -3.009
REMARK UNBOUND:                -1.444
REMARK  Name = lig_assembled_16.pdb
REMARK  19 active torsions:
REMARK  status: ('A' for Active; 'I' for Inactive)
REMARK    1  A    between atoms: _2  and  _9
REMARK    2  A    between atoms: _4  and  _22
REMARK    3  A    between atoms: _6  and  _7
REMARK    4  A    between atoms: _6  and  _22
REMARK    5  A    between atoms: _9  and  _10
REMARK    6  A    between atoms: _13  and  _14
REMARK    7  A    between atoms: _14  and  _16
REMARK    8  A    between atoms: _18  and  _38
REMARK    9  A    between atoms: _20  and  _26
REMARK   10  A    between atoms: _21  and  _25
REMARK   11  A    between atoms: _25  and  _26
REMARK   12  A    between atoms: _28  and  _29
REMARK   13  A    between atoms: _30  and  _31
REMARK   14  A    between atoms: _32  and  _34
REMARK   15  A    between atoms: _34  and  _35
REMARK   16  A    between atoms: _34  and  _36
REMARK   17  A    between atoms: _36  and  _37
REMARK   18  A    between atoms: _36  and  _38
REMARK   19  A    between atoms: _39  and  _41
REMARK                            x       y       z     vdW  Elec       q    Type
REMARK                         _______ _______ _______ _____ _____    ______ ____
ROOT
ATOM      1  C   UNL     1      -2.011   3.711  22.842  0.00  0.00    +0.163 C 
ENDROOT
BRANCH   1   2
ATOM      2  O   UNL     1      -2.878   2.733  22.245  0.00  0.00    -0.388 OA
ATOM      3  H   UNL     1      -2.379   2.202  21.619  0.00  0.00    +0.210 HD
ENDBRANCH   1   2
BRANCH   1   4
ATOM      4  C   UNL     1      -1.483   4.697  21.786  0.00  0.00    +0.175 C 
BRANCH   4   5
ATOM      5  C   UNL     1      -0.399   4.068  20.898  0.00  0.00    +0.176 C 
ATOM      6  O   UNL     1      -1.062   3.264  19.884  0.00  0.00    -0.332 OA
ATOM      7  C   UNL     1      -0.183   2.667  18.874  0.00  0.00    +0.277 C 
ATOM      8  C   UNL     1       0.934   1.836  19.553  0.00  0.00    +0.110 C 
ATOM      9  C   UNL     1       1.647   2.639  20.661  0.00  0.00    +0.143 C 
ATOM     10  C   UNL     1       0.639   3.218  21.654  0.00  0.00    +0.133 C 
BRANCH  10  11
ATOM     11  N   UNL     1       1.323   4.052  22.655  0.00  0.00    -0.308 N 
ATOM     12  H   UNL     1       1.667   4.955  22.361  0.00  0.00    +0.149 HD
ATOM     13  C   UNL     1       1.517   3.694  23.927  0.00  0.00    +0.210 C 
ATOM     14  C   UNL     1       1.003   2.302  24.338  0.00  0.00    +0.109 C 
ATOM     15  O   UNL     1       2.080   4.420  24.748  0.00  0.00    -0.276 OA
ENDBRANCH  10  11
BRANCH   7  16
ATOM     16  C   UNL     1       0.452   3.758  17.987  0.00  0.00    +0.414 C 
ATOM     17  O   UNL     1       1.653   3.720  17.721  0.00  0.00    -0.240 OA
ATOM     18  O   UNL     1      -0.236   4.675  17.538  0.00  0.00    -0.240 OA
ENDBRANCH   7  16
BRANCH   7  19
ATOM     19  O   UNL     1      -0.982   1.775  18.055  0.00  0.00    -0.343 OA
ATOM     20  C   UNL     1      -0.669   0.367  18.198  0.00  0.00    +0.198 C 
ENDBRANCH   7  19
BRANCH   9  21
ATOM     21  O   UNL     1       2.561   1.791  21.358  0.00  0.00    -0.390 OA
ATOM     22  H   UNL     1       3.242   2.326  21.773  0.00  0.00    +0.210 HD
ENDBRANCH   9  21
ENDBRANCH   4   5
BRANCH   4  23
ATOM     23  O   UNL     1      -0.975   5.885  22.425  0.00  0.00    -0.387 OA
ATOM     24  H   UNL     1      -0.430   6.375  21.804  0.00  0.00    +0.210 HD
ENDBRANCH   4  23
ENDBRANCH   1   4
BRANCH   1  25
ATOM     25  C   UNL     1      -2.759   4.479  23.927  0.00  0.00    +0.141 C 
BRANCH  25  28
ATOM     26  C   UNL     1      -1.276   5.096  25.805  0.00  0.00    +0.401 C 
ATOM     27  O   UNL     1      -0.849   6.114  25.256  0.00  0.00    -0.226 OA
ATOM     28  N   UNL     1      -2.166   4.270  25.254  0.00  0.00    -0.279 N 
ATOM     29  H   UNL     1      -2.449   3.454  25.779  0.00  0.00    +0.152 HD
BRANCH  26  30
ATOM     30  O   UNL     1      -0.799   4.758  27.110  0.00  0.00    -0.444 OA
BRANCH  30  31
ATOM     31  C   UNL     1      -1.105   3.389  27.390  0.00  0.00    +0.292 C 
BRANCH  31  33
ATOM     32  N   UNL     1       1.274   3.320  28.080  0.00  0.00    -0.131 NA
ATOM     33  C   UNL     1       0.123   2.654  27.743  0.00  0.00    +0.120 A 
ATOM     34  C   UNL     1       0.345   1.298  27.830  0.00  0.00    +0.137 A 
ATOM     35  N   UNL     1       1.616   1.208  28.314  0.00  0.00    -0.247 N 
ATOM     36  N   UNL     1       2.191   2.420  28.413  0.00  0.00    -0.065 NA
BRANCH  35  37
ATOM     37  C   UNL     1       2.331   0.016  28.723  0.00  0.00    +0.180 C 
BRANCH  37  38
ATOM     38  C   UNL     1       3.172  -0.535  27.594  0.00  0.00    -0.026 A 
ATOM     39  C   UNL     1       2.763  -0.392  26.261  0.00  0.00    +0.006 A 
ATOM     40  C   UNL     1       3.563  -0.871  25.219  0.00  0.00    +0.015 A 
ATOM     41  C   UNL     1       4.774  -1.509  25.495  0.00  0.00    +0.059 A 
ATOM     42  C   UNL     1       5.184  -1.677  26.826  0.00  0.00    +0.015 A 
ATOM     43  C   UNL     1       4.378  -1.203  27.866  0.00  0.00    +0.006 A 
BRANCH  41  44
ATOM     44  C   UNL     1       5.620  -1.933  24.348  0.00  0.00    +0.337 C 
ATOM     45  O   UNL     1       6.835  -1.822  24.352  0.00  0.00    -0.245 OA
BRANCH  44  46
ATOM     46  O   UNL     1       4.927  -2.413  23.299  0.00  0.00    -0.477 OA
ATOM     47  H   UNL     1       5.443  -2.951  22.671  0.00  0.00    +0.295 HD
ENDBRANCH  44  46
ENDBRANCH  41  44
ENDBRANCH  37  38
ENDBRANCH  35  37
ENDBRANCH  31  33
ENDBRANCH  30  31
ENDBRANCH  26  30
ENDBRANCH  25  28
ENDBRANCH   1  25
TORSDOF 17
