REMARK VINA RESULT:    -5.357     11.730     14.942
REMARK INTER + INTRA:         -13.757
REMARK INTER:                 -11.296
REMARK INTRA:                  -2.462
REMARK UNBOUND:                -3.545
REMARK  Name = lig_assembled_55.pdb
REMARK  20 active torsions:
REMARK  status: ('A' for Active; 'I' for Inactive)
REMARK    1  A    between atoms: _2  and  _10
REMARK    2  A    between atoms: _3  and  _11
REMARK    3  A    between atoms: _3  and  _38
REMARK    4  A    between atoms: _5  and  _18
REMARK    5  A    between atoms: _6  and  _38
REMARK    6  A    between atoms: _7  and  _8
REMARK    7  A    between atoms: _7  and  _18
REMARK    8  A    between atoms: _10  and  _11
REMARK    9  A    between atoms: _14  and  _34
REMARK   10  A    between atoms: _16  and  _22
REMARK   11  A    between atoms: _17  and  _21
REMARK   12  A    between atoms: _21  and  _22
REMARK   13  A    between atoms: _24  and  _25
REMARK   14  A    between atoms: _26  and  _27
REMARK   15  A    between atoms: _28  and  _30
REMARK   16  A    between atoms: _30  and  _31
REMARK   17  A    between atoms: _30  and  _32
REMARK   18  A    between atoms: _32  and  _33
REMARK   19  A    between atoms: _32  and  _34
REMARK   20  A    between atoms: _35  and  _37
REMARK                            x       y       z     vdW  Elec       q    Type
REMARK                         _______ _______ _______ _____ _____    ______ ____
ROOT
ATOM      1  C   UNL     1      17.042   1.157  26.366  0.00  0.00    +0.163 C 
ENDROOT
BRANCH   1   2
ATOM      2  O   UNL     1      16.493   0.077  27.138  0.00  0.00    -0.388 OA
ATOM      3  H   UNL     1      15.655   0.349  27.519  0.00  0.00    +0.210 HD
ENDBRANCH   1   2
BRANCH   1   4
ATOM      4  C   UNL     1      16.538   1.108  24.914  0.00  0.00    +0.175 C 
BRANCH   4   5
ATOM      5  C   UNL     1      17.622   0.622  23.941  0.00  0.00    +0.176 C 
ATOM      6  O   UNL     1      17.559   1.454  22.749  0.00  0.00    -0.332 OA
ATOM      7  C   UNL     1      18.597   1.203  21.745  0.00  0.00    +0.277 C 
ATOM      8  C   UNL     1      18.609  -0.292  21.341  0.00  0.00    +0.110 C 
ATOM      9  C   UNL     1      18.644  -1.216  22.577  0.00  0.00    +0.143 C 
ATOM     10  C   UNL     1      17.524  -0.865  23.556  0.00  0.00    +0.133 C 
BRANCH  10  11
ATOM     11  N   UNL     1      17.620  -1.694  24.768  0.00  0.00    -0.308 N 
ATOM     12  H   UNL     1      18.401  -1.533  25.388  0.00  0.00    +0.149 HD
ATOM     13  C   UNL     1      16.744  -2.645  25.101  0.00  0.00    +0.210 C 
ATOM     14  C   UNL     1      15.579  -2.884  24.122  0.00  0.00    +0.109 C 
ATOM     15  O   UNL     1      16.842  -3.314  26.131  0.00  0.00    -0.276 OA
ENDBRANCH  10  11
BRANCH   7  16
ATOM     16  C   UNL     1      19.987   1.602  22.284  0.00  0.00    +0.414 C 
ATOM     17  O   UNL     1      20.083   2.340  23.264  0.00  0.00    -0.240 OA
ATOM     18  O   UNL     1      21.010   1.186  21.740  0.00  0.00    -0.240 OA
ENDBRANCH   7  16
BRANCH   7  19
ATOM     19  O   UNL     1      18.284   1.992  20.569  0.00  0.00    -0.343 OA
ATOM     20  C   UNL     1      17.026   1.663  19.928  0.00  0.00    +0.198 C 
ENDBRANCH   7  19
BRANCH   9  21
ATOM     21  O   UNL     1      18.502  -2.576  22.165  0.00  0.00    -0.390 OA
ATOM     22  H   UNL     1      17.912  -3.034  22.770  0.00  0.00    +0.210 HD
ENDBRANCH   9  21
ENDBRANCH   4   5
BRANCH   4  23
ATOM     23  O   UNL     1      16.055   2.405  24.512  0.00  0.00    -0.387 OA
ATOM     24  H   UNL     1      15.098   2.428  24.588  0.00  0.00    +0.210 HD
ENDBRANCH   4  23
ENDBRANCH   1   4
BRANCH   1  25
ATOM     25  C   UNL     1      16.660   2.494  26.993  0.00  0.00    +0.141 C 
BRANCH  25  28
ATOM     26  C   UNL     1      18.349   4.213  27.540  0.00  0.00    +0.401 C 
ATOM     27  O   UNL     1      18.300   4.009  28.755  0.00  0.00    -0.226 OA
ATOM     28  N   UNL     1      17.612   3.555  26.643  0.00  0.00    -0.279 N 
ATOM     29  H   UNL     1      17.716   3.800  25.669  0.00  0.00    +0.152 HD
BRANCH  26  30
ATOM     30  O   UNL     1      19.238   5.214  27.038  0.00  0.00    -0.444 OA
BRANCH  30  31
ATOM     31  C   UNL     1      19.576   4.917  25.681  0.00  0.00    +0.292 C 
BRANCH  31  33
ATOM     32  N   UNL     1      19.665   6.571  23.845  0.00  0.00    -0.131 NA
ATOM     33  C   UNL     1      20.170   6.098  25.028  0.00  0.00    +0.120 A 
ATOM     34  C   UNL     1      21.233   6.887  25.411  0.00  0.00    +0.137 A 
ATOM     35  N   UNL     1      21.336   7.808  24.413  0.00  0.00    -0.250 N 
ATOM     36  N   UNL     1      20.389   7.617  23.475  0.00  0.00    -0.065 NA
BRANCH  35  37
ATOM     37  C   UNL     1      22.275   8.902  24.298  0.00  0.00    +0.162 C 
BRANCH  37  38
ATOM     38  C   UNL     1      21.897  10.134  25.127  0.00  0.00    +0.129 C 
BRANCH  38  39
ATOM     39  N   UNL     1      20.427  10.382  25.194  0.00  0.00    -0.193 NA
ATOM     40  H   UNL     1      19.933   9.810  24.498  0.00  0.00    +0.148 HD
BRANCH  39  41
ATOM     41  S   UNL     1      19.728  10.302  26.725  0.00  0.00    +0.027 S 
ATOM     42  O   UNL     1      19.263  11.635  27.041  0.00  0.00    -0.158 OA
ATOM     43  O   UNL     1      18.829   9.170  26.736  0.00  0.00    -0.158 OA
ATOM     44  C   UNL     1      21.140   9.946  27.744  0.00  0.00    +0.214 C 
ENDBRANCH  39  41
ENDBRANCH  38  39
ENDBRANCH  37  38
ENDBRANCH  35  37
ENDBRANCH  31  33
ENDBRANCH  30  31
ENDBRANCH  26  30
ENDBRANCH  25  28
ENDBRANCH   1  25
TORSDOF 17
