REMARK VINA RESULT:    -5.052      5.698      7.217
REMARK INTER + INTRA:         -12.927
REMARK INTER:                 -10.784
REMARK INTRA:                  -2.144
REMARK UNBOUND:                -3.888
REMARK  Name = lig_assembled_46.pdb
REMARK  17 active torsions:
REMARK  status: ('A' for Active; 'I' for Inactive)
REMARK    1  A    between atoms: _2  and  _9
REMARK    2  A    between atoms: _4  and  _19
REMARK    3  A    between atoms: _6  and  _7
REMARK    4  A    between atoms: _6  and  _19
REMARK    5  A    between atoms: _9  and  _10
REMARK    6  A    between atoms: _15  and  _35
REMARK    7  A    between atoms: _17  and  _23
REMARK    8  A    between atoms: _18  and  _22
REMARK    9  A    between atoms: _22  and  _23
REMARK   10  A    between atoms: _25  and  _26
REMARK   11  A    between atoms: _27  and  _28
REMARK   12  A    between atoms: _29  and  _31
REMARK   13  A    between atoms: _31  and  _32
REMARK   14  A    between atoms: _31  and  _33
REMARK   15  A    between atoms: _33  and  _34
REMARK   16  A    between atoms: _33  and  _35
REMARK   17  A    between atoms: _36  and  _38
REMARK                            x       y       z     vdW  Elec       q    Type
REMARK                         _______ _______ _______ _____ _____    ______ ____
ROOT
ATOM      1  C   UNL     1       3.275   5.556  36.516  0.00  0.00    +0.163 C 
ENDROOT
BRANCH   1   2
ATOM      2  O   UNL     1       2.051   6.247  36.814  0.00  0.00    -0.388 OA
ATOM      3  H   UNL     1       2.224   6.944  37.452  0.00  0.00    +0.210 HD
ENDBRANCH   1   2
BRANCH   1   4
ATOM      4  C   UNL     1       2.995   4.073  36.293  0.00  0.00    +0.141 C 
BRANCH   4   7
ATOM      5  C   UNL     1       4.347   2.160  35.507  0.00  0.00    +0.401 C 
ATOM      6  O   UNL     1       3.853   1.361  36.306  0.00  0.00    -0.226 OA
ATOM      7  N   UNL     1       4.009   3.448  35.435  0.00  0.00    -0.279 N 
ATOM      8  H   UNL     1       4.478   4.026  34.752  0.00  0.00    +0.152 HD
BRANCH   5   9
ATOM      9  O   UNL     1       5.347   1.700  34.594  0.00  0.00    -0.444 OA
BRANCH   9  10
ATOM     10  C   UNL     1       4.942   1.993  33.254  0.00  0.00    +0.292 C 
BRANCH  10  12
ATOM     11  N   UNL     1       6.716   0.563  32.287  0.00  0.00    -0.131 NA
ATOM     12  C   UNL     1       5.399   0.933  32.336  0.00  0.00    +0.120 A 
ATOM     13  C   UNL     1       4.678   0.147  31.463  0.00  0.00    +0.137 A 
ATOM     14  N   UNL     1       5.603  -0.721  30.956  0.00  0.00    -0.247 N 
ATOM     15  N   UNL     1       6.831  -0.457  31.445  0.00  0.00    -0.065 NA
BRANCH  14  16
ATOM     16  C   UNL     1       5.356  -1.950  30.223  0.00  0.00    +0.180 C 
BRANCH  16  17
ATOM     17  C   UNL     1       6.077  -2.023  28.900  0.00  0.00    -0.026 A 
ATOM     18  C   UNL     1       7.398  -2.492  28.823  0.00  0.00    +0.005 A 
ATOM     19  C   UNL     1       8.024  -2.646  27.583  0.00  0.00    +0.000 A 
ATOM     20  C   UNL     1       7.339  -2.339  26.411  0.00  0.00    +0.000 A 
ATOM     21  C   UNL     1       6.031  -1.865  26.474  0.00  0.00    +0.000 A 
ATOM     22  C   UNL     1       5.402  -1.708  27.711  0.00  0.00    +0.005 A 
ENDBRANCH  16  17
ENDBRANCH  14  16
ENDBRANCH  10  12
ENDBRANCH   9  10
ENDBRANCH   5   9
ENDBRANCH   4   7
ENDBRANCH   1   4
BRANCH   1  23
ATOM     23  C   UNL     1       4.292   5.720  37.659  0.00  0.00    +0.175 C 
BRANCH  23  24
ATOM     24  C   UNL     1       5.616   6.327  37.171  0.00  0.00    +0.176 C 
ATOM     25  O   UNL     1       6.019   5.613  35.969  0.00  0.00    -0.332 OA
ATOM     26  C   UNL     1       7.216   6.128  35.298  0.00  0.00    +0.277 C 
ATOM     27  C   UNL     1       8.404   6.198  36.288  0.00  0.00    +0.110 C 
ATOM     28  C   UNL     1       8.015   6.920  37.595  0.00  0.00    +0.143 C 
ATOM     29  C   UNL     1       6.755   6.306  38.207  0.00  0.00    +0.133 C 
BRANCH  29  30
ATOM     30  N   UNL     1       6.345   7.057  39.403  0.00  0.00    -0.308 N 
ATOM     31  H   UNL     1       6.018   8.005  39.276  0.00  0.00    +0.149 HD
ATOM     32  C   UNL     1       6.376   6.569  40.646  0.00  0.00    +0.210 C 
ATOM     33  C   UNL     1       6.904   5.132  40.810  0.00  0.00    +0.109 C 
ATOM     34  O   UNL     1       6.012   7.217  41.629  0.00  0.00    -0.276 OA
ENDBRANCH  29  30
BRANCH  26  35
ATOM     35  C   UNL     1       6.953   7.529  34.709  0.00  0.00    +0.414 C 
ATOM     36  O   UNL     1       5.821   7.847  34.345  0.00  0.00    -0.240 OA
ATOM     37  O   UNL     1       7.872   8.342  34.597  0.00  0.00    -0.240 OA
ENDBRANCH  26  35
BRANCH  26  38
ATOM     38  O   UNL     1       7.563   5.207  34.231  0.00  0.00    -0.343 OA
ATOM     39  C   UNL     1       8.037   3.910  34.672  0.00  0.00    +0.198 C 
ENDBRANCH  26  38
BRANCH  28  40
ATOM     40  O   UNL     1       9.087   6.829  38.534  0.00  0.00    -0.390 OA
ATOM     41  H   UNL     1       8.756   7.009  39.417  0.00  0.00    +0.210 HD
ENDBRANCH  28  40
ENDBRANCH  23  24
BRANCH  23  42
ATOM     42  O   UNL     1       4.533   4.450  38.296  0.00  0.00    -0.387 OA
ATOM     43  H   UNL     1       5.230   3.984  37.829  0.00  0.00    +0.210 HD
ENDBRANCH  23  42
ENDBRANCH   1  23
TORSDOF 15
