REMARK VINA RESULT:    -5.358     18.104     21.918
REMARK INTER + INTRA:         -12.549
REMARK INTER:                  -9.874
REMARK INTRA:                  -2.675
REMARK UNBOUND:                -2.805
REMARK  Name = lig_assembled_72.pdb
REMARK  20 active torsions:
REMARK  status: ('A' for Active; 'I' for Inactive)
REMARK    1  A    between atoms: _2  and  _9
REMARK    2  A    between atoms: _4  and  _17
REMARK    3  A    between atoms: _5  and  _9
REMARK    4  A    between atoms: _5  and  _12
REMARK    5  A    between atoms: _6  and  _7
REMARK    6  A    between atoms: _6  and  _17
REMARK    7  A    between atoms: _9  and  _10
REMARK    8  A    between atoms: _9  and  _11
REMARK    9  A    between atoms: _13  and  _33
REMARK   10  A    between atoms: _15  and  _21
REMARK   11  A    between atoms: _16  and  _20
REMARK   12  A    between atoms: _20  and  _21
REMARK   13  A    between atoms: _23  and  _24
REMARK   14  A    between atoms: _25  and  _26
REMARK   15  A    between atoms: _27  and  _29
REMARK   16  A    between atoms: _29  and  _30
REMARK   17  A    between atoms: _29  and  _31
REMARK   18  A    between atoms: _31  and  _32
REMARK   19  A    between atoms: _31  and  _33
REMARK   20  A    between atoms: _34  and  _36
REMARK                            x       y       z     vdW  Elec       q    Type
REMARK                         _______ _______ _______ _____ _____    ______ ____
ROOT
ATOM      1  C   UNL     1       3.208   4.968  37.410  0.00  0.00    +0.163 C 
ENDROOT
BRANCH   1   2
ATOM      2  O   UNL     1       3.165   5.830  36.262  0.00  0.00    -0.388 OA
ATOM      3  H   UNL     1       2.501   5.512  35.646  0.00  0.00    +0.210 HD
ENDBRANCH   1   2
BRANCH   1   4
ATOM      4  C   UNL     1       4.633   4.887  37.985  0.00  0.00    +0.175 C 
BRANCH   4   5
ATOM      5  C   UNL     1       5.596   5.856  37.281  0.00  0.00    +0.176 C 
ATOM      6  O   UNL     1       6.157   5.170  36.129  0.00  0.00    -0.332 OA
ATOM      7  C   UNL     1       7.025   5.980  35.269  0.00  0.00    +0.277 C 
ATOM      8  C   UNL     1       8.162   6.623  36.100  0.00  0.00    +0.110 C 
ATOM      9  C   UNL     1       7.616   7.338  37.355  0.00  0.00    +0.143 C 
ATOM     10  C   UNL     1       6.725   6.404  38.174  0.00  0.00    +0.133 C 
BRANCH  10  11
ATOM     11  N   UNL     1       6.142   7.122  39.318  0.00  0.00    -0.308 N 
ATOM     12  H   UNL     1       5.482   7.862  39.125  0.00  0.00    +0.149 HD
ATOM     13  C   UNL     1       6.426   6.858  40.596  0.00  0.00    +0.210 C 
ATOM     14  C   UNL     1       7.454   5.741  40.858  0.00  0.00    +0.109 C 
ATOM     15  O   UNL     1       5.911   7.466  41.536  0.00  0.00    -0.276 OA
ENDBRANCH  10  11
BRANCH   7  16
ATOM     16  C   UNL     1       6.215   7.086  34.562  0.00  0.00    +0.414 C 
ATOM     17  O   UNL     1       6.676   8.222  34.458  0.00  0.00    -0.240 OA
ATOM     18  O   UNL     1       5.101   6.843  34.095  0.00  0.00    -0.240 OA
ENDBRANCH   7  16
BRANCH   9  19
ATOM     19  O   UNL     1       8.704   7.782  38.167  0.00  0.00    -0.390 OA
ATOM     20  H   UNL     1       9.005   8.640  37.858  0.00  0.00    +0.210 HD
ENDBRANCH   9  19
BRANCH   7  21
ATOM     21  O   UNL     1       7.621   5.103  34.279  0.00  0.00    -0.343 OA
ATOM     22  C   UNL     1       6.948   3.831  34.103  0.00  0.00    +0.198 C 
ENDBRANCH   7  21
ENDBRANCH   4   5
BRANCH   4  23
ATOM     23  O   UNL     1       5.131   3.538  37.892  0.00  0.00    -0.387 OA
ATOM     24  H   UNL     1       5.104   3.248  36.977  0.00  0.00    +0.210 HD
ENDBRANCH   4  23
ENDBRANCH   1   4
BRANCH   1  25
ATOM     25  C   UNL     1       2.254   5.480  38.484  0.00  0.00    +0.141 C 
BRANCH  25  28
ATOM     26  C   UNL     1       2.633   7.454  39.921  0.00  0.00    +0.401 C 
ATOM     27  O   UNL     1       2.707   6.798  40.963  0.00  0.00    -0.226 OA
ATOM     28  N   UNL     1       2.417   6.920  38.718  0.00  0.00    -0.279 N 
ATOM     29  H   UNL     1       2.362   7.542  37.924  0.00  0.00    +0.152 HD
BRANCH  26  30
ATOM     30  O   UNL     1       2.780   8.875  39.983  0.00  0.00    -0.444 OA
BRANCH  30  31
ATOM     31  C   UNL     1       2.458   9.332  41.300  0.00  0.00    +0.292 C 
BRANCH  31  33
ATOM     32  N   UNL     1       4.028  11.220  41.003  0.00  0.00    -0.131 NA
ATOM     33  C   UNL     1       3.509  10.236  41.800  0.00  0.00    +0.120 A 
ATOM     34  C   UNL     1       4.126  10.284  43.031  0.00  0.00    +0.137 A 
ATOM     35  N   UNL     1       5.012  11.321  42.924  0.00  0.00    -0.244 N 
ATOM     36  N   UNL     1       4.944  11.876  41.698  0.00  0.00    -0.065 NA
BRANCH  35  37
ATOM     37  C   UNL     1       5.940  11.833  43.943  0.00  0.00    +0.083 C 
ATOM     38  C   UNL     1       6.696  10.651  44.580  0.00  0.00    +0.038 C 
ATOM     39  C   UNL     1       5.150  12.584  45.033  0.00  0.00    +0.038 C 
BRANCH  37  40
ATOM     40  C   UNL     1       6.995  12.793  43.326  0.00  0.00    +0.185 C 
BRANCH  40  41
ATOM     41  O   UNL     1       7.685  12.215  42.220  0.00  0.00    -0.393 OA
ATOM     42  H   UNL     1       8.558  11.930  42.566  0.00  0.00    +0.209 HD
ENDBRANCH  40  41
ENDBRANCH  37  40
ENDBRANCH  35  37
ENDBRANCH  31  33
ENDBRANCH  30  31
ENDBRANCH  26  30
ENDBRANCH  25  28
ENDBRANCH   1  25
TORSDOF 16
