REMARK VINA RESULT:    -6.345      2.879      4.835
REMARK INTER + INTRA:         -14.848
REMARK INTER:                 -13.143
REMARK INTRA:                  -1.706
REMARK UNBOUND:                -2.754
REMARK  Name = lig_assembled_12.pdb
REMARK  19 active torsions:
REMARK  status: ('A' for Active; 'I' for Inactive)
REMARK    1  A    between atoms: _2  and  _9
REMARK    2  A    between atoms: _4  and  _21
REMARK    3  A    between atoms: _6  and  _7
REMARK    4  A    between atoms: _6  and  _21
REMARK    5  A    between atoms: _9  and  _16
REMARK    6  A    between atoms: _10  and  _11
REMARK    7  A    between atoms: _10  and  _16
REMARK    8  A    between atoms: _17  and  _37
REMARK    9  A    between atoms: _19  and  _25
REMARK   10  A    between atoms: _20  and  _24
REMARK   11  A    between atoms: _24  and  _25
REMARK   12  A    between atoms: _27  and  _28
REMARK   13  A    between atoms: _29  and  _30
REMARK   14  A    between atoms: _31  and  _33
REMARK   15  A    between atoms: _33  and  _34
REMARK   16  A    between atoms: _33  and  _35
REMARK   17  A    between atoms: _35  and  _36
REMARK   18  A    between atoms: _35  and  _37
REMARK   19  A    between atoms: _38  and  _40
REMARK                            x       y       z     vdW  Elec       q    Type
REMARK                         _______ _______ _______ _____ _____    ______ ____
ROOT
ATOM      1  C   UNL     1       7.272   2.376  34.318  0.00  0.00    +0.163 C 
ENDROOT
BRANCH   1   2
ATOM      2  O   UNL     1       8.118   2.013  35.422  0.00  0.00    -0.388 OA
ATOM      3  H   UNL     1       8.602   1.213  35.206  0.00  0.00    +0.210 HD
ENDBRANCH   1   2
BRANCH   1   4
ATOM      4  C   UNL     1       7.695   3.730  33.722  0.00  0.00    +0.175 C 
BRANCH   4   5
ATOM      5  C   UNL     1       7.097   4.914  34.496  0.00  0.00    +0.176 C 
ATOM      6  O   UNL     1       7.813   5.032  35.756  0.00  0.00    -0.332 OA
ATOM      7  C   UNL     1       7.447   6.182  36.588  0.00  0.00    +0.277 C 
ATOM      8  C   UNL     1       5.920   6.196  36.849  0.00  0.00    +0.110 C 
ATOM      9  C   UNL     1       5.117   6.041  35.541  0.00  0.00    +0.143 C 
ATOM     10  C   UNL     1       5.582   4.816  34.754  0.00  0.00    +0.133 C 
BRANCH  10  11
ATOM     11  N   UNL     1       4.870   4.728  33.469  0.00  0.00    -0.308 N 
ATOM     12  H   UNL     1       5.109   5.396  32.750  0.00  0.00    +0.149 HD
ATOM     13  C   UNL     1       3.928   3.822  33.191  0.00  0.00    +0.210 C 
ATOM     14  C   UNL     1       3.568   2.834  34.317  0.00  0.00    +0.109 C 
ATOM     15  O   UNL     1       3.358   3.763  32.101  0.00  0.00    -0.276 OA
ENDBRANCH  10  11
BRANCH   7  16
ATOM     16  C   UNL     1       7.865   7.503  35.909  0.00  0.00    +0.414 C 
ATOM     17  O   UNL     1       7.861   7.599  34.683  0.00  0.00    -0.240 OA
ATOM     18  O   UNL     1       8.207   8.473  36.588  0.00  0.00    -0.240 OA
ENDBRANCH   7  16
BRANCH   9  19
ATOM     19  O   UNL     1       3.727   5.907  35.842  0.00  0.00    -0.390 OA
ATOM     20  H   UNL     1       3.207   6.318  35.148  0.00  0.00    +0.210 HD
ENDBRANCH   9  19
BRANCH   7  21
ATOM     21  O   UNL     1       8.128   6.050  37.862  0.00  0.00    -0.343 OA
ATOM     22  C   UNL     1       9.265   5.151  37.857  0.00  0.00    +0.198 C 
ENDBRANCH   7  21
ENDBRANCH   4   5
BRANCH   4  23
ATOM     23  O   UNL     1       7.316   3.801  32.333  0.00  0.00    -0.387 OA
ATOM     24  H   UNL     1       7.119   4.712  32.101  0.00  0.00    +0.210 HD
ENDBRANCH   4  23
ENDBRANCH   1   4
BRANCH   1  25
ATOM     25  C   UNL     1       7.336   1.301  33.238  0.00  0.00    +0.141 C 
BRANCH  25  28
ATOM     26  C   UNL     1       5.816   0.218  31.618  0.00  0.00    +0.401 C 
ATOM     27  O   UNL     1       6.641  -0.629  31.268  0.00  0.00    -0.226 OA
ATOM     28  N   UNL     1       6.058   1.162  32.528  0.00  0.00    -0.279 N 
ATOM     29  H   UNL     1       5.321   1.819  32.741  0.00  0.00    +0.152 HD
BRANCH  26  30
ATOM     30  O   UNL     1       4.517   0.210  31.022  0.00  0.00    -0.444 OA
BRANCH  30  31
ATOM     31  C   UNL     1       4.321  -1.020  30.319  0.00  0.00    +0.292 C 
BRANCH  31  33
ATOM     32  N   UNL     1       4.464  -1.244  27.854  0.00  0.00    -0.131 NA
ATOM     33  C   UNL     1       3.812  -0.762  28.959  0.00  0.00    +0.120 A 
ATOM     34  C   UNL     1       2.702  -0.059  28.555  0.00  0.00    +0.139 A 
ATOM     35  N   UNL     1       2.747  -0.124  27.193  0.00  0.00    -0.226 N 
ATOM     36  N   UNL     1       3.795  -0.858  26.775  0.00  0.00    -0.063 NA
BRANCH  35  37
ATOM     37  C   UNL     1       1.816   0.434  26.228  0.00  0.00    +0.305 C 
BRANCH  37  38
ATOM     38  O   UNL     1       2.488   1.418  25.445  0.00  0.00    -0.353 OA
BRANCH  38  39
ATOM     39  C   UNL     1       1.864   2.691  25.552  0.00  0.00    +0.197 C 
BRANCH  39  40
ATOM     40  C   UNL     1       1.823   3.292  24.172  0.00  0.00    -0.022 A 
ATOM     41  C   UNL     1       1.830   2.471  23.037  0.00  0.00    +0.006 A 
ATOM     42  C   UNL     1       1.831   3.029  21.758  0.00  0.00    +0.000 A 
ATOM     43  C   UNL     1       1.835   4.414  21.602  0.00  0.00    +0.000 A 
ATOM     44  C   UNL     1       1.840   5.242  22.723  0.00  0.00    +0.000 A 
ATOM     45  C   UNL     1       1.837   4.684  24.003  0.00  0.00    +0.006 A 
ENDBRANCH  39  40
ENDBRANCH  38  39
ENDBRANCH  37  38
ENDBRANCH  35  37
ENDBRANCH  31  33
ENDBRANCH  30  31
ENDBRANCH  26  30
ENDBRANCH  25  28
ENDBRANCH   1  25
TORSDOF 17
