REMARK VINA RESULT:    -5.451     14.399     17.864
REMARK INTER + INTRA:         -12.883
REMARK INTER:                 -10.868
REMARK INTRA:                  -2.015
REMARK UNBOUND:                -2.970
REMARK  Name = lig_assembled_22.pdb
REMARK  20 active torsions:
REMARK  status: ('A' for Active; 'I' for Inactive)
REMARK    1  A    between atoms: _2  and  _9
REMARK    2  A    between atoms: _4  and  _18
REMARK    3  A    between atoms: _5  and  _9
REMARK    4  A    between atoms: _5  and  _12
REMARK    5  A    between atoms: _6  and  _7
REMARK    6  A    between atoms: _6  and  _18
REMARK    7  A    between atoms: _9  and  _10
REMARK    8  A    between atoms: _9  and  _11
REMARK    9  A    between atoms: _14  and  _34
REMARK   10  A    between atoms: _16  and  _22
REMARK   11  A    between atoms: _17  and  _21
REMARK   12  A    between atoms: _21  and  _22
REMARK   13  A    between atoms: _24  and  _25
REMARK   14  A    between atoms: _26  and  _27
REMARK   15  A    between atoms: _28  and  _30
REMARK   16  A    between atoms: _30  and  _31
REMARK   17  A    between atoms: _30  and  _32
REMARK   18  A    between atoms: _32  and  _33
REMARK   19  A    between atoms: _32  and  _34
REMARK   20  A    between atoms: _35  and  _37
REMARK                            x       y       z     vdW  Elec       q    Type
REMARK                         _______ _______ _______ _____ _____    ______ ____
ROOT
ATOM      1  C   UNL     1       3.192   2.868  32.713  0.00  0.00    +0.163 C 
ENDROOT
BRANCH   1   2
ATOM      2  O   UNL     1       3.926   2.193  31.679  0.00  0.00    -0.388 OA
ATOM      3  H   UNL     1       3.462   1.390  31.429  0.00  0.00    +0.210 HD
ENDBRANCH   1   2
BRANCH   1   4
ATOM      4  C   UNL     1       1.940   3.515  32.128  0.00  0.00    +0.141 C 
BRANCH   4   7
ATOM      5  C   UNL     1       1.535   3.427  29.692  0.00  0.00    +0.401 C 
ATOM      6  O   UNL     1       0.734   2.492  29.764  0.00  0.00    -0.226 OA
ATOM      7  N   UNL     1       2.151   3.963  30.746  0.00  0.00    -0.279 N 
ATOM      8  H   UNL     1       2.800   4.721  30.585  0.00  0.00    +0.152 HD
BRANCH   5   9
ATOM      9  O   UNL     1       1.841   3.982  28.410  0.00  0.00    -0.444 OA
BRANCH   9  10
ATOM     10  C   UNL     1       1.764   2.958  27.415  0.00  0.00    +0.292 C 
BRANCH  10  12
ATOM     11  N   UNL     1       0.661   4.736  26.103  0.00  0.00    -0.131 NA
ATOM     12  C   UNL     1       1.288   3.523  26.138  0.00  0.00    +0.120 A 
ATOM     13  C   UNL     1       1.360   3.017  24.858  0.00  0.00    +0.138 A 
ATOM     14  N   UNL     1       0.757   3.971  24.085  0.00  0.00    -0.235 N 
ATOM     15  N   UNL     1       0.337   4.999  24.847  0.00  0.00    -0.064 NA
BRANCH  14  16
ATOM     16  C   UNL     1       0.518   3.982  22.641  0.00  0.00    +0.155 C 
ATOM     17  C   UNL     1       0.095   2.596  22.110  0.00  0.00    +0.048 C 
ATOM     18  C   UNL     1       1.818   4.400  21.929  0.00  0.00    +0.048 C 
BRANCH  16  19
ATOM     19  C   UNL     1      -0.599   4.970  22.294  0.00  0.00    +0.332 C 
ATOM     20  O   UNL     1      -0.441   5.975  21.609  0.00  0.00    -0.248 OA
BRANCH  19  21
ATOM     21  O   UNL     1      -1.818   4.667  22.800  0.00  0.00    -0.479 OA
ATOM     22  H   UNL     1      -1.832   4.264  23.690  0.00  0.00    +0.295 HD
ENDBRANCH  19  21
ENDBRANCH  16  19
ENDBRANCH  14  16
ENDBRANCH  10  12
ENDBRANCH   9  10
ENDBRANCH   5   9
ENDBRANCH   4   7
ENDBRANCH   1   4
BRANCH   1  23
ATOM     23  C   UNL     1       4.058   3.945  33.389  0.00  0.00    +0.175 C 
BRANCH  23  24
ATOM     24  C   UNL     1       5.491   3.456  33.647  0.00  0.00    +0.176 C 
ATOM     25  O   UNL     1       5.414   2.092  34.146  0.00  0.00    -0.332 OA
ATOM     26  C   UNL     1       6.701   1.419  34.351  0.00  0.00    +0.277 C 
ATOM     27  C   UNL     1       7.613   2.264  35.274  0.00  0.00    +0.110 C 
ATOM     28  C   UNL     1       7.699   3.731  34.801  0.00  0.00    +0.143 C 
ATOM     29  C   UNL     1       6.305   4.331  34.618  0.00  0.00    +0.133 C 
BRANCH  29  30
ATOM     30  N   UNL     1       6.400   5.699  34.084  0.00  0.00    -0.308 N 
ATOM     31  H   UNL     1       6.666   5.811  33.116  0.00  0.00    +0.149 HD
ATOM     32  C   UNL     1       6.157   6.803  34.796  0.00  0.00    +0.210 C 
ATOM     33  C   UNL     1       5.779   6.601  36.276  0.00  0.00    +0.109 C 
ATOM     34  O   UNL     1       6.230   7.936  34.319  0.00  0.00    -0.276 OA
ENDBRANCH  29  30
BRANCH  26  35
ATOM     35  C   UNL     1       7.412   1.178  33.003  0.00  0.00    +0.414 C 
ATOM     36  O   UNL     1       8.620   1.387  32.893  0.00  0.00    -0.240 OA
ATOM     37  O   UNL     1       6.779   0.775  32.026  0.00  0.00    -0.240 OA
ENDBRANCH  26  35
BRANCH  26  38
ATOM     38  O   UNL     1       6.444   0.148  35.001  0.00  0.00    -0.343 OA
ATOM     39  C   UNL     1       7.590  -0.445  35.662  0.00  0.00    +0.198 C 
ENDBRANCH  26  38
BRANCH  28  40
ATOM     40  O   UNL     1       8.423   4.504  35.759  0.00  0.00    -0.390 OA
ATOM     41  H   UNL     1       9.113   3.964  36.152  0.00  0.00    +0.210 HD
ENDBRANCH  28  40
ENDBRANCH  23  24
BRANCH  23  42
ATOM     42  O   UNL     1       3.448   4.370  34.624  0.00  0.00    -0.387 OA
ATOM     43  H   UNL     1       3.109   5.263  34.523  0.00  0.00    +0.210 HD
ENDBRANCH  23  42
ENDBRANCH   1  23
TORSDOF 16
