REMARK VINA RESULT:    -5.888      5.205      8.244
REMARK INTER + INTRA:         -13.864
REMARK INTER:                 -12.304
REMARK INTRA:                  -1.560
REMARK UNBOUND:                -2.640
REMARK  Name = lig_assembled_29.pdb
REMARK  21 active torsions:
REMARK  status: ('A' for Active; 'I' for Inactive)
REMARK    1  A    between atoms: _2  and  _9
REMARK    2  A    between atoms: _4  and  _23
REMARK    3  A    between atoms: _6  and  _7
REMARK    4  A    between atoms: _6  and  _23
REMARK    5  A    between atoms: _9  and  _10
REMARK    6  A    between atoms: _12  and  _18
REMARK    7  A    between atoms: _13  and  _18
REMARK    8  A    between atoms: _14  and  _17
REMARK    9  A    between atoms: _15  and  _17
REMARK   10  A    between atoms: _19  and  _39
REMARK   11  A    between atoms: _21  and  _27
REMARK   12  A    between atoms: _22  and  _26
REMARK   13  A    between atoms: _26  and  _27
REMARK   14  A    between atoms: _29  and  _30
REMARK   15  A    between atoms: _31  and  _32
REMARK   16  A    between atoms: _33  and  _35
REMARK   17  A    between atoms: _35  and  _36
REMARK   18  A    between atoms: _35  and  _37
REMARK   19  A    between atoms: _37  and  _38
REMARK   20  A    between atoms: _37  and  _39
REMARK   21  A    between atoms: _40  and  _42
REMARK                            x       y       z     vdW  Elec       q    Type
REMARK                         _______ _______ _______ _____ _____    ______ ____
ROOT
ATOM      1  C   UNL     1       3.880   3.206  32.014  0.00  0.00    +0.163 C 
ENDROOT
BRANCH   1   2
ATOM      2  O   UNL     1       3.241   4.434  32.400  0.00  0.00    -0.388 OA
ATOM      3  H   UNL     1       2.903   4.351  33.295  0.00  0.00    +0.210 HD
ENDBRANCH   1   2
BRANCH   1   4
ATOM      4  C   UNL     1       4.443   2.469  33.241  0.00  0.00    +0.175 C 
BRANCH   4   5
ATOM      5  C   UNL     1       5.718   1.680  32.907  0.00  0.00    +0.176 C 
ATOM      6  O   UNL     1       5.512   0.302  33.322  0.00  0.00    -0.332 OA
ATOM      7  C   UNL     1       6.593  -0.630  32.985  0.00  0.00    +0.277 C 
ATOM      8  C   UNL     1       7.945  -0.113  33.535  0.00  0.00    +0.110 C 
ATOM      9  C   UNL     1       8.193   1.360  33.146  0.00  0.00    +0.143 C 
ATOM     10  C   UNL     1       7.005   2.239  33.541  0.00  0.00    +0.133 C 
BRANCH  10  11
ATOM     11  N   UNL     1       7.216   3.623  33.087  0.00  0.00    -0.308 N 
ATOM     12  H   UNL     1       7.349   3.780  32.098  0.00  0.00    +0.149 HD
ATOM     13  C   UNL     1       7.243   4.684  33.897  0.00  0.00    +0.210 C 
ATOM     14  C   UNL     1       7.064   4.408  35.402  0.00  0.00    +0.109 C 
ATOM     15  O   UNL     1       7.407   5.834  33.488  0.00  0.00    -0.276 OA
ENDBRANCH  10  11
BRANCH   7  16
ATOM     16  C   UNL     1       6.696  -0.816  31.457  0.00  0.00    +0.414 C 
ATOM     17  O   UNL     1       5.754  -0.507  30.729  0.00  0.00    -0.240 OA
ATOM     18  O   UNL     1       7.721  -1.276  30.952  0.00  0.00    -0.240 OA
ENDBRANCH   7  16
BRANCH   7  19
ATOM     19  O   UNL     1       6.300  -1.904  33.613  0.00  0.00    -0.343 OA
ATOM     20  C   UNL     1       6.733  -2.021  34.992  0.00  0.00    +0.198 C 
ENDBRANCH   7  19
BRANCH   9  21
ATOM     21  O   UNL     1       9.370   1.838  33.798  0.00  0.00    -0.390 OA
ATOM     22  H   UNL     1       9.314   2.791  33.902  0.00  0.00    +0.210 HD
ENDBRANCH   9  21
ENDBRANCH   4   5
BRANCH   4  23
ATOM     23  O   UNL     1       3.444   1.588  33.792  0.00  0.00    -0.387 OA
ATOM     24  H   UNL     1       2.963   2.043  34.487  0.00  0.00    +0.210 HD
ENDBRANCH   4  23
ENDBRANCH   1   4
BRANCH   1  25
ATOM     25  C   UNL     1       2.885   2.305  31.290  0.00  0.00    +0.141 C 
BRANCH  25  28
ATOM     26  C   UNL     1       2.029   3.449  29.274  0.00  0.00    +0.401 C 
ATOM     27  O   UNL     1       1.197   4.118  29.891  0.00  0.00    -0.226 OA
ATOM     28  N   UNL     1       2.854   2.572  29.847  0.00  0.00    -0.279 N 
ATOM     29  H   UNL     1       3.495   2.063  29.254  0.00  0.00    +0.152 HD
BRANCH  26  30
ATOM     30  O   UNL     1       2.128   3.602  27.856  0.00  0.00    -0.444 OA
BRANCH  30  31
ATOM     31  C   UNL     1       0.853   3.353  27.258  0.00  0.00    +0.292 C 
BRANCH  31  33
ATOM     32  N   UNL     1      -0.239   5.069  25.839  0.00  0.00    -0.131 NA
ATOM     33  C   UNL     1       0.720   4.104  25.995  0.00  0.00    +0.120 A 
ATOM     34  C   UNL     1       1.470   4.024  24.843  0.00  0.00    +0.137 A 
ATOM     35  N   UNL     1       0.976   5.029  24.062  0.00  0.00    -0.247 N 
ATOM     36  N   UNL     1      -0.080   5.623  24.643  0.00  0.00    -0.065 NA
BRANCH  35  37
ATOM     37  C   UNL     1       1.486   5.505  22.790  0.00  0.00    +0.180 C 
BRANCH  37  38
ATOM     38  C   UNL     1       1.096   4.568  21.669  0.00  0.00    -0.022 A 
ATOM     39  C   UNL     1      -0.261   4.333  21.384  0.00  0.00    +0.054 A 
ATOM     40  C   UNL     1      -0.636   3.528  20.299  0.00  0.00    +0.162 A 
ATOM     41  C   UNL     1       0.358   2.942  19.491  0.00  0.00    +0.162 A 
ATOM     42  C   UNL     1       1.706   3.176  19.777  0.00  0.00    +0.050 A 
ATOM     43  C   UNL     1       2.072   3.981  20.859  0.00  0.00    +0.009 A 
BRANCH  40  44
ATOM     44  O   UNL     1      -1.937   3.268  19.942  0.00  0.00    -0.491 OA
ATOM     45  C   UNL     1      -2.955   4.078  20.512  0.00  0.00    +0.277 C 
ENDBRANCH  40  44
BRANCH  41  46
ATOM     46  O   UNL     1      -0.089   2.163  18.451  0.00  0.00    -0.491 OA
ATOM     47  C   UNL     1       0.343   0.810  18.407  0.00  0.00    +0.277 C 
ENDBRANCH  41  46
ENDBRANCH  37  38
ENDBRANCH  35  37
ENDBRANCH  31  33
ENDBRANCH  30  31
ENDBRANCH  26  30
ENDBRANCH  25  28
ENDBRANCH   1  25
TORSDOF 17
