REMARK VINA RESULT:    -5.407      1.889      3.650
REMARK INTER + INTRA:         -13.440
REMARK INTER:                 -13.127
REMARK INTRA:                  -0.313
REMARK UNBOUND:                -3.450
REMARK  Name = lig_assembled_66.pdb
REMARK  18 active torsions:
REMARK  status: ('A' for Active; 'I' for Inactive)
REMARK    1  A    between atoms: _2  and  _10
REMARK    2  A    between atoms: _5  and  _21
REMARK    3  A    between atoms: _7  and  _8
REMARK    4  A    between atoms: _7  and  _21
REMARK    5  A    between atoms: _10  and  _11
REMARK    6  A    between atoms: _15  and  _16
REMARK    7  A    between atoms: _17  and  _37
REMARK    8  A    between atoms: _19  and  _25
REMARK    9  A    between atoms: _20  and  _24
REMARK   10  A    between atoms: _24  and  _25
REMARK   11  A    between atoms: _27  and  _28
REMARK   12  A    between atoms: _29  and  _30
REMARK   13  A    between atoms: _31  and  _33
REMARK   14  A    between atoms: _33  and  _34
REMARK   15  A    between atoms: _33  and  _35
REMARK   16  A    between atoms: _35  and  _36
REMARK   17  A    between atoms: _35  and  _37
REMARK   18  A    between atoms: _38  and  _40
REMARK                            x       y       z     vdW  Elec       q    Type
REMARK                         _______ _______ _______ _____ _____    ______ ____
ROOT
ATOM      1  C   UNL     1       1.894   2.273  31.908  0.00  0.00    +0.163 C 
ENDROOT
BRANCH   1   2
ATOM      2  O   UNL     1       2.034   1.290  30.870  0.00  0.00    -0.388 OA
ATOM      3  H   UNL     1       1.246   1.288  30.322  0.00  0.00    +0.210 HD
ENDBRANCH   1   2
BRANCH   1   4
ATOM      4  C   UNL     1       2.890   3.429  31.709  0.00  0.00    +0.175 C 
BRANCH   4   5
ATOM      5  C   UNL     1       4.018   3.405  32.750  0.00  0.00    +0.176 C 
ATOM      6  O   UNL     1       4.148   4.745  33.300  0.00  0.00    -0.332 OA
ATOM      7  C   UNL     1       5.114   4.891  34.393  0.00  0.00    +0.277 C 
ATOM      8  C   UNL     1       6.505   4.366  33.960  0.00  0.00    +0.110 C 
ATOM      9  C   UNL     1       6.413   2.956  33.340  0.00  0.00    +0.143 C 
ATOM     10  C   UNL     1       5.378   2.917  32.216  0.00  0.00    +0.133 C 
BRANCH  10  11
ATOM     11  N   UNL     1       5.237   1.550  31.691  0.00  0.00    -0.308 N 
ATOM     12  H   UNL     1       5.324   1.416  30.694  0.00  0.00    +0.149 HD
ATOM     13  C   UNL     1       5.002   0.474  32.448  0.00  0.00    +0.210 C 
ATOM     14  C   UNL     1       4.849   0.715  33.961  0.00  0.00    +0.109 C 
ATOM     15  O   UNL     1       4.904  -0.662  31.982  0.00  0.00    -0.276 OA
ENDBRANCH  10  11
BRANCH   7  16
ATOM     16  C   UNL     1       4.641   4.126  35.646  0.00  0.00    +0.414 C 
ATOM     17  O   UNL     1       3.440   4.030  35.898  0.00  0.00    -0.240 OA
ATOM     18  O   UNL     1       5.459   3.604  36.405  0.00  0.00    -0.240 OA
ENDBRANCH   7  16
BRANCH   7  19
ATOM     19  O   UNL     1       5.234   6.304  34.700  0.00  0.00    -0.343 OA
ATOM     20  C   UNL     1       6.526   6.889  34.399  0.00  0.00    +0.198 C 
ENDBRANCH   7  19
BRANCH   9  21
ATOM     21  O   UNL     1       7.688   2.575  32.819  0.00  0.00    -0.390 OA
ATOM     22  H   UNL     1       7.911   3.139  32.075  0.00  0.00    +0.210 HD
ENDBRANCH   9  21
ENDBRANCH   4   5
BRANCH   4  23
ATOM     23  O   UNL     1       2.198   4.693  31.755  0.00  0.00    -0.387 OA
ATOM     24  H   UNL     1       1.255   4.540  31.844  0.00  0.00    +0.210 HD
ENDBRANCH   4  23
ENDBRANCH   1   4
BRANCH   1  25
ATOM     25  C   UNL     1       0.471   2.823  31.918  0.00  0.00    +0.141 C 
BRANCH  25  28
ATOM     26  C   UNL     1      -0.420   4.196  30.068  0.00  0.00    +0.401 C 
ATOM     27  O   UNL     1      -0.373   5.252  30.703  0.00  0.00    -0.226 OA
ATOM     28  N   UNL     1      -0.051   3.013  30.559  0.00  0.00    -0.279 N 
ATOM     29  H   UNL     1      -0.136   2.202  29.963  0.00  0.00    +0.152 HD
BRANCH  26  30
ATOM     30  O   UNL     1      -0.901   4.218  28.721  0.00  0.00    -0.444 OA
BRANCH  30  31
ATOM     31  C   UNL     1      -0.057   3.407  27.900  0.00  0.00    +0.292 C 
BRANCH  31  33
ATOM     32  N   UNL     1      -0.648   5.090  26.180  0.00  0.00    -0.131 NA
ATOM     33  C   UNL     1       0.129   4.034  26.576  0.00  0.00    +0.120 A 
ATOM     34  C   UNL     1       1.045   3.754  25.588  0.00  0.00    +0.137 A 
ATOM     35  N   UNL     1       0.814   4.711  24.642  0.00  0.00    -0.247 N 
ATOM     36  N   UNL     1      -0.218   5.501  24.994  0.00  0.00    -0.065 NA
BRANCH  35  37
ATOM     37  C   UNL     1       1.676   5.084  23.536  0.00  0.00    +0.180 C 
BRANCH  37  38
ATOM     38  C   UNL     1       1.775   4.022  22.471  0.00  0.00    -0.025 A 
ATOM     39  C   UNL     1       1.925   2.673  22.826  0.00  0.00    +0.005 A 
ATOM     40  C   UNL     1       1.933   1.675  21.849  0.00  0.00    +0.002 A 
ATOM     41  C   UNL     1       1.811   2.015  20.502  0.00  0.00    +0.019 A 
ATOM     42  C   UNL     1       1.697   3.356  20.128  0.00  0.00    +0.052 A 
ATOM     43  C   UNL     1       1.677   4.356  21.110  0.00  0.00    +0.024 A 
BRANCH  42  44
ATOM     44  C   UNL     1       1.588   3.709  18.743  0.00  0.00    +0.099 C 
ATOM     45  N   UNL     1       1.493   3.989  17.620  0.00  0.00    -0.191 NA
ENDBRANCH  42  44
ENDBRANCH  37  38
ENDBRANCH  35  37
ENDBRANCH  31  33
ENDBRANCH  30  31
ENDBRANCH  26  30
ENDBRANCH  25  28
ENDBRANCH   1  25
TORSDOF 16
