REMARK VINA RESULT:    -6.593      8.618     13.607
REMARK INTER + INTRA:         -13.353
REMARK INTER:                 -11.208
REMARK INTRA:                  -2.145
REMARK UNBOUND:                -1.557
REMARK  Name = lig_assembled_28.pdb
REMARK  17 active torsions:
REMARK  status: ('A' for Active; 'I' for Inactive)
REMARK    1  A    between atoms: _2  and  _9
REMARK    2  A    between atoms: _4  and  _22
REMARK    3  A    between atoms: _6  and  _7
REMARK    4  A    between atoms: _6  and  _22
REMARK    5  A    between atoms: _9  and  _10
REMARK    6  A    between atoms: _18  and  _38
REMARK    7  A    between atoms: _20  and  _26
REMARK    8  A    between atoms: _21  and  _25
REMARK    9  A    between atoms: _25  and  _26
REMARK   10  A    between atoms: _28  and  _29
REMARK   11  A    between atoms: _30  and  _31
REMARK   12  A    between atoms: _32  and  _34
REMARK   13  A    between atoms: _34  and  _35
REMARK   14  A    between atoms: _34  and  _36
REMARK   15  A    between atoms: _36  and  _37
REMARK   16  A    between atoms: _36  and  _38
REMARK   17  A    between atoms: _39  and  _41
REMARK                            x       y       z     vdW  Elec       q    Type
REMARK                         _______ _______ _______ _____ _____    ______ ____
ROOT
ATOM      1  C   UNL     1       8.446   2.449  36.164  0.00  0.00    +0.163 C 
ENDROOT
BRANCH   1   2
ATOM      2  O   UNL     1       8.648   2.830  37.534  0.00  0.00    -0.388 OA
ATOM      3  H   UNL     1       7.845   3.230  37.877  0.00  0.00    +0.210 HD
ENDBRANCH   1   2
BRANCH   1   4
ATOM      4  C   UNL     1       9.253   1.194  35.848  0.00  0.00    +0.141 C 
BRANCH   4   7
ATOM      5  C   UNL     1      11.541   0.698  36.640  0.00  0.00    +0.401 C 
ATOM      6  O   UNL     1      11.195  -0.263  37.330  0.00  0.00    -0.226 OA
ATOM      7  N   UNL     1      10.699   1.440  35.919  0.00  0.00    -0.279 N 
ATOM      8  H   UNL     1      11.077   2.215  35.392  0.00  0.00    +0.152 HD
BRANCH   5   9
ATOM      9  O   UNL     1      12.923   1.061  36.598  0.00  0.00    -0.444 OA
BRANCH   9  10
ATOM     10  C   UNL     1      13.334   1.221  35.238  0.00  0.00    +0.292 C 
BRANCH  10  12
ATOM     11  N   UNL     1      13.383   3.570  34.444  0.00  0.00    -0.131 NA
ATOM     12  C   UNL     1      14.012   2.519  35.056  0.00  0.00    +0.120 A 
ATOM     13  C   UNL     1      15.269   2.916  35.451  0.00  0.00    +0.137 A 
ATOM     14  N   UNL     1      15.311   4.245  35.141  0.00  0.00    -0.247 N 
ATOM     15  N   UNL     1      14.193   4.619  34.491  0.00  0.00    -0.065 NA
BRANCH  14  16
ATOM     16  C   UNL     1      16.296   5.263  35.483  0.00  0.00    +0.180 C 
BRANCH  16  17
ATOM     17  C   UNL     1      16.378   6.391  34.481  0.00  0.00    -0.022 A 
ATOM     18  C   UNL     1      15.860   7.659  34.801  0.00  0.00    +0.055 A 
ATOM     19  C   UNL     1      16.060   8.685  33.903  0.00  0.00    +0.167 A 
ATOM     20  O   UNL     1      15.676   9.979  34.079  0.00  0.00    -0.453 OA
ATOM     21  C   UNL     1      16.253  10.591  32.907  0.00  0.00    +0.466 C 
ATOM     22  O   UNL     1      16.833   9.639  31.990  0.00  0.00    -0.453 OA
ATOM     23  C   UNL     1      16.716   8.492  32.713  0.00  0.00    +0.166 A 
ATOM     24  C   UNL     1      17.207   7.256  32.348  0.00  0.00    +0.050 A 
ATOM     25  C   UNL     1      17.041   6.199  33.248  0.00  0.00    +0.009 A 
ENDBRANCH  16  17
ENDBRANCH  14  16
ENDBRANCH  10  12
ENDBRANCH   9  10
ENDBRANCH   5   9
ENDBRANCH   4   7
ENDBRANCH   1   4
BRANCH   1  26
ATOM     26  C   UNL     1       8.864   3.582  35.210  0.00  0.00    +0.175 C 
BRANCH  26  27
ATOM     27  C   UNL     1       7.718   4.571  34.953  0.00  0.00    +0.176 C 
ATOM     28  O   UNL     1       7.539   5.370  36.154  0.00  0.00    -0.332 OA
ATOM     29  C   UNL     1       6.550   6.449  36.057  0.00  0.00    +0.277 C 
ATOM     30  C   UNL     1       5.184   5.889  35.591  0.00  0.00    +0.110 C 
ATOM     31  C   UNL     1       5.328   5.006  34.334  0.00  0.00    +0.143 C 
ATOM     32  C   UNL     1       6.384   3.920  34.544  0.00  0.00    +0.133 C 
BRANCH  32  33
ATOM     33  N   UNL     1       6.574   3.141  33.311  0.00  0.00    -0.308 N 
ATOM     34  H   UNL     1       7.008   3.603  32.524  0.00  0.00    +0.149 HD
ATOM     35  C   UNL     1       6.211   1.864  33.163  0.00  0.00    +0.210 C 
ATOM     36  C   UNL     1       5.529   1.197  34.373  0.00  0.00    +0.109 C 
ATOM     37  O   UNL     1       6.397   1.232  32.123  0.00  0.00    -0.276 OA
ENDBRANCH  32  33
BRANCH  29  38
ATOM     38  C   UNL     1       7.024   7.538  35.072  0.00  0.00    +0.414 C 
ATOM     39  O   UNL     1       8.222   7.796  34.963  0.00  0.00    -0.240 OA
ATOM     40  O   UNL     1       6.209   8.157  34.387  0.00  0.00    -0.240 OA
ENDBRANCH  29  38
BRANCH  29  41
ATOM     41  O   UNL     1       6.383   7.024  37.378  0.00  0.00    -0.343 OA
ATOM     42  C   UNL     1       7.581   7.043  38.194  0.00  0.00    +0.198 C 
ENDBRANCH  29  41
BRANCH  31  43
ATOM     43  O   UNL     1       4.075   4.392  34.030  0.00  0.00    -0.390 OA
ATOM     44  H   UNL     1       3.543   4.338  34.827  0.00  0.00    +0.210 HD
ENDBRANCH  31  43
ENDBRANCH  26  27
BRANCH  26  45
ATOM     45  O   UNL     1       9.336   3.033  33.964  0.00  0.00    -0.387 OA
ATOM     46  H   UNL     1       9.515   3.747  33.347  0.00  0.00    +0.210 HD
ENDBRANCH  26  45
ENDBRANCH   1  26
TORSDOF 15
