REMARK VINA RESULT:    -5.723     14.593     18.199
REMARK INTER + INTRA:         -12.396
REMARK INTER:                 -10.433
REMARK INTRA:                  -1.962
REMARK UNBOUND:                -2.491
REMARK  Name = lig_assembled_57.pdb
REMARK  17 active torsions:
REMARK  status: ('A' for Active; 'I' for Inactive)
REMARK    1  A    between atoms: _2  and  _10
REMARK    2  A    between atoms: _3  and  _13
REMARK    3  A    between atoms: _5  and  _19
REMARK    4  A    between atoms: _7  and  _8
REMARK    5  A    between atoms: _7  and  _19
REMARK    6  A    between atoms: _15  and  _35
REMARK    7  A    between atoms: _17  and  _23
REMARK    8  A    between atoms: _18  and  _22
REMARK    9  A    between atoms: _22  and  _23
REMARK   10  A    between atoms: _25  and  _26
REMARK   11  A    between atoms: _27  and  _28
REMARK   12  A    between atoms: _29  and  _31
REMARK   13  A    between atoms: _31  and  _32
REMARK   14  A    between atoms: _31  and  _33
REMARK   15  A    between atoms: _33  and  _34
REMARK   16  A    between atoms: _33  and  _35
REMARK   17  A    between atoms: _36  and  _38
REMARK                            x       y       z     vdW  Elec       q    Type
REMARK                         _______ _______ _______ _____ _____    ______ ____
ROOT
ATOM      1  C   UNL     1      18.490   5.821  23.807  0.00  0.00    +0.163 C 
ENDROOT
BRANCH   1   2
ATOM      2  O   UNL     1      17.462   5.813  22.802  0.00  0.00    -0.388 OA
ATOM      3  H   UNL     1      17.601   5.071  22.208  0.00  0.00    +0.210 HD
ENDBRANCH   1   2
BRANCH   1   4
ATOM      4  C   UNL     1      19.500   6.924  23.510  0.00  0.00    +0.141 C 
BRANCH   4   7
ATOM      5  C   UNL     1      20.980   7.831  25.269  0.00  0.00    +0.401 C 
ATOM      6  O   UNL     1      21.978   7.225  24.873  0.00  0.00    -0.226 OA
ATOM      7  N   UNL     1      19.779   7.744  24.696  0.00  0.00    -0.279 N 
ATOM      8  H   UNL     1      19.018   8.272  25.100  0.00  0.00    +0.152 HD
BRANCH   5   9
ATOM      9  O   UNL     1      21.091   8.681  26.414  0.00  0.00    -0.444 OA
BRANCH   9  10
ATOM     10  C   UNL     1      19.804   9.209  26.745  0.00  0.00    +0.292 C 
BRANCH  10  12
ATOM     11  N   UNL     1      19.051   7.481  28.341  0.00  0.00    -0.131 NA
ATOM     12  C   UNL     1      19.414   8.775  28.099  0.00  0.00    +0.120 A 
ATOM     13  C   UNL     1      19.364   9.486  29.279  0.00  0.00    +0.137 A 
ATOM     14  N   UNL     1      19.050   8.550  30.219  0.00  0.00    -0.248 N 
ATOM     15  N   UNL     1      18.792   7.362  29.633  0.00  0.00    -0.065 NA
BRANCH  14  16
ATOM     16  C   UNL     1      19.021   8.626  31.675  0.00  0.00    +0.111 C 
ATOM     17  C   UNL     1      18.735  10.063  32.139  0.00  0.00    +0.042 C 
ATOM     18  C   UNL     1      17.266  10.415  31.917  0.00  0.00    +0.086 C 
ATOM     19  N   UNL     1      16.350   9.516  32.628  0.00  0.00    -0.305 NA
ATOM     20  C   UNL     1      16.586   8.107  32.312  0.00  0.00    +0.086 C 
ATOM     21  C   UNL     1      16.318   9.778  34.064  0.00  0.00    +0.104 C 
ATOM     22  C   UNL     1      18.055   7.664  32.387  0.00  0.00    +0.042 C 
ENDBRANCH  14  16
ENDBRANCH  10  12
ENDBRANCH   9  10
ENDBRANCH   5   9
ENDBRANCH   4   7
ENDBRANCH   1   4
BRANCH   1  23
ATOM     23  C   UNL     1      19.213   4.464  23.865  0.00  0.00    +0.175 C 
BRANCH  23  24
ATOM     24  C   UNL     1      18.454   3.442  24.724  0.00  0.00    +0.176 C 
ATOM     25  O   UNL     1      19.335   3.022  25.802  0.00  0.00    -0.332 OA
ATOM     26  C   UNL     1      18.740   2.119  26.792  0.00  0.00    +0.277 C 
ATOM     27  C   UNL     1      18.136   0.875  26.095  0.00  0.00    +0.110 C 
ATOM     28  C   UNL     1      17.216   1.271  24.921  0.00  0.00    +0.143 C 
ATOM     29  C   UNL     1      17.935   2.213  23.955  0.00  0.00    +0.133 C 
BRANCH  29  30
ATOM     30  N   UNL     1      17.021   2.652  22.888  0.00  0.00    -0.308 N 
ATOM     31  H   UNL     1      16.246   3.246  23.145  0.00  0.00    +0.149 HD
ATOM     32  C   UNL     1      17.149   2.315  21.601  0.00  0.00    +0.210 C 
ATOM     33  C   UNL     1      18.326   1.386  21.245  0.00  0.00    +0.109 C 
ATOM     34  O   UNL     1      16.377   2.709  20.727  0.00  0.00    -0.276 OA
ENDBRANCH  29  30
BRANCH  26  35
ATOM     35  C   UNL     1      17.642   2.841  27.601  0.00  0.00    +0.414 C 
ATOM     36  O   UNL     1      17.943   3.540  28.567  0.00  0.00    -0.240 OA
ATOM     37  O   UNL     1      16.457   2.724  27.287  0.00  0.00    -0.240 OA
ENDBRANCH  26  35
BRANCH  28  38
ATOM     38  O   UNL     1      16.804   0.099  24.216  0.00  0.00    -0.390 OA
ATOM     39  H   UNL     1      17.433  -0.092  23.516  0.00  0.00    +0.210 HD
ENDBRANCH  28  38
BRANCH  26  40
ATOM     40  O   UNL     1      19.794   1.676  27.686  0.00  0.00    -0.343 OA
ATOM     41  C   UNL     1      20.579   0.558  27.200  0.00  0.00    +0.198 C 
ENDBRANCH  26  40
ENDBRANCH  23  24
BRANCH  23  42
ATOM     42  O   UNL     1      20.553   4.637  24.367  0.00  0.00    -0.387 OA
ATOM     43  H   UNL     1      20.682   5.552  24.628  0.00  0.00    +0.210 HD
ENDBRANCH  23  42
ENDBRANCH   1  23
TORSDOF 14
