REMARK VINA RESULT:    -6.009     14.166     15.679
REMARK INTER + INTRA:         -14.690
REMARK INTER:                 -12.736
REMARK INTRA:                  -1.954
REMARK UNBOUND:                -3.588
REMARK  Name = lig_assembled_58.pdb
REMARK  18 active torsions:
REMARK  status: ('A' for Active; 'I' for Inactive)
REMARK    1  A    between atoms: _2  and  _9
REMARK    2  A    between atoms: _4  and  _25
REMARK    3  A    between atoms: _6  and  _7
REMARK    4  A    between atoms: _6  and  _25
REMARK    5  A    between atoms: _9  and  _10
REMARK    6  A    between atoms: _9  and  _16
REMARK    7  A    between atoms: _21  and  _41
REMARK    8  A    between atoms: _23  and  _29
REMARK    9  A    between atoms: _24  and  _28
REMARK   10  A    between atoms: _28  and  _29
REMARK   11  A    between atoms: _31  and  _32
REMARK   12  A    between atoms: _33  and  _34
REMARK   13  A    between atoms: _35  and  _37
REMARK   14  A    between atoms: _37  and  _38
REMARK   15  A    between atoms: _37  and  _39
REMARK   16  A    between atoms: _39  and  _40
REMARK   17  A    between atoms: _39  and  _41
REMARK   18  A    between atoms: _42  and  _44
REMARK                            x       y       z     vdW  Elec       q    Type
REMARK                         _______ _______ _______ _____ _____    ______ ____
ROOT
ATOM      1  C   UNL     1       1.593   3.317  32.657  0.00  0.00    +0.141 C 
ENDROOT
BRANCH   1   4
ATOM      2  C   UNL     1      -0.207   4.002  31.110  0.00  0.00    +0.401 C 
ATOM      3  O   UNL     1      -1.115   3.762  31.910  0.00  0.00    -0.226 OA
ATOM      4  N   UNL     1       1.087   3.818  31.373  0.00  0.00    -0.279 N 
ATOM      5  H   UNL     1       1.757   4.035  30.649  0.00  0.00    +0.152 HD
BRANCH   2   6
ATOM      6  O   UNL     1      -0.540   4.506  29.813  0.00  0.00    -0.444 OA
BRANCH   6   7
ATOM      7  C   UNL     1      -0.691   3.415  28.901  0.00  0.00    +0.292 C 
BRANCH   7   9
ATOM      8  N   UNL     1       1.650   3.892  28.213  0.00  0.00    -0.131 NA
ATOM      9  C   UNL     1       0.399   3.425  27.908  0.00  0.00    +0.120 A 
ATOM     10  C   UNL     1       0.396   2.975  26.608  0.00  0.00    +0.138 A 
ATOM     11  N   UNL     1       1.707   3.046  26.223  0.00  0.00    -0.240 N 
ATOM     12  N   UNL     1       2.440   3.676  27.169  0.00  0.00    -0.064 NA
BRANCH  11  13
ATOM     13  C   UNL     1       2.355   2.519  25.008  0.00  0.00    +0.169 C 
BRANCH  13  14
ATOM     14  C   UNL     1       2.119   1.005  24.904  0.00  0.00    -0.019 A 
ATOM     15  C   UNL     1       0.815   0.486  24.982  0.00  0.00    +0.006 A 
ATOM     16  C   UNL     1       0.595  -0.893  24.946  0.00  0.00    +0.000 A 
ATOM     17  C   UNL     1       1.667  -1.775  24.818  0.00  0.00    +0.000 A 
ATOM     18  C   UNL     1       2.965  -1.281  24.742  0.00  0.00    +0.000 A 
ATOM     19  C   UNL     1       3.189   0.094  24.796  0.00  0.00    +0.006 A 
ENDBRANCH  13  14
BRANCH  13  20
ATOM     20  C   UNL     1       1.995   3.318  23.748  0.00  0.00    -0.019 A 
ATOM     21  C   UNL     1       1.836   4.715  23.792  0.00  0.00    +0.006 A 
ATOM     22  C   UNL     1       1.505   5.437  22.642  0.00  0.00    +0.000 A 
ATOM     23  C   UNL     1       1.350   4.781  21.424  0.00  0.00    +0.000 A 
ATOM     24  C   UNL     1       1.557   3.411  21.346  0.00  0.00    +0.000 A 
ATOM     25  C   UNL     1       1.893   2.690  22.491  0.00  0.00    +0.006 A 
ENDBRANCH  13  20
ENDBRANCH  11  13
ENDBRANCH   7   9
ENDBRANCH   6   7
ENDBRANCH   2   6
ENDBRANCH   1   4
BRANCH   1  26
ATOM     26  C   UNL     1       3.107   3.463  32.767  0.00  0.00    +0.163 C 
BRANCH  26  27
ATOM     27  O   UNL     1       3.513   4.755  32.287  0.00  0.00    -0.388 OA
ATOM     28  H   UNL     1       3.692   4.706  31.345  0.00  0.00    +0.210 HD
ENDBRANCH  26  27
BRANCH  26  29
ATOM     29  C   UNL     1       3.538   3.259  34.229  0.00  0.00    +0.175 C 
BRANCH  29  30
ATOM     30  C   UNL     1       5.065   3.306  34.394  0.00  0.00    +0.176 C 
ATOM     31  O   UNL     1       5.495   4.680  34.184  0.00  0.00    -0.332 OA
ATOM     32  C   UNL     1       6.921   4.938  34.406  0.00  0.00    +0.277 C 
ATOM     33  C   UNL     1       7.784   3.982  33.548  0.00  0.00    +0.110 C 
ATOM     34  C   UNL     1       7.343   2.513  33.714  0.00  0.00    +0.143 C 
ATOM     35  C   UNL     1       5.843   2.358  33.463  0.00  0.00    +0.133 C 
BRANCH  35  36
ATOM     36  N   UNL     1       5.419   0.971  33.708  0.00  0.00    -0.308 N 
ATOM     37  H   UNL     1       5.485   0.618  34.653  0.00  0.00    +0.149 HD
ATOM     38  C   UNL     1       4.953   0.148  32.765  0.00  0.00    +0.210 C 
ATOM     39  C   UNL     1       4.889   0.708  31.331  0.00  0.00    +0.109 C 
ATOM     40  O   UNL     1       4.591  -1.005  33.003  0.00  0.00    -0.276 OA
ENDBRANCH  35  36
BRANCH  32  41
ATOM     41  C   UNL     1       7.283   4.762  35.896  0.00  0.00    +0.414 C 
ATOM     42  O   UNL     1       6.397   4.602  36.735  0.00  0.00    -0.240 OA
ATOM     43  O   UNL     1       8.459   4.781  36.259  0.00  0.00    -0.240 OA
ENDBRANCH  32  41
BRANCH  34  44
ATOM     44  O   UNL     1       8.061   1.688  32.795  0.00  0.00    -0.390 OA
ATOM     45  H   UNL     1       7.529   1.545  32.009  0.00  0.00    +0.210 HD
ENDBRANCH  34  44
BRANCH  32  46
ATOM     46  O   UNL     1       7.199   6.301  33.994  0.00  0.00    -0.343 OA
ATOM     47  C   UNL     1       6.193   7.274  34.374  0.00  0.00    +0.198 C 
ENDBRANCH  32  46
ENDBRANCH  29  30
BRANCH  29  48
ATOM     48  O   UNL     1       3.023   2.009  34.730  0.00  0.00    -0.387 OA
ATOM     49  H   UNL     1       3.588   1.691  35.438  0.00  0.00    +0.210 HD
ENDBRANCH  29  48
ENDBRANCH  26  29
ENDBRANCH   1  26
TORSDOF 16
