REMARK VINA RESULT:    -6.362     13.628     15.415
REMARK INTER + INTRA:         -13.990
REMARK INTER:                 -11.621
REMARK INTRA:                  -2.369
REMARK UNBOUND:                -2.608
REMARK  Name = lig_assembled_4.pdb
REMARK  19 active torsions:
REMARK  status: ('A' for Active; 'I' for Inactive)
REMARK    1  A    between atoms: _2  and  _9
REMARK    2  A    between atoms: _4  and  _21
REMARK    3  A    between atoms: _6  and  _7
REMARK    4  A    between atoms: _6  and  _21
REMARK    5  A    between atoms: _10  and  _11
REMARK    6  A    between atoms: _11  and  _12
REMARK    7  A    between atoms: _11  and  _13
REMARK    8  A    between atoms: _17  and  _37
REMARK    9  A    between atoms: _19  and  _25
REMARK   10  A    between atoms: _20  and  _24
REMARK   11  A    between atoms: _24  and  _25
REMARK   12  A    between atoms: _27  and  _28
REMARK   13  A    between atoms: _29  and  _30
REMARK   14  A    between atoms: _31  and  _33
REMARK   15  A    between atoms: _33  and  _34
REMARK   16  A    between atoms: _33  and  _35
REMARK   17  A    between atoms: _35  and  _36
REMARK   18  A    between atoms: _35  and  _37
REMARK   19  A    between atoms: _38  and  _40
REMARK                            x       y       z     vdW  Elec       q    Type
REMARK                         _______ _______ _______ _____ _____    ______ ____
ROOT
ATOM      1  C   UNL     1      18.913   9.937  28.844  0.00  0.00    +0.163 C 
ENDROOT
BRANCH   1   2
ATOM      2  O   UNL     1      17.635  10.591  28.910  0.00  0.00    -0.388 OA
ATOM      3  H   UNL     1      17.715  11.400  29.420  0.00  0.00    +0.210 HD
ENDBRANCH   1   2
BRANCH   1   4
ATOM      4  C   UNL     1      19.404   9.897  27.400  0.00  0.00    +0.141 C 
BRANCH   4   7
ATOM      5  C   UNL     1      19.052   7.840  26.077  0.00  0.00    +0.401 C 
ATOM      6  O   UNL     1      20.199   7.420  26.250  0.00  0.00    -0.226 OA
ATOM      7  N   UNL     1      18.597   8.991  26.573  0.00  0.00    -0.279 N 
ATOM      8  H   UNL     1      17.644   9.255  26.368  0.00  0.00    +0.152 HD
BRANCH   5   9
ATOM      9  O   UNL     1      18.139   7.064  25.297  0.00  0.00    -0.444 OA
BRANCH   9  10
ATOM     10  C   UNL     1      18.666   6.888  23.979  0.00  0.00    +0.292 C 
BRANCH  10  12
ATOM     11  N   UNL     1      17.033   5.577  22.673  0.00  0.00    -0.131 NA
ATOM     12  C   UNL     1      18.188   5.624  23.391  0.00  0.00    +0.121 A 
ATOM     13  C   UNL     1      18.723   4.358  23.468  0.00  0.00    +0.143 A 
ATOM     14  N   UNL     1      17.777   3.537  22.884  0.00  0.00    -0.219 N 
ATOM     15  N   UNL     1      16.807   4.310  22.349  0.00  0.00    -0.060 NA
BRANCH  14  16
ATOM     16  C   UNL     1      17.767   2.110  22.851  0.00  0.00    +0.070 A 
ATOM     17  C   UNL     1      17.299   1.307  23.927  0.00  0.00    -0.019 A 
ATOM     18  C   UNL     1      17.376  -0.096  23.773  0.00  0.00    +0.006 A 
ATOM     19  C   UNL     1      17.899  -0.690  22.624  0.00  0.00    +0.000 A 
ATOM     20  C   UNL     1      18.345   0.104  21.578  0.00  0.00    +0.002 A 
ATOM     21  C   UNL     1      18.282   1.491  21.689  0.00  0.00    +0.028 A 
BRANCH  17  22
ATOM     22  C   UNL     1      16.733   1.863  25.235  0.00  0.00    +0.015 C 
ATOM     23  C   UNL     1      17.783   2.238  26.292  0.00  0.00    +0.012 C 
ATOM     24  C   UNL     1      15.728   0.874  25.830  0.00  0.00    +0.012 C 
ENDBRANCH  17  22
ENDBRANCH  14  16
ENDBRANCH  10  12
ENDBRANCH   9  10
ENDBRANCH   5   9
ENDBRANCH   4   7
ENDBRANCH   1   4
BRANCH   1  25
ATOM     25  C   UNL     1      18.828   8.504  29.398  0.00  0.00    +0.175 C 
BRANCH  25  26
ATOM     26  C   UNL     1      18.262   8.469  30.825  0.00  0.00    +0.176 C 
ATOM     27  O   UNL     1      18.668   9.693  31.497  0.00  0.00    -0.332 OA
ATOM     28  C   UNL     1      18.126   9.885  32.846  0.00  0.00    +0.277 C 
ATOM     29  C   UNL     1      18.454   8.663  33.739  0.00  0.00    +0.110 C 
ATOM     30  C   UNL     1      18.069   7.336  33.053  0.00  0.00    +0.143 C 
ATOM     31  C   UNL     1      18.683   7.243  31.655  0.00  0.00    +0.133 C 
BRANCH  31  32
ATOM     32  N   UNL     1      18.238   6.015  30.978  0.00  0.00    -0.308 N 
ATOM     33  H   UNL     1      17.279   5.970  30.662  0.00  0.00    +0.149 HD
ATOM     34  C   UNL     1      19.019   4.954  30.753  0.00  0.00    +0.210 C 
ATOM     35  C   UNL     1      20.467   5.043  31.269  0.00  0.00    +0.109 C 
ATOM     36  O   UNL     1      18.623   3.944  30.170  0.00  0.00    -0.276 OA
ENDBRANCH  31  32
BRANCH  28  37
ATOM     37  C   UNL     1      16.598  10.093  32.797  0.00  0.00    +0.414 C 
ATOM     38  O   UNL     1      15.865   9.491  33.581  0.00  0.00    -0.240 OA
ATOM     39  O   UNL     1      16.099  10.862  31.975  0.00  0.00    -0.240 OA
ENDBRANCH  28  37
BRANCH  30  40
ATOM     40  O   UNL     1      18.524   6.236  33.841  0.00  0.00    -0.390 OA
ATOM     41  H   UNL     1      19.400   6.428  34.184  0.00  0.00    +0.210 HD
ENDBRANCH  30  40
BRANCH  28  42
ATOM     42  O   UNL     1      18.760  11.056  33.422  0.00  0.00    -0.343 OA
ATOM     43  C   UNL     1      19.524  11.860  32.488  0.00  0.00    +0.198 C 
ENDBRANCH  28  42
ENDBRANCH  25  26
BRANCH  25  44
ATOM     44  O   UNL     1      20.127   7.881  29.363  0.00  0.00    -0.387 OA
ATOM     45  H   UNL     1      20.026   6.938  29.215  0.00  0.00    +0.210 HD
ENDBRANCH  25  44
ENDBRANCH   1  25
TORSDOF 15
