REMARK VINA RESULT:    -6.859      9.879     18.102
REMARK INTER + INTRA:         -14.740
REMARK INTER:                 -12.340
REMARK INTRA:                  -2.400
REMARK UNBOUND:                -2.067
REMARK  Name = lig_assembled_79.pdb
REMARK  20 active torsions:
REMARK  status: ('A' for Active; 'I' for Inactive)
REMARK    1  A    between atoms: _2  and  _10
REMARK    2  A    between atoms: _5  and  _26
REMARK    3  A    between atoms: _7  and  _8
REMARK    4  A    between atoms: _7  and  _26
REMARK    5  A    between atoms: _10  and  _11
REMARK    6  A    between atoms: _10  and  _12
REMARK    7  A    between atoms: _10  and  _13
REMARK    8  A    between atoms: _13  and  _14
REMARK    9  A    between atoms: _22  and  _42
REMARK   10  A    between atoms: _24  and  _30
REMARK   11  A    between atoms: _25  and  _29
REMARK   12  A    between atoms: _29  and  _30
REMARK   13  A    between atoms: _32  and  _33
REMARK   14  A    between atoms: _34  and  _35
REMARK   15  A    between atoms: _36  and  _38
REMARK   16  A    between atoms: _38  and  _39
REMARK   17  A    between atoms: _38  and  _40
REMARK   18  A    between atoms: _40  and  _41
REMARK   19  A    between atoms: _40  and  _42
REMARK   20  A    between atoms: _43  and  _45
REMARK                            x       y       z     vdW  Elec       q    Type
REMARK                         _______ _______ _______ _____ _____    ______ ____
ROOT
ATOM      1  C   UNL     1       1.200   1.531  30.966  0.00  0.00    +0.401 C 
ATOM      2  O   UNL     1       1.625   0.527  31.544  0.00  0.00    -0.226 OA
ATOM      3  N   UNL     1       1.177   2.749  31.509  0.00  0.00    -0.279 N 
ATOM      4  H   UNL     1       0.818   3.512  30.952  0.00  0.00    +0.152 HD
ENDROOT
BRANCH   3   5
ATOM      5  C   UNL     1       1.644   3.044  32.869  0.00  0.00    +0.141 C 
BRANCH   5   6
ATOM      6  C   UNL     1       3.154   3.253  32.919  0.00  0.00    +0.163 C 
BRANCH   6   7
ATOM      7  O   UNL     1       3.494   4.525  32.343  0.00  0.00    -0.388 OA
ATOM      8  H   UNL     1       3.253   4.530  31.413  0.00  0.00    +0.210 HD
ENDBRANCH   6   7
BRANCH   6   9
ATOM      9  C   UNL     1       3.637   3.163  34.377  0.00  0.00    +0.175 C 
BRANCH   9  10
ATOM     10  C   UNL     1       5.166   3.263  34.486  0.00  0.00    +0.176 C 
ATOM     11  O   UNL     1       5.540   4.649  34.252  0.00  0.00    -0.332 OA
ATOM     12  C   UNL     1       6.964   4.958  34.422  0.00  0.00    +0.277 C 
ATOM     13  C   UNL     1       7.829   4.025  33.539  0.00  0.00    +0.110 C 
ATOM     14  C   UNL     1       7.445   2.542  33.730  0.00  0.00    +0.143 C 
ATOM     15  C   UNL     1       5.942   2.335  33.534  0.00  0.00    +0.133 C 
BRANCH  15  16
ATOM     16  N   UNL     1       5.576   0.936  33.804  0.00  0.00    -0.308 N 
ATOM     17  H   UNL     1       5.634   0.609  34.758  0.00  0.00    +0.149 HD
ATOM     18  C   UNL     1       5.171   0.070  32.871  0.00  0.00    +0.210 C 
ATOM     19  C   UNL     1       5.117   0.593  31.422  0.00  0.00    +0.109 C 
ATOM     20  O   UNL     1       4.856  -1.092  33.128  0.00  0.00    -0.276 OA
ENDBRANCH  15  16
BRANCH  12  21
ATOM     21  C   UNL     1       7.384   4.806  35.898  0.00  0.00    +0.414 C 
ATOM     22  O   UNL     1       8.574   4.718  36.198  0.00  0.00    -0.240 OA
ATOM     23  O   UNL     1       6.534   4.772  36.789  0.00  0.00    -0.240 OA
ENDBRANCH  12  21
BRANCH  14  24
ATOM     24  O   UNL     1       8.157   1.735  32.792  0.00  0.00    -0.390 OA
ATOM     25  H   UNL     1       7.539   1.345  32.170  0.00  0.00    +0.210 HD
ENDBRANCH  14  24
BRANCH  12  26
ATOM     26  O   UNL     1       7.180   6.326  33.990  0.00  0.00    -0.343 OA
ATOM     27  C   UNL     1       6.171   7.272  34.425  0.00  0.00    +0.198 C 
ENDBRANCH  12  26
ENDBRANCH   9  10
BRANCH   9  28
ATOM     28  O   UNL     1       3.176   1.936  34.978  0.00  0.00    -0.387 OA
ATOM     29  H   UNL     1       3.595   1.822  35.834  0.00  0.00    +0.210 HD
ENDBRANCH   9  28
ENDBRANCH   6   9
ENDBRANCH   5   6
ENDBRANCH   3   5
BRANCH   1  30
ATOM     30  O   UNL     1       0.700   1.405  29.632  0.00  0.00    -0.444 OA
BRANCH  30  31
ATOM     31  C   UNL     1       0.129   2.649  29.217  0.00  0.00    +0.292 C 
BRANCH  31  33
ATOM     32  N   UNL     1       1.855   3.724  27.821  0.00  0.00    -0.131 NA
ATOM     33  C   UNL     1       0.675   3.046  27.907  0.00  0.00    +0.120 A 
ATOM     34  C   UNL     1       0.172   2.852  26.639  0.00  0.00    +0.138 A 
ATOM     35  N   UNL     1       1.135   3.354  25.808  0.00  0.00    -0.238 N 
ATOM     36  N   UNL     1       2.108   3.949  26.542  0.00  0.00    -0.064 NA
BRANCH  35  37
ATOM     37  C   UNL     1       1.160   3.509  24.324  0.00  0.00    +0.122 C 
ATOM     38  C   UNL     1       1.924   4.823  24.033  0.00  0.00    +0.044 C 
ATOM     39  C   UNL     1      -0.322   3.517  23.900  0.00  0.00    +0.044 C 
BRANCH  37  40
ATOM     40  C   UNL     1       1.908   2.371  23.599  0.00  0.00    +0.192 C 
ATOM     41  O   UNL     1       2.888   1.835  24.125  0.00  0.00    -0.289 OA
BRANCH  40  42
ATOM     42  C   UNL     1       1.513   1.884  22.245  0.00  0.00    +0.045 A 
ATOM     43  C   UNL     1       0.963   0.615  22.100  0.00  0.00    +0.095 A 
ATOM     44  N   UNL     1       0.707   0.373  20.785  0.00  0.00    -0.360 N 
ATOM     45  H   UNL     1       0.315  -0.482  20.412  0.00  0.00    +0.165 HD
ATOM     46  C   UNL     1       1.070   1.457  20.029  0.00  0.00    +0.047 A 
ATOM     47  C   UNL     1       0.989   1.627  18.639  0.00  0.00    +0.026 A 
ATOM     48  C   UNL     1       1.431   2.832  18.095  0.00  0.00    +0.002 A 
ATOM     49  C   UNL     1       1.933   3.831  18.913  0.00  0.00    +0.001 A 
ATOM     50  C   UNL     1       2.005   3.642  20.299  0.00  0.00    +0.011 A 
ATOM     51  C   UNL     1       1.573   2.433  20.901  0.00  0.00    +0.010 A 
ENDBRANCH  40  42
ENDBRANCH  37  40
ENDBRANCH  35  37
ENDBRANCH  31  33
ENDBRANCH  30  31
ENDBRANCH   1  30
TORSDOF 16
