REMARK VINA RESULT:    -6.087     14.013     15.679
REMARK INTER + INTRA:         -14.439
REMARK INTER:                 -12.089
REMARK INTRA:                  -2.350
REMARK UNBOUND:                -3.014
REMARK  Name = lig_assembled_75.pdb
REMARK  19 active torsions:
REMARK  status: ('A' for Active; 'I' for Inactive)
REMARK    1  A    between atoms: _2  and  _9
REMARK    2  A    between atoms: _4  and  _23
REMARK    3  A    between atoms: _6  and  _7
REMARK    4  A    between atoms: _6  and  _23
REMARK    5  A    between atoms: _11  and  _12
REMARK    6  A    between atoms: _13  and  _14
REMARK    7  A    between atoms: _14  and  _17
REMARK    8  A    between atoms: _19  and  _39
REMARK    9  A    between atoms: _21  and  _27
REMARK   10  A    between atoms: _22  and  _26
REMARK   11  A    between atoms: _26  and  _27
REMARK   12  A    between atoms: _29  and  _30
REMARK   13  A    between atoms: _31  and  _32
REMARK   14  A    between atoms: _33  and  _35
REMARK   15  A    between atoms: _35  and  _36
REMARK   16  A    between atoms: _35  and  _37
REMARK   17  A    between atoms: _37  and  _38
REMARK   18  A    between atoms: _37  and  _39
REMARK   19  A    between atoms: _40  and  _42
REMARK                            x       y       z     vdW  Elec       q    Type
REMARK                         _______ _______ _______ _____ _____    ______ ____
ROOT
ATOM      1  C   UNL     1      18.740  10.542  27.614  0.00  0.00    +0.141 C 
ENDROOT
BRANCH   1   4
ATOM      2  C   UNL     1      19.924   8.782  26.347  0.00  0.00    +0.401 C 
ATOM      3  O   UNL     1      20.838   9.526  25.985  0.00  0.00    -0.226 OA
ATOM      4  N   UNL     1      18.899   9.174  27.105  0.00  0.00    -0.279 N 
ATOM      5  H   UNL     1      18.192   8.492  27.341  0.00  0.00    +0.152 HD
BRANCH   2   6
ATOM      6  O   UNL     1      19.940   7.412  25.937  0.00  0.00    -0.444 OA
BRANCH   6   7
ATOM      7  C   UNL     1      20.093   7.339  24.517  0.00  0.00    +0.292 C 
BRANCH   7   9
ATOM      8  N   UNL     1      18.175   6.528  23.183  0.00  0.00    -0.131 NA
ATOM      9  C   UNL     1      19.260   6.255  23.966  0.00  0.00    +0.121 A 
ATOM     10  C   UNL     1      19.381   4.892  24.108  0.00  0.00    +0.143 A 
ATOM     11  N   UNL     1      18.336   4.364  23.387  0.00  0.00    -0.220 N 
ATOM     12  N   UNL     1      17.618   5.376  22.837  0.00  0.00    -0.060 NA
BRANCH  11  13
ATOM     13  C   UNL     1      17.968   3.005  23.216  0.00  0.00    +0.068 A 
ATOM     14  C   UNL     1      17.448   2.289  24.309  0.00  0.00    +0.035 A 
ATOM     15  C   UNL     1      17.137   0.927  24.192  0.00  0.00    -0.023 A 
ATOM     16  C   UNL     1      17.292   0.306  22.947  0.00  0.00    +0.008 A 
ATOM     17  C   UNL     1      17.787   1.018  21.852  0.00  0.00    +0.003 A 
ATOM     18  C   UNL     1      18.133   2.362  21.985  0.00  0.00    +0.028 A 
BRANCH  15  19
ATOM     19  C   UNL     1      16.634   0.132  25.323  0.00  0.00    +0.015 C 
ATOM     20  C   UNL     1      17.252  -0.960  25.801  0.00  0.00    +0.092 C 
BRANCH  20  21
ATOM     21  C   UNL     1      16.641  -1.722  26.906  0.00  0.00    +0.330 C 
ATOM     22  O   UNL     1      17.151  -2.683  27.453  0.00  0.00    -0.246 OA
BRANCH  21  23
ATOM     23  O   UNL     1      15.440  -1.221  27.259  0.00  0.00    -0.478 OA
ATOM     24  H   UNL     1      15.412  -0.752  28.112  0.00  0.00    +0.295 HD
ENDBRANCH  21  23
ENDBRANCH  20  21
ENDBRANCH  15  19
ENDBRANCH  11  13
ENDBRANCH   7   9
ENDBRANCH   6   7
ENDBRANCH   2   6
ENDBRANCH   1   4
BRANCH   1  25
ATOM     25  C   UNL     1      18.614  10.571  29.134  0.00  0.00    +0.163 C 
BRANCH  25  26
ATOM     26  O   UNL     1      17.317  11.063  29.510  0.00  0.00    -0.388 OA
ATOM     27  H   UNL     1      17.371  12.005  29.688  0.00  0.00    +0.210 HD
ENDBRANCH  25  26
BRANCH  25  28
ATOM     28  C   UNL     1      18.851   9.159  29.697  0.00  0.00    +0.175 C 
BRANCH  28  29
ATOM     29  C   UNL     1      18.105   8.931  31.020  0.00  0.00    +0.176 C 
ATOM     30  O   UNL     1      18.339  10.088  31.870  0.00  0.00    -0.332 OA
ATOM     31  C   UNL     1      17.614  10.096  33.144  0.00  0.00    +0.277 C 
ATOM     32  C   UNL     1      17.900   8.797  33.937  0.00  0.00    +0.110 C 
ATOM     33  C   UNL     1      17.696   7.540  33.065  0.00  0.00    +0.143 C 
ATOM     34  C   UNL     1      18.493   7.640  31.764  0.00  0.00    +0.133 C 
BRANCH  34  35
ATOM     35  N   UNL     1      18.222   6.477  30.904  0.00  0.00    -0.308 N 
ATOM     36  H   UNL     1      17.295   6.386  30.512  0.00  0.00    +0.149 HD
ATOM     37  C   UNL     1      19.121   5.535  30.607  0.00  0.00    +0.210 C 
ATOM     38  C   UNL     1      20.516   5.689  31.241  0.00  0.00    +0.109 C 
ATOM     39  O   UNL     1      18.870   4.579  29.871  0.00  0.00    -0.276 OA
ENDBRANCH  34  35
BRANCH  31  40
ATOM     40  C   UNL     1      16.095  10.231  32.908  0.00  0.00    +0.414 C 
ATOM     41  O   UNL     1      15.661  11.095  32.147  0.00  0.00    -0.240 OA
ATOM     42  O   UNL     1      15.305   9.478  33.477  0.00  0.00    -0.240 OA
ENDBRANCH  31  40
BRANCH  31  43
ATOM     43  O   UNL     1      18.089  11.223  33.924  0.00  0.00    -0.343 OA
ATOM     44  C   UNL     1      18.052  11.032  35.361  0.00  0.00    +0.198 C 
ENDBRANCH  31  43
BRANCH  33  45
ATOM     45  O   UNL     1      18.115   6.381  33.786  0.00  0.00    -0.390 OA
ATOM     46  H   UNL     1      18.334   5.680  33.167  0.00  0.00    +0.210 HD
ENDBRANCH  33  45
ENDBRANCH  28  29
BRANCH  28  47
ATOM     47  O   UNL     1      20.262   8.926  29.875  0.00  0.00    -0.387 OA
ATOM     48  H   UNL     1      20.393   8.245  30.540  0.00  0.00    +0.210 HD
ENDBRANCH  28  47
ENDBRANCH  25  28
ENDBRANCH   1  25
TORSDOF 17
