REMARK VINA RESULT:    -7.099      6.871     11.717
REMARK INTER + INTRA:         -14.114
REMARK INTER:                 -11.849
REMARK INTRA:                  -2.265
REMARK UNBOUND:                -1.828
REMARK  Name = lig_assembled_70.pdb
REMARK  16 active torsions:
REMARK  status: ('A' for Active; 'I' for Inactive)
REMARK    1  A    between atoms: _2  and  _10
REMARK    2  A    between atoms: _5  and  _22
REMARK    3  A    between atoms: _7  and  _8
REMARK    4  A    between atoms: _7  and  _22
REMARK    5  A    between atoms: _18  and  _38
REMARK    6  A    between atoms: _20  and  _26
REMARK    7  A    between atoms: _21  and  _25
REMARK    8  A    between atoms: _25  and  _26
REMARK    9  A    between atoms: _28  and  _29
REMARK   10  A    between atoms: _30  and  _31
REMARK   11  A    between atoms: _32  and  _34
REMARK   12  A    between atoms: _34  and  _35
REMARK   13  A    between atoms: _34  and  _36
REMARK   14  A    between atoms: _36  and  _37
REMARK   15  A    between atoms: _36  and  _38
REMARK   16  A    between atoms: _39  and  _41
REMARK                            x       y       z     vdW  Elec       q    Type
REMARK                         _______ _______ _______ _____ _____    ______ ____
ROOT
ATOM      1  C   UNL     1       0.012   0.845  22.736  0.00  0.00    +0.163 C 
ENDROOT
BRANCH   1   2
ATOM      2  O   UNL     1      -1.073   0.210  23.433  0.00  0.00    -0.388 OA
ATOM      3  H   UNL     1      -1.907   0.575  23.128  0.00  0.00    +0.210 HD
ENDBRANCH   1   2
BRANCH   1   4
ATOM      4  C   UNL     1       0.323   0.085  21.451  0.00  0.00    +0.141 C 
BRANCH   4   7
ATOM      5  C   UNL     1      -0.167   1.365  19.395  0.00  0.00    +0.401 C 
ATOM      6  O   UNL     1      -1.337   0.984  19.324  0.00  0.00    -0.226 OA
ATOM      7  N   UNL     1       0.682   0.990  20.353  0.00  0.00    -0.279 N 
ATOM      8  H   UNL     1       1.626   1.349  20.320  0.00  0.00    +0.152 HD
BRANCH   5   9
ATOM      9  O   UNL     1       0.334   2.261  18.399  0.00  0.00    -0.444 OA
BRANCH   9  10
ATOM     10  C   UNL     1       0.420   1.580  17.145  0.00  0.00    +0.292 C 
BRANCH  10  12
ATOM     11  N   UNL     1       2.853   1.737  17.598  0.00  0.00    -0.131 NA
ATOM     12  C   UNL     1       1.830   1.351  16.778  0.00  0.00    +0.121 A 
ATOM     13  C   UNL     1       2.357   0.762  15.653  0.00  0.00    +0.143 A 
ATOM     14  N   UNL     1       3.720   0.797  15.836  0.00  0.00    -0.218 N 
ATOM     15  N   UNL     1       3.998   1.403  17.014  0.00  0.00    -0.060 NA
BRANCH  14  16
ATOM     16  C   UNL     1       4.730   0.286  14.995  0.00  0.00    +0.086 A 
ATOM     17  C   UNL     1       4.427  -0.653  14.023  0.00  0.00    +0.139 A 
ATOM     18  N   UNL     1       5.340  -1.152  13.150  0.00  0.00    -0.253 NA
ATOM     19  C   UNL     1       6.607  -0.707  13.228  0.00  0.00    +0.071 A 
ATOM     20  C   UNL     1       7.011   0.236  14.197  0.00  0.00    +0.002 A 
ATOM     21  C   UNL     1       8.345   0.679  14.248  0.00  0.00    +0.010 A 
ATOM     22  C   UNL     1       9.278   0.208  13.328  0.00  0.00    +0.001 A 
ATOM     23  C   UNL     1       8.883  -0.714  12.366  0.00  0.00    +0.002 A 
ATOM     24  C   UNL     1       7.560  -1.166  12.329  0.00  0.00    +0.028 A 
ATOM     25  C   UNL     1       6.052   0.723  15.092  0.00  0.00    +0.039 A 
ENDBRANCH  14  16
ENDBRANCH  10  12
ENDBRANCH   9  10
ENDBRANCH   5   9
ENDBRANCH   4   7
ENDBRANCH   1   4
BRANCH   1  26
ATOM     26  C   UNL     1       1.272   0.903  23.616  0.00  0.00    +0.175 C 
BRANCH  26  27
ATOM     27  C   UNL     1       1.237   2.084  24.598  0.00  0.00    +0.176 C 
ATOM     28  O   UNL     1       0.341   1.733  25.688  0.00  0.00    -0.332 OA
ATOM     29  C   UNL     1       0.263   2.705  26.782  0.00  0.00    +0.277 C 
ATOM     30  C   UNL     1      -0.101   4.107  26.236  0.00  0.00    +0.110 C 
ATOM     31  C   UNL     1       0.805   4.511  25.054  0.00  0.00    +0.143 C 
ATOM     32  C   UNL     1       0.814   3.427  23.975  0.00  0.00    +0.133 C 
BRANCH  32  33
ATOM     33  N   UNL     1       1.748   3.784  22.895  0.00  0.00    -0.308 N 
ATOM     34  H   UNL     1       2.738   3.705  23.082  0.00  0.00    +0.149 HD
ATOM     35  C   UNL     1       1.373   4.205  21.684  0.00  0.00    +0.210 C 
ATOM     36  C   UNL     1      -0.142   4.340  21.439  0.00  0.00    +0.109 C 
ATOM     37  O   UNL     1       2.177   4.483  20.794  0.00  0.00    -0.276 OA
ENDBRANCH  32  33
BRANCH  29  38
ATOM     38  C   UNL     1       1.603   2.781  27.543  0.00  0.00    +0.414 C 
ATOM     39  O   UNL     1       2.121   1.758  27.991  0.00  0.00    -0.240 OA
ATOM     40  O   UNL     1       2.166   3.864  27.709  0.00  0.00    -0.240 OA
ENDBRANCH  29  38
BRANCH  31  41
ATOM     41  O   UNL     1       0.339   5.736  24.486  0.00  0.00    -0.390 OA
ATOM     42  H   UNL     1       0.252   6.397  25.177  0.00  0.00    +0.210 HD
ENDBRANCH  31  41
BRANCH  29  43
ATOM     43  O   UNL     1      -0.788   2.279  27.687  0.00  0.00    -0.343 OA
ATOM     44  C   UNL     1      -1.680   1.267  27.155  0.00  0.00    +0.198 C 
ENDBRANCH  29  43
ENDBRANCH  26  27
BRANCH  26  45
ATOM     45  O   UNL     1       2.452   0.978  22.791  0.00  0.00    -0.387 OA
ATOM     46  H   UNL     1       2.269   0.582  21.935  0.00  0.00    +0.210 HD
ENDBRANCH  26  45
ENDBRANCH   1  26
TORSDOF 14
