REMARK VINA RESULT:    -5.461     21.975     25.932
REMARK INTER + INTRA:         -13.539
REMARK INTER:                 -10.792
REMARK INTRA:                  -2.747
REMARK UNBOUND:                -2.172
REMARK  Name = lig_assembled_54.pdb
REMARK  24 active torsions:
REMARK  status: ('A' for Active; 'I' for Inactive)
REMARK    1  A    between atoms: _2  and  _9
REMARK    2  A    between atoms: _4  and  _21
REMARK    3  A    between atoms: _5  and  _14
REMARK    4  A    between atoms: _6  and  _7
REMARK    5  A    between atoms: _6  and  _21
REMARK    6  A    between atoms: _9  and  _10
REMARK    7  A    between atoms: _10  and  _11
REMARK    8  A    between atoms: _11  and  _15
REMARK    9  A    between atoms: _11  and  _16
REMARK   10  A    between atoms: _12  and  _13
REMARK   11  A    between atoms: _12  and  _16
REMARK   12  A    between atoms: _14  and  _15
REMARK   13  A    between atoms: _17  and  _37
REMARK   14  A    between atoms: _19  and  _25
REMARK   15  A    between atoms: _20  and  _24
REMARK   16  A    between atoms: _24  and  _25
REMARK   17  A    between atoms: _27  and  _28
REMARK   18  A    between atoms: _29  and  _30
REMARK   19  A    between atoms: _31  and  _33
REMARK   20  A    between atoms: _33  and  _34
REMARK   21  A    between atoms: _33  and  _35
REMARK   22  A    between atoms: _35  and  _36
REMARK   23  A    between atoms: _35  and  _37
REMARK   24  A    between atoms: _38  and  _40
REMARK                            x       y       z     vdW  Elec       q    Type
REMARK                         _______ _______ _______ _____ _____    ______ ____
ROOT
ATOM      1  C   UNL     1      15.566  23.677  19.034  0.00  0.00    +0.163 C 
ENDROOT
BRANCH   1   2
ATOM      2  O   UNL     1      16.207  24.405  17.973  0.00  0.00    -0.388 OA
ATOM      3  H   UNL     1      15.598  25.059  17.620  0.00  0.00    +0.210 HD
ENDBRANCH   1   2
BRANCH   1   4
ATOM      4  C   UNL     1      14.593  22.627  18.470  0.00  0.00    +0.175 C 
BRANCH   4   5
ATOM      5  C   UNL     1      13.625  23.230  17.441  0.00  0.00    +0.176 C 
ATOM      6  O   UNL     1      14.369  23.473  16.216  0.00  0.00    -0.332 OA
ATOM      7  C   UNL     1      13.579  23.953  15.078  0.00  0.00    +0.277 C 
ATOM      8  C   UNL     1      12.784  25.223  15.469  0.00  0.00    +0.110 C 
ATOM      9  C   UNL     1      12.001  25.023  16.784  0.00  0.00    +0.143 C 
ATOM     10  C   UNL     1      12.919  24.520  17.898  0.00  0.00    +0.133 C 
BRANCH  10  11
ATOM     11  N   UNL     1      12.146  24.251  19.121  0.00  0.00    -0.308 N 
ATOM     12  H   UNL     1      11.493  23.480  19.105  0.00  0.00    +0.149 HD
ATOM     13  C   UNL     1      12.250  24.958  20.249  0.00  0.00    +0.210 C 
ATOM     14  C   UNL     1      13.235  26.143  20.231  0.00  0.00    +0.109 C 
ATOM     15  O   UNL     1      11.600  24.700  21.262  0.00  0.00    -0.276 OA
ENDBRANCH  10  11
BRANCH   7  16
ATOM     16  C   UNL     1      12.601  22.863  14.593  0.00  0.00    +0.414 C 
ATOM     17  O   UNL     1      11.474  23.168  14.206  0.00  0.00    -0.240 OA
ATOM     18  O   UNL     1      12.939  21.678  14.588  0.00  0.00    -0.240 OA
ENDBRANCH   7  16
BRANCH   9  19
ATOM     19  O   UNL     1      11.409  26.260  17.184  0.00  0.00    -0.390 OA
ATOM     20  H   UNL     1      11.151  26.759  16.406  0.00  0.00    +0.210 HD
ENDBRANCH   9  19
BRANCH   7  21
ATOM     21  O   UNL     1      14.496  24.298  14.008  0.00  0.00    -0.343 OA
ATOM     22  C   UNL     1      15.851  23.813  14.183  0.00  0.00    +0.198 C 
ENDBRANCH   7  21
ENDBRANCH   4   5
BRANCH   4  23
ATOM     23  O   UNL     1      13.855  22.008  19.542  0.00  0.00    -0.387 OA
ATOM     24  H   UNL     1      13.615  21.113  19.291  0.00  0.00    +0.210 HD
ENDBRANCH   4  23
ENDBRANCH   1   4
BRANCH   1  25
ATOM     25  C   UNL     1      16.614  22.988  19.900  0.00  0.00    +0.141 C 
BRANCH  25  28
ATOM     26  C   UNL     1      16.233  21.420  21.773  0.00  0.00    +0.401 C 
ATOM     27  O   UNL     1      16.827  20.484  21.233  0.00  0.00    -0.226 OA
ATOM     28  N   UNL     1      16.080  22.624  21.219  0.00  0.00    -0.279 N 
ATOM     29  H   UNL     1      15.569  23.325  21.736  0.00  0.00    +0.152 HD
BRANCH  26  30
ATOM     30  O   UNL     1      15.662  21.226  23.069  0.00  0.00    -0.444 OA
BRANCH  30  31
ATOM     31  C   UNL     1      16.089  22.275  23.942  0.00  0.00    +0.292 C 
BRANCH  31  33
ATOM     32  N   UNL     1      14.321  24.007  23.865  0.00  0.00    -0.131 NA
ATOM     33  C   UNL     1      14.916  22.961  24.518  0.00  0.00    +0.120 A 
ATOM     34  C   UNL     1      14.234  22.713  25.690  0.00  0.00    +0.137 A 
ATOM     35  N   UNL     1      13.213  23.615  25.672  0.00  0.00    -0.251 N 
ATOM     36  N   UNL     1      13.271  24.395  24.578  0.00  0.00    -0.065 NA
BRANCH  35  37
ATOM     37  C   UNL     1      12.121  23.756  26.614  0.00  0.00    +0.150 C 
BRANCH  37  38
ATOM     38  C   UNL     1      10.880  23.005  26.156  0.00  0.00    +0.084 C 
BRANCH  38  39
ATOM     39  C   UNL     1       9.600  23.846  26.222  0.00  0.00    +0.252 C 
BRANCH  39  40
ATOM     40  O   UNL     1       8.984  23.706  27.505  0.00  0.00    -0.352 OA
BRANCH  40  41
ATOM     41  C   UNL     1       8.559  24.938  28.085  0.00  0.00    +0.159 C 
ATOM     42  C   UNL     1       9.417  26.059  27.533  0.00  0.00    +0.034 C 
ENDBRANCH  40  41
ENDBRANCH  39  40
BRANCH  39  43
ATOM     43  O   UNL     1       8.714  23.366  25.203  0.00  0.00    -0.352 OA
BRANCH  43  44
ATOM     44  C   UNL     1       8.118  24.427  24.453  0.00  0.00    +0.159 C 
ATOM     45  C   UNL     1       9.213  25.290  23.858  0.00  0.00    +0.034 C 
ENDBRANCH  43  44
ENDBRANCH  39  43
ENDBRANCH  38  39
ENDBRANCH  37  38
ENDBRANCH  35  37
ENDBRANCH  31  33
ENDBRANCH  30  31
ENDBRANCH  26  30
ENDBRANCH  25  28
ENDBRANCH   1  25
TORSDOF 20
