REMARK VINA RESULT:    -6.295      4.841      7.020
REMARK INTER + INTRA:         -13.859
REMARK INTER:                 -11.268
REMARK INTRA:                  -2.592
REMARK UNBOUND:                -2.597
REMARK  Name = lig_assembled_89.pdb
REMARK  19 active torsions:
REMARK  status: ('A' for Active; 'I' for Inactive)
REMARK    1  A    between atoms: _2  and  _12
REMARK    2  A    between atoms: _5  and  _20
REMARK    3  A    between atoms: _7  and  _29
REMARK    4  A    between atoms: _9  and  _10
REMARK    5  A    between atoms: _9  and  _29
REMARK    6  A    between atoms: _20  and  _21
REMARK    7  A    between atoms: _20  and  _22
REMARK    8  A    between atoms: _25  and  _45
REMARK    9  A    between atoms: _27  and  _33
REMARK   10  A    between atoms: _28  and  _32
REMARK   11  A    between atoms: _32  and  _33
REMARK   12  A    between atoms: _35  and  _36
REMARK   13  A    between atoms: _37  and  _38
REMARK   14  A    between atoms: _39  and  _41
REMARK   15  A    between atoms: _41  and  _42
REMARK   16  A    between atoms: _41  and  _43
REMARK   17  A    between atoms: _43  and  _44
REMARK   18  A    between atoms: _43  and  _45
REMARK   19  A    between atoms: _46  and  _48
REMARK                            x       y       z     vdW  Elec       q    Type
REMARK                         _______ _______ _______ _____ _____    ______ ____
ROOT
ATOM      1  C   UNL     1       0.062   0.251  29.277  0.00  0.00    +0.401 C 
ATOM      2  O   UNL     1      -1.072  -0.227  29.197  0.00  0.00    -0.226 OA
ATOM      3  N   UNL     1       1.125  -0.243  28.641  0.00  0.00    -0.279 N 
ATOM      4  H   UNL     1       2.012   0.225  28.761  0.00  0.00    +0.152 HD
ENDROOT
BRANCH   3   5
ATOM      5  C   UNL     1       1.079  -1.428  27.775  0.00  0.00    +0.141 C 
BRANCH   5   6
ATOM      6  C   UNL     1       2.231  -2.385  28.060  0.00  0.00    +0.163 C 
BRANCH   6   7
ATOM      7  O   UNL     1       1.796  -3.744  27.885  0.00  0.00    -0.388 OA
ATOM      8  H   UNL     1       1.677  -3.924  26.949  0.00  0.00    +0.210 HD
ENDBRANCH   6   7
BRANCH   6   9
ATOM      9  C   UNL     1       3.411  -2.061  27.128  0.00  0.00    +0.175 C 
BRANCH   9  10
ATOM     10  C   UNL     1       4.755  -2.511  27.718  0.00  0.00    +0.176 C 
ATOM     11  O   UNL     1       5.036  -1.677  28.876  0.00  0.00    -0.332 OA
ATOM     12  C   UNL     1       6.238  -2.033  29.637  0.00  0.00    +0.277 C 
ATOM     13  C   UNL     1       7.475  -2.073  28.707  0.00  0.00    +0.110 C 
ATOM     14  C   UNL     1       7.213  -2.922  27.446  0.00  0.00    +0.143 C 
ATOM     15  C   UNL     1       5.939  -2.468  26.734  0.00  0.00    +0.133 C 
BRANCH  15  16
ATOM     16  N   UNL     1       5.653  -3.340  25.584  0.00  0.00    -0.308 N 
ATOM     17  H   UNL     1       5.493  -4.321  25.764  0.00  0.00    +0.149 HD
ATOM     18  C   UNL     1       5.590  -2.919  24.317  0.00  0.00    +0.210 C 
ATOM     19  C   UNL     1       5.863  -1.423  24.073  0.00  0.00    +0.109 C 
ATOM     20  O   UNL     1       5.334  -3.670  23.375  0.00  0.00    -0.276 OA
ENDBRANCH  15  16
BRANCH  12  21
ATOM     21  C   UNL     1       6.064  -3.404  30.323  0.00  0.00    +0.414 C 
ATOM     22  O   UNL     1       7.050  -4.054  30.669  0.00  0.00    -0.240 OA
ATOM     23  O   UNL     1       4.939  -3.861  30.530  0.00  0.00    -0.240 OA
ENDBRANCH  12  21
BRANCH  14  24
ATOM     24  O   UNL     1       8.319  -2.808  26.550  0.00  0.00    -0.390 OA
ATOM     25  H   UNL     1       8.988  -3.456  26.782  0.00  0.00    +0.210 HD
ENDBRANCH  14  24
BRANCH  12  26
ATOM     26  O   UNL     1       6.453  -1.009  30.642  0.00  0.00    -0.343 OA
ATOM     27  C   UNL     1       5.244  -0.464  31.229  0.00  0.00    +0.198 C 
ENDBRANCH  12  26
ENDBRANCH   9  10
BRANCH   9  28
ATOM     28  O   UNL     1       3.443  -0.648  26.840  0.00  0.00    -0.387 OA
ATOM     29  H   UNL     1       4.340  -0.322  26.939  0.00  0.00    +0.210 HD
ENDBRANCH   9  28
ENDBRANCH   6   9
ENDBRANCH   5   6
ENDBRANCH   3   5
BRANCH   1  30
ATOM     30  O   UNL     1       0.272   1.407  30.091  0.00  0.00    -0.444 OA
BRANCH  30  31
ATOM     31  C   UNL     1      -0.370   2.536  29.494  0.00  0.00    +0.292 C 
BRANCH  31  33
ATOM     32  N   UNL     1       1.728   3.488  28.617  0.00  0.00    -0.131 NA
ATOM     33  C   UNL     1       0.452   3.065  28.392  0.00  0.00    +0.121 A 
ATOM     34  C   UNL     1       0.161   3.210  27.057  0.00  0.00    +0.145 A 
ATOM     35  N   UNL     1       1.317   3.709  26.486  0.00  0.00    -0.199 N 
ATOM     36  N   UNL     1       2.246   3.867  27.457  0.00  0.00    -0.059 NA
BRANCH  35  37
ATOM     37  C   UNL     1       1.531   3.925  25.093  0.00  0.00    +0.186 A 
ATOM     38  C   UNL     1       1.618   3.012  24.062  0.00  0.00    +0.158 A 
ATOM     39  C   UNL     1       1.656   1.582  24.019  0.00  0.00    +0.280 A 
ATOM     40  O   UNL     1       1.960   0.905  24.992  0.00  0.00    -0.265 OA
ATOM     41  N   UNL     1       1.350   1.010  22.768  0.00  0.00    -0.302 N 
ATOM     42  C   UNL     1       1.462   1.799  21.562  0.00  0.00    +0.069 A 
ATOM     43  C   UNL     1       1.444   1.231  20.280  0.00  0.00    +0.028 A 
ATOM     44  C   UNL     1       1.606   2.021  19.133  0.00  0.00    +0.002 A 
ATOM     45  C   UNL     1       1.780   3.396  19.240  0.00  0.00    +0.002 A 
ATOM     46  C   UNL     1       1.789   3.995  20.496  0.00  0.00    +0.028 A 
ATOM     47  C   UNL     1       1.640   3.198  21.641  0.00  0.00    +0.072 A 
ATOM     48  N   UNL     1       1.654   3.770  22.923  0.00  0.00    -0.291 N 
ATOM     49  C   UNL     1       1.702   5.086  23.308  0.00  0.00    +0.207 A 
ATOM     50  N   UNL     1       1.618   5.219  24.615  0.00  0.00    -0.216 NA
BRANCH  41  51
ATOM     51  C   UNL     1       1.120  -0.452  22.712  0.00  0.00    +0.085 C 
ATOM     52  C   UNL     1      -0.262  -0.883  23.243  0.00  0.00    +0.030 C 
ATOM     53  C   UNL     1       2.230  -1.230  23.418  0.00  0.00    +0.030 C 
ENDBRANCH  41  51
ENDBRANCH  35  37
ENDBRANCH  31  33
ENDBRANCH  30  31
ENDBRANCH   1  30
TORSDOF 15
