REMARK VINA RESULT:    -7.227      0.000      0.000
REMARK INTER + INTRA:         -14.297
REMARK INTER:                 -12.345
REMARK INTRA:                  -1.952
REMARK UNBOUND:                -1.788
REMARK  Name = lig_assembled_20.pdb
REMARK  16 active torsions:
REMARK  status: ('A' for Active; 'I' for Inactive)
REMARK    1  A    between atoms: _2  and  _11
REMARK    2  A    between atoms: _6  and  _21
REMARK    3  A    between atoms: _8  and  _9
REMARK    4  A    between atoms: _8  and  _21
REMARK    5  A    between atoms: _17  and  _37
REMARK    6  A    between atoms: _19  and  _25
REMARK    7  A    between atoms: _20  and  _24
REMARK    8  A    between atoms: _24  and  _25
REMARK    9  A    between atoms: _27  and  _28
REMARK   10  A    between atoms: _29  and  _30
REMARK   11  A    between atoms: _31  and  _33
REMARK   12  A    between atoms: _33  and  _34
REMARK   13  A    between atoms: _33  and  _35
REMARK   14  A    between atoms: _35  and  _36
REMARK   15  A    between atoms: _35  and  _37
REMARK   16  A    between atoms: _38  and  _40
REMARK                            x       y       z     vdW  Elec       q    Type
REMARK                         _______ _______ _______ _____ _____    ______ ____
ROOT
ATOM      1  C   UNL     1       4.962   3.216  32.124  0.00  0.00    +0.163 C 
ENDROOT
BRANCH   1   2
ATOM      2  O   UNL     1       4.200   4.167  32.885  0.00  0.00    -0.388 OA
ATOM      3  H   UNL     1       3.262   4.015  32.742  0.00  0.00    +0.210 HD
ENDBRANCH   1   2
BRANCH   1   4
ATOM      4  C   UNL     1       4.166   1.925  31.956  0.00  0.00    +0.141 C 
BRANCH   4   7
ATOM      5  C   UNL     1       1.958   2.457  30.985  0.00  0.00    +0.401 C 
ATOM      6  O   UNL     1       1.471   2.828  32.055  0.00  0.00    -0.226 OA
ATOM      7  N   UNL     1       3.208   2.014  30.847  0.00  0.00    -0.279 N 
ATOM      8  H   UNL     1       3.513   1.723  29.929  0.00  0.00    +0.152 HD
BRANCH   5   9
ATOM      9  O   UNL     1       1.149   2.492  29.806  0.00  0.00    -0.444 OA
BRANCH   9  10
ATOM     10  C   UNL     1       1.873   1.921  28.713  0.00  0.00    +0.292 C 
BRANCH  10  12
ATOM     11  N   UNL     1       1.072   3.937  27.512  0.00  0.00    -0.131 NA
ATOM     12  C   UNL     1       1.657   2.704  27.482  0.00  0.00    +0.121 A 
ATOM     13  C   UNL     1       1.967   2.387  26.181  0.00  0.00    +0.143 A 
ATOM     14  N   UNL     1       1.551   3.467  25.438  0.00  0.00    -0.220 N 
ATOM     15  N   UNL     1       1.011   4.395  26.267  0.00  0.00    -0.060 NA
BRANCH  14  16
ATOM     16  C   UNL     1       1.637   3.659  24.035  0.00  0.00    +0.068 A 
ATOM     17  C   UNL     1       1.612   4.959  23.504  0.00  0.00    +0.030 A 
ATOM     18  C   UNL     1       1.700   5.183  22.123  0.00  0.00    +0.030 A 
ATOM     19  C   UNL     1       1.814   4.059  21.299  0.00  0.00    +0.066 A 
ATOM     20  C   UNL     1       1.840   2.761  21.793  0.00  0.00    +0.021 A 
ATOM     21  C   UNL     1       1.961   1.945  20.647  0.00  0.00    +0.142 A 
ATOM     22  N   UNL     1       2.011   2.652  19.515  0.00  0.00    -0.181 NA
ATOM     23  N   UNL     1       1.922   3.925  19.939  0.00  0.00    -0.277 N 
ATOM     24  H   UNL     1       1.938   4.665  19.246  0.00  0.00    +0.189 HD
ATOM     25  C   UNL     1       1.751   2.546  23.179  0.00  0.00    +0.039 A 
ENDBRANCH  14  16
ENDBRANCH  10  12
ENDBRANCH   9  10
ENDBRANCH   5   9
ENDBRANCH   4   7
ENDBRANCH   1   4
BRANCH   1  26
ATOM     26  C   UNL     1       6.302   2.907  32.814  0.00  0.00    +0.175 C 
BRANCH  26  27
ATOM     27  C   UNL     1       6.406   3.567  34.196  0.00  0.00    +0.176 C 
ATOM     28  O   UNL     1       6.907   4.920  34.010  0.00  0.00    -0.332 OA
ATOM     29  C   UNL     1       6.972   5.744  35.220  0.00  0.00    +0.277 C 
ATOM     30  C   UNL     1       7.796   5.028  36.318  0.00  0.00    +0.110 C 
ATOM     31  C   UNL     1       7.321   3.575  36.531  0.00  0.00    +0.143 C 
ATOM     32  C   UNL     1       7.288   2.810  35.207  0.00  0.00    +0.133 C 
BRANCH  32  33
ATOM     33  N   UNL     1       6.751   1.455  35.409  0.00  0.00    -0.308 N 
ATOM     34  H   UNL     1       5.807   1.369  35.758  0.00  0.00    +0.149 HD
ATOM     35  C   UNL     1       7.430   0.332  35.161  0.00  0.00    +0.210 C 
ATOM     36  C   UNL     1       8.876   0.498  34.655  0.00  0.00    +0.109 C 
ATOM     37  O   UNL     1       6.950  -0.790  35.325  0.00  0.00    -0.276 OA
ENDBRANCH  32  33
BRANCH  29  38
ATOM     38  C   UNL     1       5.556   6.047  35.753  0.00  0.00    +0.414 C 
ATOM     39  O   UNL     1       4.615   6.181  34.971  0.00  0.00    -0.240 OA
ATOM     40  O   UNL     1       5.355   6.158  36.963  0.00  0.00    -0.240 OA
ENDBRANCH  29  38
BRANCH  31  41
ATOM     41  O   UNL     1       8.200   2.909  37.438  0.00  0.00    -0.390 OA
ATOM     42  H   UNL     1       9.096   3.227  37.308  0.00  0.00    +0.210 HD
ENDBRANCH  31  41
BRANCH  29  43
ATOM     43  O   UNL     1       7.643   6.986  34.882  0.00  0.00    -0.343 OA
ATOM     44  C   UNL     1       8.218   7.697  36.006  0.00  0.00    +0.198 C 
ENDBRANCH  29  43
ENDBRANCH  26  27
BRANCH  26  45
ATOM     45  O   UNL     1       7.399   3.328  31.978  0.00  0.00    -0.387 OA
ATOM     46  H   UNL     1       8.221   2.973  32.325  0.00  0.00    +0.210 HD
ENDBRANCH  26  45
ENDBRANCH   1  26
TORSDOF 14
