REMARK VINA RESULT:    -5.849      6.184      8.548
REMARK INTER + INTRA:         -13.903
REMARK INTER:                 -11.064
REMARK INTRA:                  -2.839
REMARK UNBOUND:                -2.754
REMARK  Name = lig_assembled_12.pdb
REMARK  19 active torsions:
REMARK  status: ('A' for Active; 'I' for Inactive)
REMARK    1  A    between atoms: _2  and  _9
REMARK    2  A    between atoms: _4  and  _21
REMARK    3  A    between atoms: _6  and  _7
REMARK    4  A    between atoms: _6  and  _21
REMARK    5  A    between atoms: _9  and  _16
REMARK    6  A    between atoms: _10  and  _11
REMARK    7  A    between atoms: _10  and  _16
REMARK    8  A    between atoms: _17  and  _37
REMARK    9  A    between atoms: _19  and  _25
REMARK   10  A    between atoms: _20  and  _24
REMARK   11  A    between atoms: _24  and  _25
REMARK   12  A    between atoms: _27  and  _28
REMARK   13  A    between atoms: _29  and  _30
REMARK   14  A    between atoms: _31  and  _33
REMARK   15  A    between atoms: _33  and  _34
REMARK   16  A    between atoms: _33  and  _35
REMARK   17  A    between atoms: _35  and  _36
REMARK   18  A    between atoms: _35  and  _37
REMARK   19  A    between atoms: _38  and  _40
REMARK                            x       y       z     vdW  Elec       q    Type
REMARK                         _______ _______ _______ _____ _____    ______ ____
ROOT
ATOM      1  C   UNL     1       8.759   2.741  33.958  0.00  0.00    +0.163 C 
ENDROOT
BRANCH   1   2
ATOM      2  O   UNL     1       8.255   1.830  32.968  0.00  0.00    -0.388 OA
ATOM      3  H   UNL     1       7.421   1.460  33.267  0.00  0.00    +0.210 HD
ENDBRANCH   1   2
BRANCH   1   4
ATOM      4  C   UNL     1       7.922   4.031  33.996  0.00  0.00    +0.175 C 
BRANCH   4   5
ATOM      5  C   UNL     1       6.527   3.798  34.594  0.00  0.00    +0.176 C 
ATOM      6  O   UNL     1       5.752   3.026  33.635  0.00  0.00    -0.332 OA
ATOM      7  C   UNL     1       4.418   2.615  34.082  0.00  0.00    +0.277 C 
ATOM      8  C   UNL     1       3.600   3.845  34.547  0.00  0.00    +0.110 C 
ATOM      9  C   UNL     1       4.395   4.714  35.544  0.00  0.00    +0.143 C 
ATOM     10  C   UNL     1       5.767   5.081  34.979  0.00  0.00    +0.133 C 
BRANCH  10  11
ATOM     11  N   UNL     1       6.549   5.836  35.972  0.00  0.00    -0.308 N 
ATOM     12  H   UNL     1       6.697   5.411  36.876  0.00  0.00    +0.149 HD
ATOM     13  C   UNL     1       7.074   7.045  35.756  0.00  0.00    +0.210 C 
ATOM     14  C   UNL     1       6.807   7.676  34.376  0.00  0.00    +0.109 C 
ATOM     15  O   UNL     1       7.736   7.647  36.601  0.00  0.00    -0.276 OA
ENDBRANCH  10  11
BRANCH   7  16
ATOM     16  C   UNL     1       4.518   1.596  35.237  0.00  0.00    +0.414 C 
ATOM     17  O   UNL     1       5.377   0.716  35.214  0.00  0.00    -0.240 OA
ATOM     18  O   UNL     1       3.740   1.655  36.190  0.00  0.00    -0.240 OA
ENDBRANCH   7  16
BRANCH   9  19
ATOM     19  O   UNL     1       3.667   5.910  35.827  0.00  0.00    -0.390 OA
ATOM     20  H   UNL     1       3.381   5.901  36.744  0.00  0.00    +0.210 HD
ENDBRANCH   9  19
BRANCH   7  21
ATOM     21  O   UNL     1       3.734   2.010  32.955  0.00  0.00    -0.343 OA
ATOM     22  C   UNL     1       4.137   2.508  31.655  0.00  0.00    +0.198 C 
ENDBRANCH   7  21
ENDBRANCH   4   5
BRANCH   4  23
ATOM     23  O   UNL     1       7.807   4.587  32.671  0.00  0.00    -0.387 OA
ATOM     24  H   UNL     1       6.928   4.416  32.326  0.00  0.00    +0.210 HD
ENDBRANCH   4  23
ENDBRANCH   1   4
BRANCH   1  25
ATOM     25  C   UNL     1       8.739   2.081  35.333  0.00  0.00    +0.141 C 
BRANCH  25  28
ATOM     26  C   UNL     1       8.843  -0.356  35.730  0.00  0.00    +0.401 C 
ATOM     27  O   UNL     1       9.970  -0.321  36.230  0.00  0.00    -0.226 OA
ATOM     28  N   UNL     1       8.195   0.718  35.278  0.00  0.00    -0.279 N 
ATOM     29  H   UNL     1       7.278   0.587  34.875  0.00  0.00    +0.152 HD
BRANCH  26  30
ATOM     30  O   UNL     1       8.174  -1.614  35.613  0.00  0.00    -0.444 OA
BRANCH  30  31
ATOM     31  C   UNL     1       8.826  -2.411  34.621  0.00  0.00    +0.292 C 
BRANCH  31  33
ATOM     32  N   UNL     1       8.082  -0.972  32.743  0.00  0.00    -0.131 NA
ATOM     33  C   UNL     1       8.189  -2.219  33.305  0.00  0.00    +0.120 A 
ATOM     34  C   UNL     1       7.627  -3.144  32.456  0.00  0.00    +0.139 A 
ATOM     35  N   UNL     1       7.171  -2.397  31.410  0.00  0.00    -0.226 N 
ATOM     36  N   UNL     1       7.466  -1.095  31.575  0.00  0.00    -0.063 NA
BRANCH  35  37
ATOM     37  C   UNL     1       6.495  -2.845  30.204  0.00  0.00    +0.305 C 
BRANCH  37  38
ATOM     38  O   UNL     1       6.740  -1.911  29.156  0.00  0.00    -0.353 OA
BRANCH  38  39
ATOM     39  C   UNL     1       7.653  -2.427  28.196  0.00  0.00    +0.197 C 
BRANCH  39  40
ATOM     40  C   UNL     1       7.021  -2.267  26.839  0.00  0.00    -0.022 A 
ATOM     41  C   UNL     1       7.790  -2.400  25.675  0.00  0.00    +0.006 A 
ATOM     42  C   UNL     1       7.212  -2.214  24.419  0.00  0.00    +0.000 A 
ATOM     43  C   UNL     1       5.861  -1.885  24.314  0.00  0.00    +0.000 A 
ATOM     44  C   UNL     1       5.089  -1.739  25.465  0.00  0.00    +0.000 A 
ATOM     45  C   UNL     1       5.666  -1.925  26.722  0.00  0.00    +0.006 A 
ENDBRANCH  39  40
ENDBRANCH  38  39
ENDBRANCH  37  38
ENDBRANCH  35  37
ENDBRANCH  31  33
ENDBRANCH  30  31
ENDBRANCH  26  30
ENDBRANCH  25  28
ENDBRANCH   1  25
TORSDOF 17
