REMARK VINA RESULT:    -5.331     22.836     26.407
REMARK INTER + INTRA:         -12.164
REMARK INTER:                  -9.805
REMARK INTRA:                  -2.359
REMARK UNBOUND:                -2.936
REMARK  Name = lig_assembled_93.pdb
REMARK  16 active torsions:
REMARK  status: ('A' for Active; 'I' for Inactive)
REMARK    1  A    between atoms: _2  and  _9
REMARK    2  A    between atoms: _4  and  _18
REMARK    3  A    between atoms: _6  and  _7
REMARK    4  A    between atoms: _6  and  _18
REMARK    5  A    between atoms: _14  and  _34
REMARK    6  A    between atoms: _16  and  _22
REMARK    7  A    between atoms: _17  and  _21
REMARK    8  A    between atoms: _21  and  _22
REMARK    9  A    between atoms: _24  and  _25
REMARK   10  A    between atoms: _26  and  _27
REMARK   11  A    between atoms: _28  and  _30
REMARK   12  A    between atoms: _30  and  _31
REMARK   13  A    between atoms: _30  and  _32
REMARK   14  A    between atoms: _32  and  _33
REMARK   15  A    between atoms: _32  and  _34
REMARK   16  A    between atoms: _35  and  _37
REMARK                            x       y       z     vdW  Elec       q    Type
REMARK                         _______ _______ _______ _____ _____    ______ ____
ROOT
ATOM      1  C   UNL     1      15.549  23.682  19.088  0.00  0.00    +0.163 C 
ENDROOT
BRANCH   1   2
ATOM      2  O   UNL     1      16.160  24.438  18.029  0.00  0.00    -0.388 OA
ATOM      3  H   UNL     1      15.630  25.217  17.845  0.00  0.00    +0.210 HD
ENDBRANCH   1   2
BRANCH   1   4
ATOM      4  C   UNL     1      16.623  22.995  19.925  0.00  0.00    +0.141 C 
BRANCH   4   7
ATOM      5  C   UNL     1      16.285  21.505  21.867  0.00  0.00    +0.401 C 
ATOM      6  O   UNL     1      16.808  20.527  21.328  0.00  0.00    -0.226 OA
ATOM      7  N   UNL     1      16.151  22.696  21.283  0.00  0.00    -0.279 N 
ATOM      8  H   UNL     1      15.700  23.435  21.803  0.00  0.00    +0.152 HD
BRANCH   5   9
ATOM      9  O   UNL     1      15.781  21.376  23.199  0.00  0.00    -0.444 OA
BRANCH   9  10
ATOM     10  C   UNL     1      16.085  22.560  23.942  0.00  0.00    +0.292 C 
BRANCH  10  12
ATOM     11  N   UNL     1      14.333  24.267  23.614  0.00  0.00    -0.131 NA
ATOM     12  C   UNL     1      14.842  23.243  24.348  0.00  0.00    +0.121 A 
ATOM     13  C   UNL     1      14.017  23.015  25.425  0.00  0.00    +0.143 A 
ATOM     14  N   UNL     1      12.984  23.930  25.302  0.00  0.00    -0.219 N 
ATOM     15  N   UNL     1      13.219  24.676  24.201  0.00  0.00    -0.060 NA
BRANCH  14  16
ATOM     16  C   UNL     1      11.842  24.090  26.148  0.00  0.00    +0.080 A 
ATOM     17  C   UNL     1      10.666  23.381  25.803  0.00  0.00    +0.029 A 
ATOM     18  C   UNL     1       9.494  23.487  26.556  0.00  0.00    +0.002 A 
ATOM     19  C   UNL     1       9.462  24.301  27.675  0.00  0.00    +0.001 A 
ATOM     20  C   UNL     1      10.606  25.006  28.044  0.00  0.00    +0.016 A 
ATOM     21  C   UNL     1      11.799  24.910  27.296  0.00  0.00    +0.039 A 
ATOM     22  I   UNL     1      13.356  26.091  28.109  0.00  0.00    -0.042 I 
ENDBRANCH  14  16
ENDBRANCH  10  12
ENDBRANCH   9  10
ENDBRANCH   5   9
ENDBRANCH   4   7
ENDBRANCH   1   4
BRANCH   1  23
ATOM     23  C   UNL     1      14.584  22.625  18.523  0.00  0.00    +0.175 C 
BRANCH  23  24
ATOM     24  C   UNL     1      13.615  23.221  17.491  0.00  0.00    +0.176 C 
ATOM     25  O   UNL     1      14.360  23.461  16.266  0.00  0.00    -0.332 OA
ATOM     26  C   UNL     1      13.570  23.934  15.125  0.00  0.00    +0.277 C 
ATOM     27  C   UNL     1      12.771  25.204  15.510  0.00  0.00    +0.110 C 
ATOM     28  C   UNL     1      11.987  25.007  16.824  0.00  0.00    +0.143 C 
ATOM     29  C   UNL     1      12.905  24.511  17.942  0.00  0.00    +0.133 C 
BRANCH  29  30
ATOM     30  N   UNL     1      12.131  24.244  19.165  0.00  0.00    -0.308 N 
ATOM     31  H   UNL     1      11.487  23.466  19.154  0.00  0.00    +0.149 HD
ATOM     32  C   UNL     1      12.225  24.962  20.287  0.00  0.00    +0.210 C 
ATOM     33  C   UNL     1      13.196  26.157  20.261  0.00  0.00    +0.109 C 
ATOM     34  O   UNL     1      11.574  24.707  21.301  0.00  0.00    -0.276 OA
ENDBRANCH  29  30
BRANCH  26  35
ATOM     35  C   UNL     1      12.596  22.839  14.643  0.00  0.00    +0.414 C 
ATOM     36  O   UNL     1      11.458  23.136  14.283  0.00  0.00    -0.240 OA
ATOM     37  O   UNL     1      12.948  21.659  14.614  0.00  0.00    -0.240 OA
ENDBRANCH  26  35
BRANCH  28  38
ATOM     38  O   UNL     1      11.390  26.243  17.219  0.00  0.00    -0.390 OA
ATOM     39  H   UNL     1      10.991  26.143  18.087  0.00  0.00    +0.210 HD
ENDBRANCH  28  38
BRANCH  26  40
ATOM     40  O   UNL     1      14.487  24.278  14.055  0.00  0.00    -0.343 OA
ATOM     41  C   UNL     1      15.600  25.120  14.449  0.00  0.00    +0.198 C 
ENDBRANCH  26  40
ENDBRANCH  23  24
BRANCH  23  42
ATOM     42  O   UNL     1      13.847  22.003  19.595  0.00  0.00    -0.387 OA
ATOM     43  H   UNL     1      12.941  21.850  19.314  0.00  0.00    +0.210 HD
ENDBRANCH  23  42
ENDBRANCH   1  23
TORSDOF 14
