REMARK VINA RESULT:    -5.803      1.783      3.400
REMARK INTER + INTRA:         -14.442
REMARK INTER:                 -11.228
REMARK INTRA:                  -3.214
REMARK UNBOUND:                -3.380
REMARK  Name = lig_assembled_62.pdb
REMARK  20 active torsions:
REMARK  status: ('A' for Active; 'I' for Inactive)
REMARK    1  A    between atoms: _2  and  _10
REMARK    2  A    between atoms: _5  and  _19
REMARK    3  A    between atoms: _6  and  _10
REMARK    4  A    between atoms: _7  and  _8
REMARK    5  A    between atoms: _7  and  _19
REMARK    6  A    between atoms: _10  and  _11
REMARK    7  A    between atoms: _11  and  _14
REMARK    8  A    between atoms: _12  and  _14
REMARK    9  A    between atoms: _15  and  _35
REMARK   10  A    between atoms: _17  and  _23
REMARK   11  A    between atoms: _18  and  _22
REMARK   12  A    between atoms: _22  and  _23
REMARK   13  A    between atoms: _25  and  _26
REMARK   14  A    between atoms: _27  and  _28
REMARK   15  A    between atoms: _29  and  _31
REMARK   16  A    between atoms: _31  and  _32
REMARK   17  A    between atoms: _31  and  _33
REMARK   18  A    between atoms: _33  and  _34
REMARK   19  A    between atoms: _33  and  _35
REMARK   20  A    between atoms: _36  and  _38
REMARK                            x       y       z     vdW  Elec       q    Type
REMARK                         _______ _______ _______ _____ _____    ______ ____
ROOT
ATOM      1  C   UNL     1      16.915   3.822  23.005  0.00  0.00    +0.163 C 
ENDROOT
BRANCH   1   2
ATOM      2  O   UNL     1      16.071   2.930  23.752  0.00  0.00    -0.388 OA
ATOM      3  H   UNL     1      16.554   2.124  23.950  0.00  0.00    +0.210 HD
ENDBRANCH   1   2
BRANCH   1   4
ATOM      4  C   UNL     1      18.309   3.926  23.646  0.00  0.00    +0.175 C 
BRANCH   4   5
ATOM      5  C   UNL     1      18.510   2.893  24.764  0.00  0.00    +0.176 C 
ATOM      6  O   UNL     1      17.899   3.420  25.974  0.00  0.00    -0.332 OA
ATOM      7  C   UNL     1      17.900   2.517  27.130  0.00  0.00    +0.277 C 
ATOM      8  C   UNL     1      19.339   2.035  27.438  0.00  0.00    +0.110 C 
ATOM      9  C   UNL     1      20.041   1.495  26.174  0.00  0.00    +0.143 C 
ATOM     10  C   UNL     1      19.978   2.512  25.034  0.00  0.00    +0.133 C 
BRANCH  10  11
ATOM     11  N   UNL     1      20.573   1.953  23.810  0.00  0.00    -0.308 N 
ATOM     12  H   UNL     1      20.160   1.115  23.425  0.00  0.00    +0.149 HD
ATOM     13  C   UNL     1      21.623   2.480  23.175  0.00  0.00    +0.210 C 
ATOM     14  C   UNL     1      22.246   3.742  23.802  0.00  0.00    +0.109 C 
ATOM     15  O   UNL     1      22.092   1.998  22.143  0.00  0.00    -0.276 OA
ENDBRANCH  10  11
BRANCH   7  16
ATOM     16  C   UNL     1      16.991   1.298  26.872  0.00  0.00    +0.414 C 
ATOM     17  O   UNL     1      17.320   0.183  27.276  0.00  0.00    -0.240 OA
ATOM     18  O   UNL     1      15.930   1.428  26.261  0.00  0.00    -0.240 OA
ENDBRANCH   7  16
BRANCH   7  19
ATOM     19  O   UNL     1      17.411   3.257  28.278  0.00  0.00    -0.343 OA
ATOM     20  C   UNL     1      18.427   3.638  29.240  0.00  0.00    +0.198 C 
ENDBRANCH   7  19
BRANCH   9  21
ATOM     21  O   UNL     1      21.408   1.204  26.469  0.00  0.00    -0.390 OA
ATOM     22  H   UNL     1      21.460   0.388  26.973  0.00  0.00    +0.210 HD
ENDBRANCH   9  21
ENDBRANCH   4   5
BRANCH   4  23
ATOM     23  O   UNL     1      18.524   5.258  24.155  0.00  0.00    -0.387 OA
ATOM     24  H   UNL     1      18.554   5.879  23.424  0.00  0.00    +0.210 HD
ENDBRANCH   4  23
ENDBRANCH   1   4
BRANCH   1  25
ATOM     25  C   UNL     1      17.050   3.331  21.568  0.00  0.00    +0.141 C 
BRANCH  25  28
ATOM     26  C   UNL     1      17.628   1.208  20.442  0.00  0.00    +0.401 C 
ATOM     27  O   UNL     1      16.982   1.464  19.423  0.00  0.00    -0.226 OA
ATOM     28  N   UNL     1      17.709   2.021  21.496  0.00  0.00    -0.279 N 
ATOM     29  H   UNL     1      18.256   1.719  22.291  0.00  0.00    +0.152 HD
BRANCH  26  30
ATOM     30  O   UNL     1      18.336  -0.031  20.523  0.00  0.00    -0.444 OA
BRANCH  30  31
ATOM     31  C   UNL     1      18.851  -0.202  21.846  0.00  0.00    +0.292 C 
BRANCH  31  33
ATOM     32  N   UNL     1      18.222  -2.561  22.254  0.00  0.00    -0.131 NA
ATOM     33  C   UNL     1      18.085  -1.236  22.567  0.00  0.00    +0.120 A 
ATOM     34  C   UNL     1      17.175  -1.108  23.592  0.00  0.00    +0.138 A 
ATOM     35  N   UNL     1      16.781  -2.389  23.850  0.00  0.00    -0.237 N 
ATOM     36  N   UNL     1      17.421  -3.260  23.047  0.00  0.00    -0.065 NA
BRANCH  35  37
ATOM     37  C   UNL     1      15.846  -2.888  24.844  0.00  0.00    +0.219 C 
BRANCH  37  38
ATOM     38  C   UNL     1      16.436  -2.752  26.239  0.00  0.00    +0.237 C 
ATOM     39  O   UNL     1      17.625  -2.904  26.505  0.00  0.00    -0.274 OA
ATOM     40  N   UNL     1      15.564  -2.375  27.226  0.00  0.00    -0.328 N 
ATOM     41  H   UNL     1      14.593  -2.144  27.061  0.00  0.00    +0.145 HD
ATOM     42  H   UNL     1      15.933  -2.268  28.163  0.00  0.00    +0.145 HD
ENDBRANCH  37  38
BRANCH  37  43
ATOM     43  C   UNL     1      15.465  -4.337  24.550  0.00  0.00    +0.195 C 
BRANCH  43  44
ATOM     44  O   UNL     1      15.492  -5.092  25.769  0.00  0.00    -0.380 OA
ATOM     45  C   UNL     1      14.400  -6.000  25.850  0.00  0.00    +0.194 C 
ENDBRANCH  43  44
ENDBRANCH  37  43
ENDBRANCH  35  37
ENDBRANCH  31  33
ENDBRANCH  30  31
ENDBRANCH  26  30
ENDBRANCH  25  28
ENDBRANCH   1  25
TORSDOF 17
