REMARK VINA RESULT:    -6.061     13.953     15.428
REMARK INTER + INTRA:         -12.824
REMARK INTER:                 -10.612
REMARK INTRA:                  -2.212
REMARK UNBOUND:                -2.334
REMARK  Name = lig_assembled_15.pdb
REMARK  16 active torsions:
REMARK  status: ('A' for Active; 'I' for Inactive)
REMARK    1  A    between atoms: _2  and  _9
REMARK    2  A    between atoms: _4  and  _18
REMARK    3  A    between atoms: _6  and  _7
REMARK    4  A    between atoms: _6  and  _18
REMARK    5  A    between atoms: _14  and  _34
REMARK    6  A    between atoms: _16  and  _22
REMARK    7  A    between atoms: _17  and  _21
REMARK    8  A    between atoms: _21  and  _22
REMARK    9  A    between atoms: _24  and  _25
REMARK   10  A    between atoms: _26  and  _27
REMARK   11  A    between atoms: _28  and  _30
REMARK   12  A    between atoms: _30  and  _31
REMARK   13  A    between atoms: _30  and  _32
REMARK   14  A    between atoms: _32  and  _33
REMARK   15  A    between atoms: _32  and  _34
REMARK   16  A    between atoms: _35  and  _37
REMARK                            x       y       z     vdW  Elec       q    Type
REMARK                         _______ _______ _______ _____ _____    ______ ____
ROOT
ATOM      1  C   UNL     1      18.769  10.161  29.079  0.00  0.00    +0.163 C 
ENDROOT
BRANCH   1   2
ATOM      2  O   UNL     1      17.531  10.765  29.490  0.00  0.00    -0.388 OA
ATOM      3  H   UNL     1      17.683  11.686  29.717  0.00  0.00    +0.210 HD
ENDBRANCH   1   2
BRANCH   1   4
ATOM      4  C   UNL     1      18.887  10.197  27.559  0.00  0.00    +0.141 C 
BRANCH   4   7
ATOM      5  C   UNL     1      19.705   8.369  26.111  0.00  0.00    +0.401 C 
ATOM      6  O   UNL     1      20.684   9.001  25.708  0.00  0.00    -0.226 OA
ATOM      7  N   UNL     1      18.809   8.853  26.973  0.00  0.00    -0.279 N 
ATOM      8  H   UNL     1      18.034   8.262  27.237  0.00  0.00    +0.152 HD
BRANCH   5   9
ATOM      9  O   UNL     1      19.494   7.037  25.637  0.00  0.00    -0.444 OA
BRANCH   9  10
ATOM     10  C   UNL     1      19.362   7.052  24.213  0.00  0.00    +0.292 C 
BRANCH  10  12
ATOM     11  N   UNL     1      17.690   5.882  22.815  0.00  0.00    -0.131 NA
ATOM     12  C   UNL     1      18.683   5.828  23.748  0.00  0.00    +0.121 A 
ATOM     13  C   UNL     1      18.889   4.515  24.108  0.00  0.00    +0.143 A 
ATOM     14  N   UNL     1      18.008   3.793  23.337  0.00  0.00    -0.220 N 
ATOM     15  N   UNL     1      17.280   4.644  22.574  0.00  0.00    -0.060 NA
BRANCH  14  16
ATOM     16  C   UNL     1      17.842   2.384  23.263  0.00  0.00    +0.067 A 
ATOM     17  C   UNL     1      17.321   1.663  24.347  0.00  0.00    +0.029 A 
ATOM     18  C   UNL     1      17.204   0.271  24.270  0.00  0.00    +0.017 A 
ATOM     19  C   UNL     1      17.600  -0.398  23.114  0.00  0.00    +0.018 A 
ATOM     20 BR   UNL     1      17.463  -2.282  23.028  0.00  0.00    -0.050 Br
ATOM     21  C   UNL     1      18.104   0.311  22.025  0.00  0.00    +0.017 A 
ATOM     22  C   UNL     1      18.223   1.701  22.097  0.00  0.00    +0.029 A 
ENDBRANCH  14  16
ENDBRANCH  10  12
ENDBRANCH   9  10
ENDBRANCH   5   9
ENDBRANCH   4   7
ENDBRANCH   1   4
BRANCH   1  23
ATOM     23  C   UNL     1      18.860   8.706  29.568  0.00  0.00    +0.175 C 
BRANCH  23  24
ATOM     24  C   UNL     1      18.214   8.518  30.949  0.00  0.00    +0.176 C 
ATOM     25  O   UNL     1      18.549   9.678  31.760  0.00  0.00    -0.332 OA
ATOM     26  C   UNL     1      17.927   9.724  33.087  0.00  0.00    +0.277 C 
ATOM     27  C   UNL     1      18.236   8.428  33.875  0.00  0.00    +0.110 C 
ATOM     28  C   UNL     1      17.926   7.167  33.041  0.00  0.00    +0.143 C 
ATOM     29  C   UNL     1      18.621   7.225  31.680  0.00  0.00    +0.133 C 
BRANCH  29  30
ATOM     30  N   UNL     1      18.248   6.060  30.862  0.00  0.00    -0.308 N 
ATOM     31  H   UNL     1      17.301   6.012  30.514  0.00  0.00    +0.149 HD
ATOM     32  C   UNL     1      19.080   5.063  30.549  0.00  0.00    +0.210 C 
ATOM     33  C   UNL     1      20.509   5.153  31.116  0.00  0.00    +0.109 C 
ATOM     34  O   UNL     1      18.744   4.107  29.849  0.00  0.00    -0.276 OA
ENDBRANCH  29  30
BRANCH  26  35
ATOM     35  C   UNL     1      16.399   9.904  32.969  0.00  0.00    +0.414 C 
ATOM     36  O   UNL     1      15.644   9.305  33.733  0.00  0.00    -0.240 OA
ATOM     37  O   UNL     1      15.923  10.648  32.111  0.00  0.00    -0.240 OA
ENDBRANCH  26  35
BRANCH  28  38
ATOM     38  O   UNL     1      18.366   6.004  33.744  0.00  0.00    -0.390 OA
ATOM     39  H   UNL     1      19.288   6.108  33.991  0.00  0.00    +0.210 HD
ENDBRANCH  28  38
BRANCH  26  40
ATOM     40  O   UNL     1      18.496  10.846  33.810  0.00  0.00    -0.343 OA
ATOM     41  C   UNL     1      19.088  11.875  32.977  0.00  0.00    +0.198 C 
ENDBRANCH  26  40
ENDBRANCH  23  24
BRANCH  23  42
ATOM     42  O   UNL     1      20.236   8.278  29.601  0.00  0.00    -0.387 OA
ATOM     43  H   UNL     1      20.698   8.627  28.835  0.00  0.00    +0.210 HD
ENDBRANCH  23  42
ENDBRANCH   1  23
TORSDOF 14
