REMARK VINA RESULT:    -5.885     15.922     18.154
REMARK INTER + INTRA:         -14.005
REMARK INTER:                 -10.516
REMARK INTRA:                  -3.490
REMARK UNBOUND:                -2.615
REMARK  Name = lig_assembled_83.pdb
REMARK  20 active torsions:
REMARK  status: ('A' for Active; 'I' for Inactive)
REMARK    1  A    between atoms: _2  and  _12
REMARK    2  A    between atoms: _3  and  _14
REMARK    3  A    between atoms: _7  and  _24
REMARK    4  A    between atoms: _9  and  _10
REMARK    5  A    between atoms: _9  and  _24
REMARK    6  A    between atoms: _12  and  _13
REMARK    7  A    between atoms: _13  and  _14
REMARK    8  A    between atoms: _13  and  _18
REMARK    9  A    between atoms: _20  and  _40
REMARK   10  A    between atoms: _22  and  _28
REMARK   11  A    between atoms: _23  and  _27
REMARK   12  A    between atoms: _27  and  _28
REMARK   13  A    between atoms: _30  and  _31
REMARK   14  A    between atoms: _32  and  _33
REMARK   15  A    between atoms: _34  and  _36
REMARK   16  A    between atoms: _36  and  _37
REMARK   17  A    between atoms: _36  and  _38
REMARK   18  A    between atoms: _38  and  _39
REMARK   19  A    between atoms: _38  and  _40
REMARK   20  A    between atoms: _41  and  _43
REMARK                            x       y       z     vdW  Elec       q    Type
REMARK                         _______ _______ _______ _____ _____    ______ ____
ROOT
ATOM      1  C   UNL     1      -2.414   4.036  25.801  0.00  0.00    +0.141 C 
ENDROOT
BRANCH   1   4
ATOM      2  C   UNL     1      -3.294   3.411  28.024  0.00  0.00    +0.401 C 
ATOM      3  O   UNL     1      -4.349   4.035  27.886  0.00  0.00    -0.226 OA
ATOM      4  N   UNL     1      -2.331   3.362  27.103  0.00  0.00    -0.279 N 
ATOM      5  H   UNL     1      -1.497   2.831  27.312  0.00  0.00    +0.152 HD
BRANCH   2   6
ATOM      6  O   UNL     1      -3.066   2.693  29.239  0.00  0.00    -0.444 OA
BRANCH   6   7
ATOM      7  C   UNL     1      -2.453   3.559  30.198  0.00  0.00    +0.292 C 
BRANCH   7   9
ATOM      8  N   UNL     1      -0.213   4.309  29.435  0.00  0.00    -0.131 NA
ATOM      9  C   UNL     1      -0.986   3.429  30.149  0.00  0.00    +0.120 A 
ATOM     10  C   UNL     1      -0.167   2.497  30.744  0.00  0.00    +0.137 A 
ATOM     11  N   UNL     1       1.086   2.874  30.369  0.00  0.00    -0.249 N 
ATOM     12  N   UNL     1       1.059   3.954  29.572  0.00  0.00    -0.065 NA
BRANCH  11  13
ATOM     13  C   UNL     1       2.341   2.231  30.698  0.00  0.00    +0.178 C 
BRANCH  13  14
ATOM     14  C   UNL     1       3.243   3.138  31.540  0.00  0.00    +0.156 C 
BRANCH  14  15
ATOM     15  O   UNL     1       2.520   4.307  31.940  0.00  0.00    -0.388 OA
ATOM     16  H   UNL     1       2.363   4.285  32.906  0.00  0.00    +0.210 HD
ENDBRANCH  14  15
BRANCH  14  17
ATOM     17  C   UNL     1       3.762   2.384  32.774  0.00  0.00    +0.162 C 
BRANCH  17  18
ATOM     18  N   UNL     1       5.212   2.426  32.885  0.00  0.00    -0.269 N 
ATOM     19  C   UNL     1       5.900   3.496  33.410  0.00  0.00    +0.113 A 
ATOM     20  C   UNL     1       7.228   3.138  33.368  0.00  0.00    +0.137 A 
ATOM     21  N   UNL     1       7.378   1.898  32.808  0.00  0.00    -0.172 NA
ATOM     22  C   UNL     1       6.154   1.489  32.532  0.00  0.00    +0.450 A 
ATOM     23  N   UNL     1       5.881   0.201  31.935  0.00  0.00    +0.120 N 
ATOM     24  O   UNL     1       4.695  -0.093  31.716  0.00  0.00    +0.045 OA
ATOM     25  O   UNL     1       6.850  -0.521  31.669  0.00  0.00    -0.573 OA
ENDBRANCH  17  18
ENDBRANCH  14  17
ENDBRANCH  13  14
ENDBRANCH  11  13
ENDBRANCH   7   9
ENDBRANCH   6   7
ENDBRANCH   2   6
ENDBRANCH   1   4
BRANCH   1  26
ATOM     26  C   UNL     1      -1.325   5.090  25.636  0.00  0.00    +0.163 C 
BRANCH  26  27
ATOM     27  O   UNL     1      -0.547   5.186  26.840  0.00  0.00    -0.388 OA
ATOM     28  H   UNL     1      -0.840   5.944  27.352  0.00  0.00    +0.210 HD
ENDBRANCH  26  27
BRANCH  26  29
ATOM     29  C   UNL     1      -0.436   4.726  24.434  0.00  0.00    +0.175 C 
BRANCH  29  30
ATOM     30  C   UNL     1       0.007   3.256  24.467  0.00  0.00    +0.176 C 
ATOM     31  O   UNL     1       0.722   3.033  25.713  0.00  0.00    -0.332 OA
ATOM     32  C   UNL     1       1.132   1.649  25.969  0.00  0.00    +0.277 C 
ATOM     33  C   UNL     1       1.966   1.104  24.784  0.00  0.00    +0.110 C 
ATOM     34  C   UNL     1       1.260   1.347  23.433  0.00  0.00    +0.143 C 
ATOM     35  C   UNL     1       0.875   2.818  23.272  0.00  0.00    +0.133 C 
BRANCH  35  36
ATOM     36  N   UNL     1       0.127   3.021  22.021  0.00  0.00    -0.308 N 
ATOM     37  H   UNL     1      -0.755   2.541  21.916  0.00  0.00    +0.149 HD
ATOM     38  C   UNL     1       0.539   3.799  21.016  0.00  0.00    +0.210 C 
ATOM     39  C   UNL     1       1.900   4.497  21.197  0.00  0.00    +0.109 C 
ATOM     40  O   UNL     1      -0.115   3.962  19.986  0.00  0.00    -0.276 OA
ENDBRANCH  35  36
BRANCH  32  41
ATOM     41  C   UNL     1      -0.098   0.746  26.193  0.00  0.00    +0.414 C 
ATOM     42  O   UNL     1      -0.876   0.975  27.119  0.00  0.00    -0.240 OA
ATOM     43  O   UNL     1      -0.314  -0.212  25.449  0.00  0.00    -0.240 OA
ENDBRANCH  32  41
BRANCH  32  44
ATOM     44  O   UNL     1       1.967   1.640  27.156  0.00  0.00    -0.343 OA
ATOM     45  C   UNL     1       2.434   0.331  27.567  0.00  0.00    +0.198 C 
ENDBRANCH  32  44
BRANCH  34  46
ATOM     46  O   UNL     1       2.127   0.968  22.362  0.00  0.00    -0.390 OA
ATOM     47  H   UNL     1       1.874   1.438  21.564  0.00  0.00    +0.210 HD
ENDBRANCH  34  46
ENDBRANCH  29  30
BRANCH  29  48
ATOM     48  O   UNL     1       0.716   5.592  24.388  0.00  0.00    -0.387 OA
ATOM     49  H   UNL     1       1.396   5.192  23.841  0.00  0.00    +0.210 HD
ENDBRANCH  29  48
ENDBRANCH  26  29
ENDBRANCH   1  26
TORSDOF 18
