REMARK VINA RESULT:    -5.531      4.518     10.022
REMARK INTER + INTRA:         -12.863
REMARK INTER:                 -10.682
REMARK INTRA:                  -2.181
REMARK UNBOUND:                -2.805
REMARK  Name = lig_assembled_72.pdb
REMARK  20 active torsions:
REMARK  status: ('A' for Active; 'I' for Inactive)
REMARK    1  A    between atoms: _2  and  _9
REMARK    2  A    between atoms: _4  and  _17
REMARK    3  A    between atoms: _5  and  _9
REMARK    4  A    between atoms: _5  and  _12
REMARK    5  A    between atoms: _6  and  _7
REMARK    6  A    between atoms: _6  and  _17
REMARK    7  A    between atoms: _9  and  _10
REMARK    8  A    between atoms: _9  and  _11
REMARK    9  A    between atoms: _13  and  _33
REMARK   10  A    between atoms: _15  and  _21
REMARK   11  A    between atoms: _16  and  _20
REMARK   12  A    between atoms: _20  and  _21
REMARK   13  A    between atoms: _23  and  _24
REMARK   14  A    between atoms: _25  and  _26
REMARK   15  A    between atoms: _27  and  _29
REMARK   16  A    between atoms: _29  and  _30
REMARK   17  A    between atoms: _29  and  _31
REMARK   18  A    between atoms: _31  and  _32
REMARK   19  A    between atoms: _31  and  _33
REMARK   20  A    between atoms: _34  and  _36
REMARK                            x       y       z     vdW  Elec       q    Type
REMARK                         _______ _______ _______ _____ _____    ______ ____
ROOT
ATOM      1  C   UNL     1      18.646   5.435  24.464  0.00  0.00    +0.163 C 
ENDROOT
BRANCH   1   2
ATOM      2  O   UNL     1      17.850   5.794  23.323  0.00  0.00    -0.388 OA
ATOM      3  H   UNL     1      18.298   5.519  22.520  0.00  0.00    +0.210 HD
ENDBRANCH   1   2
BRANCH   1   4
ATOM      4  C   UNL     1      19.812   4.519  24.055  0.00  0.00    +0.175 C 
BRANCH   4   5
ATOM      5  C   UNL     1      19.370   3.056  23.897  0.00  0.00    +0.176 C 
ATOM      6  O   UNL     1      18.529   2.968  22.714  0.00  0.00    -0.332 OA
ATOM      7  C   UNL     1      18.097   1.617  22.343  0.00  0.00    +0.277 C 
ATOM      8  C   UNL     1      17.394   0.927  23.538  0.00  0.00    +0.110 C 
ATOM      9  C   UNL     1      18.236   1.023  24.827  0.00  0.00    +0.143 C 
ATOM     10  C   UNL     1      18.634   2.471  25.117  0.00  0.00    +0.133 C 
BRANCH  10  11
ATOM     11  N   UNL     1      19.508   2.539  26.298  0.00  0.00    -0.308 N 
ATOM     12  H   UNL     1      20.457   2.205  26.202  0.00  0.00    +0.149 HD
ATOM     13  C   UNL     1      19.130   3.012  27.488  0.00  0.00    +0.210 C 
ATOM     14  C   UNL     1      17.670   3.489  27.608  0.00  0.00    +0.109 C 
ATOM     15  O   UNL     1      19.889   3.071  28.457  0.00  0.00    -0.276 OA
ENDBRANCH  10  11
BRANCH   7  16
ATOM     16  C   UNL     1      19.299   0.764  21.889  0.00  0.00    +0.414 C 
ATOM     17  O   UNL     1      19.354  -0.431  22.176  0.00  0.00    -0.240 OA
ATOM     18  O   UNL     1      20.212   1.269  21.235  0.00  0.00    -0.240 OA
ENDBRANCH   7  16
BRANCH   9  19
ATOM     19  O   UNL     1      17.488   0.511  25.931  0.00  0.00    -0.390 OA
ATOM     20  H   UNL     1      18.090   0.168  26.595  0.00  0.00    +0.210 HD
ENDBRANCH   9  19
BRANCH   7  21
ATOM     21  O   UNL     1      17.143   1.735  21.257  0.00  0.00    -0.343 OA
ATOM     22  C   UNL     1      16.498   3.028  21.145  0.00  0.00    +0.198 C 
ENDBRANCH   7  21
ENDBRANCH   4   5
BRANCH   4  23
ATOM     23  O   UNL     1      20.880   4.614  25.018  0.00  0.00    -0.387 OA
ATOM     24  H   UNL     1      21.721   4.462  24.580  0.00  0.00    +0.210 HD
ENDBRANCH   4  23
ENDBRANCH   1   4
BRANCH   1  25
ATOM     25  C   UNL     1      19.195   6.690  25.134  0.00  0.00    +0.141 C 
BRANCH  25  28
ATOM     26  C   UNL     1      18.975   7.649  27.400  0.00  0.00    +0.401 C 
ATOM     27  O   UNL     1      18.855   8.809  27.000  0.00  0.00    -0.226 OA
ATOM     28  N   UNL     1      19.144   6.597  26.598  0.00  0.00    -0.279 N 
ATOM     29  H   UNL     1      19.242   5.685  27.021  0.00  0.00    +0.152 HD
BRANCH  26  30
ATOM     30  O   UNL     1      18.937   7.392  28.806  0.00  0.00    -0.444 OA
BRANCH  30  31
ATOM     31  C   UNL     1      19.514   8.496  29.509  0.00  0.00    +0.292 C 
BRANCH  31  33
ATOM     32  N   UNL     1      17.825  10.144  30.250  0.00  0.00    -0.131 NA
ATOM     33  C   UNL     1      18.564   9.022  30.506  0.00  0.00    +0.120 A 
ATOM     34  C   UNL     1      18.248   8.554  31.764  0.00  0.00    +0.137 A 
ATOM     35  N   UNL     1      17.308   9.435  32.225  0.00  0.00    -0.244 N 
ATOM     36  N   UNL     1      17.063  10.388  31.305  0.00  0.00    -0.065 NA
BRANCH  35  37
ATOM     37  C   UNL     1      16.608   9.423  33.518  0.00  0.00    +0.083 C 
ATOM     38  C   UNL     1      17.017  10.669  34.326  0.00  0.00    +0.038 C 
ATOM     39  C   UNL     1      16.991   8.153  34.303  0.00  0.00    +0.038 C 
BRANCH  37  40
ATOM     40  C   UNL     1      15.066   9.463  33.334  0.00  0.00    +0.185 C 
BRANCH  40  41
ATOM     41  O   UNL     1      14.542  10.789  33.357  0.00  0.00    -0.393 OA
ATOM     42  H   UNL     1      15.195  11.328  33.854  0.00  0.00    +0.209 HD
ENDBRANCH  40  41
ENDBRANCH  37  40
ENDBRANCH  35  37
ENDBRANCH  31  33
ENDBRANCH  30  31
ENDBRANCH  26  30
ENDBRANCH  25  28
ENDBRANCH   1  25
TORSDOF 16
