REMARK VINA RESULT:    -4.535      2.690      4.139
REMARK INTER + INTRA:         -12.820
REMARK INTER:                 -10.596
REMARK INTRA:                  -2.224
REMARK UNBOUND:                -4.177
REMARK  Name = lig_assembled_50.pdb
REMARK  20 active torsions:
REMARK  status: ('A' for Active; 'I' for Inactive)
REMARK    1  A    between atoms: _2  and  _9
REMARK    2  A    between atoms: _4  and  _17
REMARK    3  A    between atoms: _5  and  _10
REMARK    4  A    between atoms: _5  and  _11
REMARK    5  A    between atoms: _6  and  _7
REMARK    6  A    between atoms: _6  and  _17
REMARK    7  A    between atoms: _9  and  _10
REMARK    8  A    between atoms: _10  and  _12
REMARK    9  A    between atoms: _13  and  _33
REMARK   10  A    between atoms: _15  and  _21
REMARK   11  A    between atoms: _16  and  _20
REMARK   12  A    between atoms: _20  and  _21
REMARK   13  A    between atoms: _23  and  _24
REMARK   14  A    between atoms: _25  and  _26
REMARK   15  A    between atoms: _27  and  _29
REMARK   16  A    between atoms: _29  and  _30
REMARK   17  A    between atoms: _29  and  _31
REMARK   18  A    between atoms: _31  and  _32
REMARK   19  A    between atoms: _31  and  _33
REMARK   20  A    between atoms: _34  and  _36
REMARK                            x       y       z     vdW  Elec       q    Type
REMARK                         _______ _______ _______ _____ _____    ______ ____
ROOT
ATOM      1  C   UNL     1      18.156   4.674  22.952  0.00  0.00    +0.163 C 
ENDROOT
BRANCH   1   2
ATOM      2  O   UNL     1      17.469   5.847  23.418  0.00  0.00    -0.388 OA
ATOM      3  H   UNL     1      17.738   6.038  24.320  0.00  0.00    +0.210 HD
ENDBRANCH   1   2
BRANCH   1   4
ATOM      4  C   UNL     1      18.688   3.842  24.132  0.00  0.00    +0.175 C 
BRANCH   4   5
ATOM      5  C   UNL     1      18.634   4.618  25.456  0.00  0.00    +0.176 C 
ATOM      6  O   UNL     1      19.895   5.326  25.611  0.00  0.00    -0.332 OA
ATOM      7  C   UNL     1      19.986   6.211  26.776  0.00  0.00    +0.277 C 
ATOM      8  C   UNL     1      19.661   5.431  28.074  0.00  0.00    +0.110 C 
ATOM      9  C   UNL     1      18.345   4.636  27.946  0.00  0.00    +0.143 C 
ATOM     10  C   UNL     1      18.357   3.752  26.699  0.00  0.00    +0.133 C 
BRANCH  10  11
ATOM     11  N   UNL     1      17.065   3.066  26.542  0.00  0.00    -0.308 N 
ATOM     12  H   UNL     1      16.242   3.636  26.404  0.00  0.00    +0.149 HD
ATOM     13  C   UNL     1      16.908   1.740  26.568  0.00  0.00    +0.210 C 
ATOM     14  C   UNL     1      18.178   0.900  26.805  0.00  0.00    +0.109 C 
ATOM     15  O   UNL     1      15.815   1.192  26.419  0.00  0.00    -0.276 OA
ENDBRANCH  10  11
BRANCH   7  16
ATOM     16  C   UNL     1      19.017   7.403  26.635  0.00  0.00    +0.414 C 
ATOM     17  O   UNL     1      18.972   8.272  27.505  0.00  0.00    -0.240 OA
ATOM     18  O   UNL     1      18.282   7.497  25.651  0.00  0.00    -0.240 OA
ENDBRANCH   7  16
BRANCH   9  19
ATOM     19  O   UNL     1      18.163   3.818  29.102  0.00  0.00    -0.390 OA
ATOM     20  H   UNL     1      17.622   3.057  28.875  0.00  0.00    +0.210 HD
ENDBRANCH   9  19
BRANCH   7  21
ATOM     21  O   UNL     1      21.350   6.698  26.864  0.00  0.00    -0.343 OA
ATOM     22  C   UNL     1      22.033   6.384  28.104  0.00  0.00    +0.198 C 
ENDBRANCH   7  21
ENDBRANCH   4   5
BRANCH   4  23
ATOM     23  O   UNL     1      20.036   3.407  23.865  0.00  0.00    -0.387 OA
ATOM     24  H   UNL     1      20.015   2.610  23.330  0.00  0.00    +0.210 HD
ENDBRANCH   4  23
ENDBRANCH   1   4
BRANCH   1  25
ATOM     25  C   UNL     1      17.216   3.819  22.109  0.00  0.00    +0.141 C 
BRANCH  25  28
ATOM     26  C   UNL     1      18.020   1.582  21.436  0.00  0.00    +0.401 C 
ATOM     27  O   UNL     1      18.425   1.955  20.333  0.00  0.00    -0.226 OA
ATOM     28  N   UNL     1      17.436   2.384  22.327  0.00  0.00    -0.279 N 
ATOM     29  H   UNL     1      17.128   1.983  23.202  0.00  0.00    +0.152 HD
BRANCH  26  30
ATOM     30  O   UNL     1      18.170   0.208  21.803  0.00  0.00    -0.444 OA
BRANCH  30  31
ATOM     31  C   UNL     1      17.675   0.010  23.130  0.00  0.00    +0.292 C 
BRANCH  31  33
ATOM     32  N   UNL     1      17.976  -2.413  22.699  0.00  0.00    -0.131 NA
ATOM     33  C   UNL     1      17.297  -1.403  23.334  0.00  0.00    +0.120 A 
ATOM     34  C   UNL     1      16.308  -1.953  24.122  0.00  0.00    +0.137 A 
ATOM     35  N   UNL     1      16.432  -3.289  23.916  0.00  0.00    -0.249 N 
ATOM     36  N   UNL     1      17.446  -3.566  23.074  0.00  0.00    -0.065 NA
BRANCH  35  37
ATOM     37  C   UNL     1      15.633  -4.361  24.467  0.00  0.00    +0.178 C 
BRANCH  37  38
ATOM     38  C   UNL     1      15.584  -5.618  23.590  0.00  0.00    +0.161 C 
BRANCH  38  39
ATOM     39  O   UNL     1      15.334  -6.806  24.345  0.00  0.00    -0.388 OA
ATOM     40  H   UNL     1      14.386  -7.036  24.260  0.00  0.00    +0.210 HD
ENDBRANCH  38  39
BRANCH  38  41
ATOM     41  C   UNL     1      14.582  -5.520  22.432  0.00  0.00    +0.189 C 
BRANCH  41  42
ATOM     42  O   UNL     1      15.238  -5.215  21.202  0.00  0.00    -0.392 OA
ATOM     43  H   UNL     1      15.137  -5.981  20.605  0.00  0.00    +0.210 HD
ENDBRANCH  41  42
ENDBRANCH  38  41
ENDBRANCH  37  38
ENDBRANCH  35  37
ENDBRANCH  31  33
ENDBRANCH  30  31
ENDBRANCH  26  30
ENDBRANCH  25  28
ENDBRANCH   1  25
TORSDOF 18
