REMARK VINA RESULT:    -6.430     14.314     16.369
REMARK INTER + INTRA:         -14.101
REMARK INTER:                 -11.741
REMARK INTRA:                  -2.361
REMARK UNBOUND:                -2.597
REMARK  Name = lig_assembled_89.pdb
REMARK  19 active torsions:
REMARK  status: ('A' for Active; 'I' for Inactive)
REMARK    1  A    between atoms: _2  and  _12
REMARK    2  A    between atoms: _5  and  _20
REMARK    3  A    between atoms: _7  and  _29
REMARK    4  A    between atoms: _9  and  _10
REMARK    5  A    between atoms: _9  and  _29
REMARK    6  A    between atoms: _20  and  _21
REMARK    7  A    between atoms: _20  and  _22
REMARK    8  A    between atoms: _25  and  _45
REMARK    9  A    between atoms: _27  and  _33
REMARK   10  A    between atoms: _28  and  _32
REMARK   11  A    between atoms: _32  and  _33
REMARK   12  A    between atoms: _35  and  _36
REMARK   13  A    between atoms: _37  and  _38
REMARK   14  A    between atoms: _39  and  _41
REMARK   15  A    between atoms: _41  and  _42
REMARK   16  A    between atoms: _41  and  _43
REMARK   17  A    between atoms: _43  and  _44
REMARK   18  A    between atoms: _43  and  _45
REMARK   19  A    between atoms: _46  and  _48
REMARK                            x       y       z     vdW  Elec       q    Type
REMARK                         _______ _______ _______ _____ _____    ______ ____
ROOT
ATOM      1  C   UNL     1      20.456   9.908  26.434  0.00  0.00    +0.401 C 
ATOM      2  O   UNL     1      20.604  11.093  26.127  0.00  0.00    -0.226 OA
ATOM      3  N   UNL     1      19.420   9.442  27.132  0.00  0.00    -0.279 N 
ATOM      4  H   UNL     1      19.382   8.451  27.326  0.00  0.00    +0.152 HD
ENDROOT
BRANCH   3   5
ATOM      5  C   UNL     1      18.331  10.288  27.635  0.00  0.00    +0.141 C 
BRANCH   5   6
ATOM      6  C   UNL     1      18.404  10.469  29.148  0.00  0.00    +0.163 C 
BRANCH   6   7
ATOM      7  O   UNL     1      17.179  11.043  29.633  0.00  0.00    -0.388 OA
ATOM      8  H   UNL     1      17.026  10.756  30.537  0.00  0.00    +0.210 HD
ENDBRANCH   6   7
BRANCH   6   9
ATOM      9  C   UNL     1      18.677   9.110  29.815  0.00  0.00    +0.175 C 
BRANCH   9  10
ATOM     10  C   UNL     1      18.043   9.014  31.211  0.00  0.00    +0.176 C 
ATOM     11  O   UNL     1      18.352  10.241  31.928  0.00  0.00    -0.332 OA
ATOM     12  C   UNL     1      17.735  10.375  33.251  0.00  0.00    +0.277 C 
ATOM     13  C   UNL     1      18.081   9.152  34.135  0.00  0.00    +0.110 C 
ATOM     14  C   UNL     1      17.799   7.822  33.403  0.00  0.00    +0.143 C 
ATOM     15  C   UNL     1      18.485   7.792  32.037  0.00  0.00    +0.133 C 
BRANCH  15  16
ATOM     16  N   UNL     1      18.139   6.559  31.313  0.00  0.00    -0.308 N 
ATOM     17  H   UNL     1      17.184   6.446  31.004  0.00  0.00    +0.149 HD
ATOM     18  C   UNL     1      19.004   5.579  31.039  0.00  0.00    +0.210 C 
ATOM     19  C   UNL     1      20.446   5.769  31.547  0.00  0.00    +0.109 C 
ATOM     20  O   UNL     1      18.689   4.563  30.418  0.00  0.00    -0.276 OA
ENDBRANCH  15  16
BRANCH  12  21
ATOM     21  C   UNL     1      16.203  10.507  33.130  0.00  0.00    +0.414 C 
ATOM     22  O   UNL     1      15.705  11.088  32.166  0.00  0.00    -0.240 OA
ATOM     23  O   UNL     1      15.465  10.032  33.994  0.00  0.00    -0.240 OA
ENDBRANCH  12  21
BRANCH  14  24
ATOM     24  O   UNL     1      18.272   6.729  34.191  0.00  0.00    -0.390 OA
ATOM     25  H   UNL     1      18.248   5.924  33.669  0.00  0.00    +0.210 HD
ENDBRANCH  14  24
BRANCH  12  26
ATOM     26  O   UNL     1      18.279  11.563  33.881  0.00  0.00    -0.343 OA
ATOM     27  C   UNL     1      19.607  11.406  34.442  0.00  0.00    +0.198 C 
ENDBRANCH  12  26
ENDBRANCH   9  10
BRANCH   9  28
ATOM     28  O   UNL     1      20.096   8.874  29.897  0.00  0.00    -0.387 OA
ATOM     29  H   UNL     1      20.452   9.324  30.667  0.00  0.00    +0.210 HD
ENDBRANCH   9  28
ENDBRANCH   6   9
ENDBRANCH   5   6
ENDBRANCH   3   5
BRANCH   1  30
ATOM     30  O   UNL     1      21.441   8.956  26.023  0.00  0.00    -0.444 OA
BRANCH  30  31
ATOM     31  C   UNL     1      21.036   8.350  24.792  0.00  0.00    +0.292 C 
BRANCH  31  33
ATOM     32  N   UNL     1      21.876   6.033  24.756  0.00  0.00    -0.131 NA
ATOM     33  C   UNL     1      20.848   6.901  24.976  0.00  0.00    +0.121 A 
ATOM     34  C   UNL     1      19.743   6.193  25.382  0.00  0.00    +0.145 A 
ATOM     35  N   UNL     1      20.152   4.873  25.423  0.00  0.00    -0.199 N 
ATOM     36  N   UNL     1      21.448   4.809  25.037  0.00  0.00    -0.059 NA
BRANCH  35  37
ATOM     37  C   UNL     1      19.374   3.774  25.890  0.00  0.00    +0.186 A 
ATOM     38  C   UNL     1      18.620   2.862  25.181  0.00  0.00    +0.158 A 
ATOM     39  C   UNL     1      18.248   2.759  23.803  0.00  0.00    +0.280 A 
ATOM     40  O   UNL     1      18.283   3.716  23.041  0.00  0.00    -0.265 OA
ATOM     41  N   UNL     1      17.806   1.485  23.394  0.00  0.00    -0.302 N 
ATOM     42  C   UNL     1      17.330   0.532  24.372  0.00  0.00    +0.069 A 
ATOM     43  C   UNL     1      16.627  -0.629  24.020  0.00  0.00    +0.028 A 
ATOM     44  C   UNL     1      16.136  -1.505  24.998  0.00  0.00    +0.002 A 
ATOM     45  C   UNL     1      16.344  -1.247  26.348  0.00  0.00    +0.002 A 
ATOM     46  C   UNL     1      17.049  -0.111  26.732  0.00  0.00    +0.028 A 
ATOM     47  C   UNL     1      17.526   0.770  25.750  0.00  0.00    +0.072 A 
ATOM     48  N   UNL     1      18.234   1.929  26.106  0.00  0.00    -0.291 N 
ATOM     49  C   UNL     1      18.664   2.366  27.332  0.00  0.00    +0.207 A 
ATOM     50  N   UNL     1      19.369   3.474  27.240  0.00  0.00    -0.216 NA
BRANCH  41  51
ATOM     51  C   UNL     1      17.650   1.239  21.941  0.00  0.00    +0.085 C 
ATOM     52  C   UNL     1      18.987   1.041  21.199  0.00  0.00    +0.030 C 
ATOM     53  C   UNL     1      16.820   2.329  21.265  0.00  0.00    +0.030 C 
ENDBRANCH  41  51
ENDBRANCH  35  37
ENDBRANCH  31  33
ENDBRANCH  30  31
ENDBRANCH   1  30
TORSDOF 15
