REMARK VINA RESULT:    -7.051      1.528      3.595
REMARK INTER + INTRA:         -14.032
REMARK INTER:                 -12.627
REMARK INTRA:                  -1.404
REMARK UNBOUND:                -1.828
REMARK  Name = lig_assembled_70.pdb
REMARK  16 active torsions:
REMARK  status: ('A' for Active; 'I' for Inactive)
REMARK    1  A    between atoms: _2  and  _10
REMARK    2  A    between atoms: _5  and  _22
REMARK    3  A    between atoms: _7  and  _8
REMARK    4  A    between atoms: _7  and  _22
REMARK    5  A    between atoms: _18  and  _38
REMARK    6  A    between atoms: _20  and  _26
REMARK    7  A    between atoms: _21  and  _25
REMARK    8  A    between atoms: _25  and  _26
REMARK    9  A    between atoms: _28  and  _29
REMARK   10  A    between atoms: _30  and  _31
REMARK   11  A    between atoms: _32  and  _34
REMARK   12  A    between atoms: _34  and  _35
REMARK   13  A    between atoms: _34  and  _36
REMARK   14  A    between atoms: _36  and  _37
REMARK   15  A    between atoms: _36  and  _38
REMARK   16  A    between atoms: _39  and  _41
REMARK                            x       y       z     vdW  Elec       q    Type
REMARK                         _______ _______ _______ _____ _____    ______ ____
ROOT
ATOM      1  C   UNL     1       2.703   3.171  33.479  0.00  0.00    +0.163 C 
ENDROOT
BRANCH   1   2
ATOM      2  O   UNL     1       2.713   1.747  33.672  0.00  0.00    -0.388 OA
ATOM      3  H   UNL     1       3.491   1.373  33.254  0.00  0.00    +0.210 HD
ENDBRANCH   1   2
BRANCH   1   4
ATOM      4  C   UNL     1       2.971   3.502  32.015  0.00  0.00    +0.141 C 
BRANCH   4   7
ATOM      5  C   UNL     1       0.896   3.989  30.764  0.00  0.00    +0.401 C 
ATOM      6  O   UNL     1       0.866   5.178  31.092  0.00  0.00    -0.226 OA
ATOM      7  N   UNL     1       1.840   3.132  31.154  0.00  0.00    -0.279 N 
ATOM      8  H   UNL     1       1.774   2.174  30.841  0.00  0.00    +0.152 HD
BRANCH   5   9
ATOM      9  O   UNL     1      -0.136   3.476  29.917  0.00  0.00    -0.444 OA
BRANCH   9  10
ATOM     10  C   UNL     1       0.390   2.419  29.110  0.00  0.00    +0.292 C 
BRANCH  10  12
ATOM     11  N   UNL     1       2.179   3.641  27.906  0.00  0.00    -0.131 NA
ATOM     12  C   UNL     1       0.995   2.961  27.880  0.00  0.00    +0.121 A 
ATOM     13  C   UNL     1       0.542   2.902  26.583  0.00  0.00    +0.143 A 
ATOM     14  N   UNL     1       1.499   3.554  25.840  0.00  0.00    -0.218 N 
ATOM     15  N   UNL     1       2.475   4.004  26.663  0.00  0.00    -0.060 NA
BRANCH  14  16
ATOM     16  C   UNL     1       1.545   3.743  24.443  0.00  0.00    +0.086 A 
ATOM     17  C   UNL     1       1.542   5.020  23.907  0.00  0.00    +0.139 A 
ATOM     18  N   UNL     1       1.630   5.276  22.576  0.00  0.00    -0.253 NA
ATOM     19  C   UNL     1       1.735   4.233  21.731  0.00  0.00    +0.071 A 
ATOM     20  C   UNL     1       1.730   2.898  22.186  0.00  0.00    +0.002 A 
ATOM     21  C   UNL     1       1.842   1.833  21.274  0.00  0.00    +0.010 A 
ATOM     22  C   UNL     1       1.980   2.087  19.912  0.00  0.00    +0.001 A 
ATOM     23  C   UNL     1       1.994   3.401  19.459  0.00  0.00    +0.002 A 
ATOM     24  C   UNL     1       1.865   4.456  20.367  0.00  0.00    +0.028 A 
ATOM     25  C   UNL     1       1.624   2.664  23.562  0.00  0.00    +0.039 A 
ENDBRANCH  14  16
ENDBRANCH  10  12
ENDBRANCH   9  10
ENDBRANCH   5   9
ENDBRANCH   4   7
ENDBRANCH   1   4
BRANCH   1  26
ATOM     26  C   UNL     1       3.762   3.854  34.362  0.00  0.00    +0.175 C 
BRANCH  26  27
ATOM     27  C   UNL     1       5.179   3.345  34.061  0.00  0.00    +0.176 C 
ATOM     28  O   UNL     1       5.284   1.986  34.566  0.00  0.00    -0.332 OA
ATOM     29  C   UNL     1       6.543   1.296  34.273  0.00  0.00    +0.277 C 
ATOM     30  C   UNL     1       7.747   2.132  34.770  0.00  0.00    +0.110 C 
ATOM     31  C   UNL     1       7.664   3.595  34.285  0.00  0.00    +0.143 C 
ATOM     32  C   UNL     1       6.312   4.214  34.639  0.00  0.00    +0.133 C 
BRANCH  32  33
ATOM     33  N   UNL     1       6.211   5.578  34.095  0.00  0.00    -0.308 N 
ATOM     34  H   UNL     1       6.211   5.686  33.091  0.00  0.00    +0.149 HD
ATOM     35  C   UNL     1       6.121   6.682  34.842  0.00  0.00    +0.210 C 
ATOM     36  C   UNL     1       6.151   6.485  36.370  0.00  0.00    +0.109 C 
ATOM     37  O   UNL     1       6.023   7.810  34.359  0.00  0.00    -0.276 OA
ENDBRANCH  32  33
BRANCH  29  38
ATOM     38  C   UNL     1       6.686   1.037  32.759  0.00  0.00    +0.414 C 
ATOM     39  O   UNL     1       5.879   1.524  31.968  0.00  0.00    -0.240 OA
ATOM     40  O   UNL     1       7.606   0.341  32.328  0.00  0.00    -0.240 OA
ENDBRANCH  29  38
BRANCH  31  41
ATOM     41  O   UNL     1       8.706   4.363  34.887  0.00  0.00    -0.390 OA
ATOM     42  H   UNL     1       9.529   4.211  34.417  0.00  0.00    +0.210 HD
ENDBRANCH  31  41
BRANCH  29  43
ATOM     43  O   UNL     1       6.539   0.032  34.986  0.00  0.00    -0.343 OA
ATOM     44  C   UNL     1       7.018   0.099  36.353  0.00  0.00    +0.198 C 
ENDBRANCH  29  43
ENDBRANCH  26  27
BRANCH  26  45
ATOM     45  O   UNL     1       3.449   3.656  35.756  0.00  0.00    -0.387 OA
ATOM     46  H   UNL     1       4.157   4.013  36.297  0.00  0.00    +0.210 HD
ENDBRANCH  26  45
ENDBRANCH   1  26
TORSDOF 14
