REMARK VINA RESULT:    -6.818      4.854      9.850
REMARK INTER + INTRA:         -14.735
REMARK INTER:                 -12.340
REMARK INTRA:                  -2.395
REMARK UNBOUND:                -2.138
REMARK  Name = lig_assembled_92.pdb
REMARK  18 active torsions:
REMARK  status: ('A' for Active; 'I' for Inactive)
REMARK    1  A    between atoms: _2  and  _11
REMARK    2  A    between atoms: _3  and  _46
REMARK    3  A    between atoms: _6  and  _25
REMARK    4  A    between atoms: _8  and  _9
REMARK    5  A    between atoms: _8  and  _25
REMARK    6  A    between atoms: _14  and  _46
REMARK    7  A    between atoms: _21  and  _41
REMARK    8  A    between atoms: _23  and  _29
REMARK    9  A    between atoms: _24  and  _28
REMARK   10  A    between atoms: _28  and  _29
REMARK   11  A    between atoms: _31  and  _32
REMARK   12  A    between atoms: _33  and  _34
REMARK   13  A    between atoms: _35  and  _37
REMARK   14  A    between atoms: _37  and  _38
REMARK   15  A    between atoms: _37  and  _39
REMARK   16  A    between atoms: _39  and  _40
REMARK   17  A    between atoms: _39  and  _41
REMARK   18  A    between atoms: _42  and  _44
REMARK                            x       y       z     vdW  Elec       q    Type
REMARK                         _______ _______ _______ _____ _____    ______ ____
ROOT
ATOM      1  C   UNL     1      18.249   1.682  21.562  0.00  0.00    +0.401 C 
ATOM      2  O   UNL     1      18.403   1.768  20.341  0.00  0.00    -0.226 OA
ATOM      3  N   UNL     1      18.317   0.538  22.244  0.00  0.00    -0.279 N 
ATOM      4  H   UNL     1      18.186   0.571  23.245  0.00  0.00    +0.152 HD
ENDROOT
BRANCH   3   5
ATOM      5  C   UNL     1      18.570  -0.767  21.621  0.00  0.00    +0.141 C 
BRANCH   5   6
ATOM      6  C   UNL     1      19.468  -1.645  22.486  0.00  0.00    +0.163 C 
BRANCH   6   7
ATOM      7  O   UNL     1      20.169  -0.837  23.445  0.00  0.00    -0.388 OA
ATOM      8  H   UNL     1      20.356   0.024  23.064  0.00  0.00    +0.210 HD
ENDBRANCH   6   7
BRANCH   6   9
ATOM      9  C   UNL     1      18.616  -2.717  23.188  0.00  0.00    +0.175 C 
BRANCH   9  10
ATOM     10  C   UNL     1      17.872  -2.156  24.409  0.00  0.00    +0.176 C 
ATOM     11  O   UNL     1      18.833  -2.013  25.491  0.00  0.00    -0.332 OA
ATOM     12  C   UNL     1      18.322  -1.387  26.714  0.00  0.00    +0.277 C 
ATOM     13  C   UNL     1      17.069  -2.139  27.224  0.00  0.00    +0.110 C 
ATOM     14  C   UNL     1      16.031  -2.343  26.100  0.00  0.00    +0.143 C 
ATOM     15  C   UNL     1      16.670  -2.998  24.875  0.00  0.00    +0.133 C 
BRANCH  15  16
ATOM     16  N   UNL     1      15.693  -3.108  23.781  0.00  0.00    -0.308 N 
ATOM     17  H   UNL     1      15.235  -2.262  23.471  0.00  0.00    +0.149 HD
ATOM     18  C   UNL     1      15.372  -4.252  23.171  0.00  0.00    +0.210 C 
ATOM     19  C   UNL     1      16.067  -5.527  23.684  0.00  0.00    +0.109 C 
ATOM     20  O   UNL     1      14.560  -4.312  22.246  0.00  0.00    -0.276 OA
ENDBRANCH  15  16
BRANCH  12  21
ATOM     21  C   UNL     1      17.969   0.094  26.465  0.00  0.00    +0.414 C 
ATOM     22  O   UNL     1      18.389   0.672  25.463  0.00  0.00    -0.240 OA
ATOM     23  O   UNL     1      17.263   0.711  27.264  0.00  0.00    -0.240 OA
ENDBRANCH  12  21
BRANCH  14  24
ATOM     24  O   UNL     1      14.965  -3.169  26.573  0.00  0.00    -0.390 OA
ATOM     25  H   UNL     1      14.529  -2.738  27.311  0.00  0.00    +0.210 HD
ENDBRANCH  14  24
BRANCH  12  26
ATOM     26  O   UNL     1      19.355  -1.478  27.730  0.00  0.00    -0.343 OA
ATOM     27  C   UNL     1      18.949  -2.133  28.958  0.00  0.00    +0.198 C 
ENDBRANCH  12  26
ENDBRANCH   9  10
BRANCH   9  28
ATOM     28  O   UNL     1      19.442  -3.831  23.579  0.00  0.00    -0.387 OA
ATOM     29  H   UNL     1      20.320  -3.515  23.806  0.00  0.00    +0.210 HD
ENDBRANCH   9  28
ENDBRANCH   6   9
ENDBRANCH   5   6
ENDBRANCH   3   5
BRANCH   1  30
ATOM     30  O   UNL     1      17.985   2.870  22.313  0.00  0.00    -0.444 OA
BRANCH  30  31
ATOM     31  C   UNL     1      18.979   3.022  23.331  0.00  0.00    +0.292 C 
BRANCH  31  33
ATOM     32  N   UNL     1      18.341   5.417  23.302  0.00  0.00    -0.131 NA
ATOM     33  C   UNL     1      18.862   4.347  23.969  0.00  0.00    +0.121 A 
ATOM     34  C   UNL     1      19.207   4.736  25.242  0.00  0.00    +0.143 A 
ATOM     35  N   UNL     1      18.848   6.062  25.319  0.00  0.00    -0.220 N 
ATOM     36  N   UNL     1      18.342   6.458  24.127  0.00  0.00    -0.060 NA
BRANCH  35  37
ATOM     37  C   UNL     1      18.925   6.931  26.437  0.00  0.00    +0.067 A 
ATOM     38  C   UNL     1      18.984   6.410  27.739  0.00  0.00    +0.030 A 
ATOM     39  C   UNL     1      19.000   7.268  28.837  0.00  0.00    +0.031 A 
ATOM     40  C   UNL     1      18.970   8.649  28.641  0.00  0.00    +0.109 A 
ATOM     41  C   UNL     1      18.922   9.184  27.351  0.00  0.00    +0.031 A 
ATOM     42  C   UNL     1      18.910   8.323  26.247  0.00  0.00    +0.030 A 
BRANCH  40  43
ATOM     43  S   UNL     1      18.838   9.703  30.061  0.00  0.00    +0.074 S 
ATOM     44  O   UNL     1      20.089  10.425  30.188  0.00  0.00    -0.150 OA
ATOM     45  O   UNL     1      17.589  10.424  29.986  0.00  0.00    -0.150 OA
BRANCH  43  46
ATOM     46  N   UNL     1      18.825   8.618  31.356  0.00  0.00    -0.194 N 
ATOM     47  H   UNL     1      19.689   8.777  31.867  0.00  0.00    +0.176 HD
ATOM     48  C   UNL     1      17.668   8.754  32.151  0.00  0.00    +0.177 A 
ATOM     49  S   UNL     1      17.644   9.663  33.598  0.00  0.00    -0.059 S 
ATOM     50  C   UNL     1      16.027   9.152  33.864  0.00  0.00    +0.068 A 
ATOM     51  C   UNL     1      15.656   8.267  32.873  0.00  0.00    +0.120 A 
ATOM     52  N   UNL     1      16.589   8.065  31.873  0.00  0.00    -0.232 NA
ENDBRANCH  43  46
ENDBRANCH  40  43
ENDBRANCH  35  37
ENDBRANCH  31  33
ENDBRANCH  30  31
ENDBRANCH   1  30
TORSDOF 16
