REMARK VINA RESULT:    -5.846      1.715      3.786
REMARK INTER + INTRA:         -13.713
REMARK INTER:                 -11.497
REMARK INTRA:                  -2.216
REMARK UNBOUND:                -2.569
REMARK  Name = lig_assembled_18.pdb
REMARK  19 active torsions:
REMARK  status: ('A' for Active; 'I' for Inactive)
REMARK    1  A    between atoms: _2  and  _10
REMARK    2  A    between atoms: _3  and  _12
REMARK    3  A    between atoms: _5  and  _21
REMARK    4  A    between atoms: _7  and  _8
REMARK    5  A    between atoms: _7  and  _21
REMARK    6  A    between atoms: _10  and  _11
REMARK    7  A    between atoms: _12  and  _13
REMARK    8  A    between atoms: _17  and  _37
REMARK    9  A    between atoms: _19  and  _25
REMARK   10  A    between atoms: _20  and  _24
REMARK   11  A    between atoms: _24  and  _25
REMARK   12  A    between atoms: _27  and  _28
REMARK   13  A    between atoms: _29  and  _30
REMARK   14  A    between atoms: _31  and  _33
REMARK   15  A    between atoms: _33  and  _34
REMARK   16  A    between atoms: _33  and  _35
REMARK   17  A    between atoms: _35  and  _36
REMARK   18  A    between atoms: _35  and  _37
REMARK   19  A    between atoms: _38  and  _40
REMARK                            x       y       z     vdW  Elec       q    Type
REMARK                         _______ _______ _______ _____ _____    ______ ____
ROOT
ATOM      1  C   UNL     1       7.639   2.009  32.884  0.00  0.00    +0.163 C 
ENDROOT
BRANCH   1   2
ATOM      2  O   UNL     1       7.302   3.167  32.103  0.00  0.00    -0.388 OA
ATOM      3  H   UNL     1       7.228   3.932  32.679  0.00  0.00    +0.210 HD
ENDBRANCH   1   2
BRANCH   1   4
ATOM      4  C   UNL     1       8.315   2.415  34.205  0.00  0.00    +0.175 C 
BRANCH   4   5
ATOM      5  C   UNL     1       7.517   3.491  34.956  0.00  0.00    +0.176 C 
ATOM      6  O   UNL     1       7.579   4.718  34.178  0.00  0.00    -0.332 OA
ATOM      7  C   UNL     1       6.781   5.835  34.691  0.00  0.00    +0.277 C 
ATOM      8  C   UNL     1       7.149   6.131  36.166  0.00  0.00    +0.110 C 
ATOM      9  C   UNL     1       7.127   4.851  37.026  0.00  0.00    +0.143 C 
ATOM     10  C   UNL     1       7.988   3.754  36.399  0.00  0.00    +0.133 C 
BRANCH  10  11
ATOM     11  N   UNL     1       7.890   2.511  37.181  0.00  0.00    -0.308 N 
ATOM     12  H   UNL     1       6.978   2.087  37.281  0.00  0.00    +0.149 HD
ATOM     13  C   UNL     1       8.927   1.907  37.767  0.00  0.00    +0.210 C 
ATOM     14  C   UNL     1      10.299   2.592  37.618  0.00  0.00    +0.109 C 
ATOM     15  O   UNL     1       8.818   0.859  38.404  0.00  0.00    -0.276 OA
ENDBRANCH  10  11
BRANCH   7  16
ATOM     16  C   UNL     1       5.273   5.523  34.589  0.00  0.00    +0.414 C 
ATOM     17  O   UNL     1       4.846   4.823  33.672  0.00  0.00    -0.240 OA
ATOM     18  O   UNL     1       4.485   5.969  35.423  0.00  0.00    -0.240 OA
ENDBRANCH   7  16
BRANCH   7  19
ATOM     19  O   UNL     1       7.090   7.010  33.898  0.00  0.00    -0.343 OA
ATOM     20  C   UNL     1       7.543   8.160  34.657  0.00  0.00    +0.198 C 
ENDBRANCH   7  19
BRANCH   9  21
ATOM     21  O   UNL     1       7.617   5.142  38.336  0.00  0.00    -0.390 OA
ATOM     22  H   UNL     1       8.035   6.006  38.337  0.00  0.00    +0.210 HD
ENDBRANCH   9  21
ENDBRANCH   4   5
BRANCH   4  23
ATOM     23  O   UNL     1       9.658   2.877  33.955  0.00  0.00    -0.387 OA
ATOM     24  H   UNL     1       9.935   2.595  33.080  0.00  0.00    +0.210 HD
ENDBRANCH   4  23
ENDBRANCH   1   4
BRANCH   1  25
ATOM     25  C   UNL     1       6.383   1.197  33.183  0.00  0.00    +0.141 C 
BRANCH  25  28
ATOM     26  C   UNL     1       3.940   1.499  32.969  0.00  0.00    +0.401 C 
ATOM     27  O   UNL     1       3.666   0.656  33.827  0.00  0.00    -0.226 OA
ATOM     28  N   UNL     1       5.183   1.811  32.601  0.00  0.00    -0.279 N 
ATOM     29  H   UNL     1       5.306   2.509  31.881  0.00  0.00    +0.152 HD
BRANCH  26  30
ATOM     30  O   UNL     1       2.876   2.193  32.313  0.00  0.00    -0.444 OA
BRANCH  30  31
ATOM     31  C   UNL     1       3.353   2.744  31.083  0.00  0.00    +0.292 C 
BRANCH  31  33
ATOM     32  N   UNL     1       1.316   4.054  30.552  0.00  0.00    -0.131 NA
ATOM     33  C   UNL     1       2.220   3.087  30.201  0.00  0.00    +0.120 A 
ATOM     34  C   UNL     1       1.870   2.568  28.976  0.00  0.00    +0.137 A 
ATOM     35  N   UNL     1       0.762   3.278  28.619  0.00  0.00    -0.242 N 
ATOM     36  N   UNL     1       0.418   4.156  29.580  0.00  0.00    -0.065 NA
BRANCH  35  37
ATOM     37  C   UNL     1      -0.086   3.106  27.463  0.00  0.00    +0.240 C 
BRANCH  37  38
ATOM     38  C   UNL     1       0.291   4.038  26.334  0.00  0.00    +0.235 C 
ATOM     39  O   UNL     1      -0.324   5.079  26.112  0.00  0.00    -0.274 OA
ATOM     40  N   UNL     1       1.406   3.663  25.611  0.00  0.00    -0.309 N 
ATOM     41  H   UNL     1       1.784   2.731  25.707  0.00  0.00    +0.149 HD
BRANCH  40  42
ATOM     42  C   UNL     1       1.896   4.464  24.509  0.00  0.00    +0.146 C 
BRANCH  42  43
ATOM     43  C   UNL     1       1.884   3.653  23.253  0.00  0.00    +0.007 A 
ATOM     44  S   UNL     1       1.605   4.396  21.734  0.00  0.00    -0.100 S 
ATOM     45  C   UNL     1       1.679   2.897  20.915  0.00  0.00    +0.045 A 
ATOM     46  C   UNL     1       1.927   1.848  21.773  0.00  0.00    +0.008 A 
ATOM     47  C   UNL     1       2.053   2.287  23.123  0.00  0.00    +0.013 A 
ENDBRANCH  42  43
ENDBRANCH  40  42
ENDBRANCH  37  38
ENDBRANCH  35  37
ENDBRANCH  31  33
ENDBRANCH  30  31
ENDBRANCH  26  30
ENDBRANCH  25  28
ENDBRANCH   1  25
TORSDOF 17
