REMARK VINA RESULT:    -5.878     13.109     15.380
REMARK INTER + INTRA:         -13.774
REMARK INTER:                 -11.105
REMARK INTRA:                  -2.669
REMARK UNBOUND:                -2.569
REMARK  Name = lig_assembled_18.pdb
REMARK  19 active torsions:
REMARK  status: ('A' for Active; 'I' for Inactive)
REMARK    1  A    between atoms: _2  and  _10
REMARK    2  A    between atoms: _3  and  _12
REMARK    3  A    between atoms: _5  and  _21
REMARK    4  A    between atoms: _7  and  _8
REMARK    5  A    between atoms: _7  and  _21
REMARK    6  A    between atoms: _10  and  _11
REMARK    7  A    between atoms: _12  and  _13
REMARK    8  A    between atoms: _17  and  _37
REMARK    9  A    between atoms: _19  and  _25
REMARK   10  A    between atoms: _20  and  _24
REMARK   11  A    between atoms: _24  and  _25
REMARK   12  A    between atoms: _27  and  _28
REMARK   13  A    between atoms: _29  and  _30
REMARK   14  A    between atoms: _31  and  _33
REMARK   15  A    between atoms: _33  and  _34
REMARK   16  A    between atoms: _33  and  _35
REMARK   17  A    between atoms: _35  and  _36
REMARK   18  A    between atoms: _35  and  _37
REMARK   19  A    between atoms: _38  and  _40
REMARK                            x       y       z     vdW  Elec       q    Type
REMARK                         _______ _______ _______ _____ _____    ______ ____
ROOT
ATOM      1  C   UNL     1      18.494  10.252  30.192  0.00  0.00    +0.163 C 
ENDROOT
BRANCH   1   2
ATOM      2  O   UNL     1      17.142  10.569  30.561  0.00  0.00    -0.388 OA
ATOM      3  H   UNL     1      16.534  10.055  30.025  0.00  0.00    +0.210 HD
ENDBRANCH   1   2
BRANCH   1   4
ATOM      4  C   UNL     1      18.732   8.732  30.231  0.00  0.00    +0.175 C 
BRANCH   4   5
ATOM      5  C   UNL     1      17.958   8.055  31.371  0.00  0.00    +0.176 C 
ATOM      6  O   UNL     1      18.006   8.934  32.529  0.00  0.00    -0.332 OA
ATOM      7  C   UNL     1      17.225   8.497  33.690  0.00  0.00    +0.277 C 
ATOM      8  C   UNL     1      17.630   7.061  34.105  0.00  0.00    +0.110 C 
ATOM      9  C   UNL     1      17.624   6.097  32.901  0.00  0.00    +0.143 C 
ATOM     10  C   UNL     1      18.465   6.651  31.750  0.00  0.00    +0.133 C 
BRANCH  10  11
ATOM     11  N   UNL     1      18.381   5.766  30.577  0.00  0.00    -0.308 N 
ATOM     12  H   UNL     1      17.503   5.725  30.079  0.00  0.00    +0.149 HD
ATOM     13  C   UNL     1      19.389   5.012  30.130  0.00  0.00    +0.210 C 
ATOM     14  C   UNL     1      20.705   5.075  30.928  0.00  0.00    +0.109 C 
ATOM     15  O   UNL     1      19.294   4.290  29.136  0.00  0.00    -0.276 OA
ENDBRANCH  10  11
BRANCH   7  16
ATOM     16  C   UNL     1      15.714   8.536  33.379  0.00  0.00    +0.414 C 
ATOM     17  O   UNL     1      14.959   7.695  33.864  0.00  0.00    -0.240 OA
ATOM     18  O   UNL     1      15.251   9.409  32.643  0.00  0.00    -0.240 OA
ENDBRANCH   7  16
BRANCH   7  19
ATOM     19  O   UNL     1      17.520   9.393  34.792  0.00  0.00    -0.343 OA
ATOM     20  C   UNL     1      18.229  10.603  34.425  0.00  0.00    +0.198 C 
ENDBRANCH   7  19
BRANCH   9  21
ATOM     21  O   UNL     1      18.147   4.828  33.297  0.00  0.00    -0.390 OA
ATOM     22  H   UNL     1      18.429   4.870  34.214  0.00  0.00    +0.210 HD
ENDBRANCH   9  21
ENDBRANCH   4   5
BRANCH   4  23
ATOM     23  O   UNL     1      20.141   8.454  30.354  0.00  0.00    -0.387 OA
ATOM     24  H   UNL     1      20.396   8.493  31.279  0.00  0.00    +0.210 HD
ENDBRANCH   4  23
ENDBRANCH   1   4
BRANCH   1  25
ATOM     25  C   UNL     1      18.790  10.778  28.792  0.00  0.00    +0.141 C 
BRANCH  25  28
ATOM     26  C   UNL     1      19.728   9.791  26.730  0.00  0.00    +0.401 C 
ATOM     27  O   UNL     1      20.339  10.813  26.406  0.00  0.00    -0.226 OA
ATOM     28  N   UNL     1      18.975   9.688  27.825  0.00  0.00    -0.279 N 
ATOM     29  H   UNL     1      18.505   8.812  28.000  0.00  0.00    +0.152 HD
BRANCH  26  30
ATOM     30  O   UNL     1      19.815   8.636  25.892  0.00  0.00    -0.444 OA
BRANCH  30  31
ATOM     31  C   UNL     1      18.727   7.754  26.180  0.00  0.00    +0.292 C 
BRANCH  31  33
ATOM     32  N   UNL     1      18.125   6.969  23.907  0.00  0.00    -0.131 NA
ATOM     33  C   UNL     1      18.632   6.701  25.151  0.00  0.00    +0.120 A 
ATOM     34  C   UNL     1      18.992   5.375  25.212  0.00  0.00    +0.137 A 
ATOM     35  N   UNL     1      18.708   4.895  23.968  0.00  0.00    -0.242 N 
ATOM     36  N   UNL     1      18.165   5.852  23.192  0.00  0.00    -0.065 NA
BRANCH  35  37
ATOM     37  C   UNL     1      18.804   3.540  23.480  0.00  0.00    +0.240 C 
BRANCH  37  38
ATOM     38  C   UNL     1      17.530   2.759  23.702  0.00  0.00    +0.235 C 
ATOM     39  O   UNL     1      16.552   2.881  22.967  0.00  0.00    -0.274 OA
ATOM     40  N   UNL     1      17.566   1.861  24.750  0.00  0.00    -0.309 N 
ATOM     41  H   UNL     1      18.312   1.903  25.429  0.00  0.00    +0.149 HD
BRANCH  40  42
ATOM     42  C   UNL     1      16.424   1.031  25.074  0.00  0.00    +0.146 C 
BRANCH  42  43
ATOM     43  C   UNL     1      16.729  -0.394  24.740  0.00  0.00    +0.007 A 
ATOM     44  S   UNL     1      16.523  -1.630  25.908  0.00  0.00    -0.100 S 
ATOM     45  C   UNL     1      17.103  -2.830  24.837  0.00  0.00    +0.045 A 
ATOM     46  C   UNL     1      17.434  -2.309  23.605  0.00  0.00    +0.008 A 
ATOM     47  C   UNL     1      17.210  -0.903  23.548  0.00  0.00    +0.013 A 
ENDBRANCH  42  43
ENDBRANCH  40  42
ENDBRANCH  37  38
ENDBRANCH  35  37
ENDBRANCH  31  33
ENDBRANCH  30  31
ENDBRANCH  26  30
ENDBRANCH  25  28
ENDBRANCH   1  25
TORSDOF 17
