REMARK VINA RESULT:    -6.446      1.437      1.798
REMARK INTER + INTRA:         -13.570
REMARK INTER:                 -12.112
REMARK INTRA:                  -1.458
REMARK UNBOUND:                -2.413
REMARK  Name = lig_assembled_8.pdb
REMARK  16 active torsions:
REMARK  status: ('A' for Active; 'I' for Inactive)
REMARK    1  A    between atoms: _2  and  _9
REMARK    2  A    between atoms: _4  and  _18
REMARK    3  A    between atoms: _6  and  _7
REMARK    4  A    between atoms: _6  and  _18
REMARK    5  A    between atoms: _14  and  _34
REMARK    6  A    between atoms: _16  and  _22
REMARK    7  A    between atoms: _17  and  _21
REMARK    8  A    between atoms: _21  and  _22
REMARK    9  A    between atoms: _24  and  _25
REMARK   10  A    between atoms: _26  and  _27
REMARK   11  A    between atoms: _28  and  _30
REMARK   12  A    between atoms: _30  and  _31
REMARK   13  A    between atoms: _30  and  _32
REMARK   14  A    between atoms: _32  and  _33
REMARK   15  A    between atoms: _32  and  _34
REMARK   16  A    between atoms: _35  and  _37
REMARK                            x       y       z     vdW  Elec       q    Type
REMARK                         _______ _______ _______ _____ _____    ______ ____
ROOT
ATOM      1  C   UNL     1       5.780   2.035  32.887  0.00  0.00    +0.163 C 
ENDROOT
BRANCH   1   2
ATOM      2  O   UNL     1       5.879   1.155  31.756  0.00  0.00    -0.388 OA
ATOM      3  H   UNL     1       5.006   1.015  31.381  0.00  0.00    +0.210 HD
ENDBRANCH   1   2
BRANCH   1   4
ATOM      4  C   UNL     1       4.632   3.018  32.684  0.00  0.00    +0.141 C 
BRANCH   4   7
ATOM      5  C   UNL     1       2.962   2.630  30.904  0.00  0.00    +0.401 C 
ATOM      6  O   UNL     1       2.110   2.178  31.672  0.00  0.00    -0.226 OA
ATOM      7  N   UNL     1       4.171   3.041  31.290  0.00  0.00    -0.279 N 
ATOM      8  H   UNL     1       4.805   3.388  30.584  0.00  0.00    +0.152 HD
BRANCH   5   9
ATOM      9  O   UNL     1       2.660   2.725  29.510  0.00  0.00    -0.444 OA
BRANCH   9  10
ATOM     10  C   UNL     1       1.315   3.182  29.342  0.00  0.00    +0.292 C 
BRANCH  10  12
ATOM     11  N   UNL     1      -0.299   3.126  27.477  0.00  0.00    -0.131 NA
ATOM     12  C   UNL     1       0.981   3.271  27.909  0.00  0.00    +0.121 A 
ATOM     13  C   UNL     1       1.794   3.501  26.823  0.00  0.00    +0.143 A 
ATOM     14  N   UNL     1       0.950   3.512  25.725  0.00  0.00    -0.219 N 
ATOM     15  N   UNL     1      -0.306   3.267  26.160  0.00  0.00    -0.060 NA
BRANCH  14  16
ATOM     16  C   UNL     1       1.288   3.751  24.357  0.00  0.00    +0.081 A 
ATOM     17  C   UNL     1       1.307   5.088  23.901  0.00  0.00    +0.029 A 
ATOM     18  C   UNL     1       1.605   5.405  22.573  0.00  0.00    +0.002 A 
ATOM     19  C   UNL     1       1.892   4.395  21.667  0.00  0.00    +0.001 A 
ATOM     20  C   UNL     1       1.887   3.070  22.094  0.00  0.00    +0.017 A 
ATOM     21  C   UNL     1       1.591   2.734  23.429  0.00  0.00    +0.043 A 
ATOM     22 BR   UNL     1       1.653   0.860  23.773  0.00  0.00    -0.048 Br
ENDBRANCH  14  16
ENDBRANCH  10  12
ENDBRANCH   9  10
ENDBRANCH   5   9
ENDBRANCH   4   7
ENDBRANCH   1   4
BRANCH   1  23
ATOM     23  C   UNL     1       7.091   2.813  33.095  0.00  0.00    +0.175 C 
BRANCH  23  24
ATOM     24  C   UNL     1       7.052   3.684  34.359  0.00  0.00    +0.176 C 
ATOM     25  O   UNL     1       7.210   5.071  33.952  0.00  0.00    -0.332 OA
ATOM     26  C   UNL     1       7.091   6.064  35.023  0.00  0.00    +0.277 C 
ATOM     27  C   UNL     1       8.078   5.741  36.172  0.00  0.00    +0.110 C 
ATOM     28  C   UNL     1       7.969   4.268  36.619  0.00  0.00    +0.143 C 
ATOM     29  C   UNL     1       8.103   3.322  35.425  0.00  0.00    +0.133 C 
BRANCH  29  30
ATOM     30  N   UNL     1       7.911   1.926  35.850  0.00  0.00    -0.308 N 
ATOM     31  H   UNL     1       7.009   1.667  36.224  0.00  0.00    +0.149 HD
ATOM     32  C   UNL     1       8.850   0.980  35.773  0.00  0.00    +0.210 C 
ATOM     33  C   UNL     1      10.222   1.413  35.222  0.00  0.00    +0.109 C 
ATOM     34  O   UNL     1       8.656  -0.185  36.122  0.00  0.00    -0.276 OA
ENDBRANCH  29  30
BRANCH  26  35
ATOM     35  C   UNL     1       5.651   6.104  35.576  0.00  0.00    +0.414 C 
ATOM     36  O   UNL     1       5.451   6.311  36.772  0.00  0.00    -0.240 OA
ATOM     37  O   UNL     1       4.690   5.928  34.826  0.00  0.00    -0.240 OA
ENDBRANCH  26  35
BRANCH  28  38
ATOM     38  O   UNL     1       8.994   3.975  37.569  0.00  0.00    -0.390 OA
ATOM     39  H   UNL     1       9.852   4.178  37.188  0.00  0.00    +0.210 HD
ENDBRANCH  28  38
BRANCH  26  40
ATOM     40  O   UNL     1       7.439   7.361  34.474  0.00  0.00    -0.343 OA
ATOM     41  C   UNL     1       8.120   8.253  35.392  0.00  0.00    +0.198 C 
ENDBRANCH  26  40
ENDBRANCH  23  24
BRANCH  23  42
ATOM     42  O   UNL     1       7.375   3.627  31.940  0.00  0.00    -0.387 OA
ATOM     43  H   UNL     1       7.721   3.073  31.236  0.00  0.00    +0.210 HD
ENDBRANCH  23  42
ENDBRANCH   1  23
TORSDOF 14
