REMARK VINA RESULT:    -6.358      1.673      2.231
REMARK INTER + INTRA:         -13.151
REMARK INTER:                 -11.133
REMARK INTRA:                  -2.018
REMARK UNBOUND:                -1.775
REMARK  Name = lig_assembled_69.pdb
REMARK  18 active torsions:
REMARK  status: ('A' for Active; 'I' for Inactive)
REMARK    1  A    between atoms: _2  and  _9
REMARK    2  A    between atoms: _4  and  _21
REMARK    3  A    between atoms: _6  and  _7
REMARK    4  A    between atoms: _6  and  _21
REMARK    5  A    between atoms: _11  and  _16
REMARK    6  A    between atoms: _14  and  _15
REMARK    7  A    between atoms: _17  and  _37
REMARK    8  A    between atoms: _19  and  _25
REMARK    9  A    between atoms: _20  and  _24
REMARK   10  A    between atoms: _24  and  _25
REMARK   11  A    between atoms: _27  and  _28
REMARK   12  A    between atoms: _29  and  _30
REMARK   13  A    between atoms: _31  and  _33
REMARK   14  A    between atoms: _33  and  _34
REMARK   15  A    between atoms: _33  and  _35
REMARK   16  A    between atoms: _35  and  _36
REMARK   17  A    between atoms: _35  and  _37
REMARK   18  A    between atoms: _38  and  _40
REMARK                            x       y       z     vdW  Elec       q    Type
REMARK                         _______ _______ _______ _____ _____    ______ ____
ROOT
ATOM      1  C   UNL     1       1.889   2.654  33.690  0.00  0.00    +0.163 C 
ENDROOT
BRANCH   1   2
ATOM      2  O   UNL     1       2.191   2.145  35.000  0.00  0.00    -0.388 OA
ATOM      3  H   UNL     1       3.103   2.348  35.220  0.00  0.00    +0.210 HD
ENDBRANCH   1   2
BRANCH   1   4
ATOM      4  C   UNL     1       3.148   3.232  33.021  0.00  0.00    +0.175 C 
BRANCH   4   5
ATOM      5  C   UNL     1       4.182   3.710  34.051  0.00  0.00    +0.176 C 
ATOM      6  O   UNL     1       4.454   5.114  33.792  0.00  0.00    -0.332 OA
ATOM      7  C   UNL     1       5.347   5.774  34.750  0.00  0.00    +0.277 C 
ATOM      8  C   UNL     1       6.681   4.996  34.871  0.00  0.00    +0.110 C 
ATOM      9  C   UNL     1       6.442   3.491  35.114  0.00  0.00    +0.143 C 
ATOM     10  C   UNL     1       5.497   2.908  34.063  0.00  0.00    +0.133 C 
BRANCH  10  11
ATOM     11  N   UNL     1       5.209   1.495  34.356  0.00  0.00    -0.308 N 
ATOM     12  H   UNL     1       4.876   1.264  35.281  0.00  0.00    +0.149 HD
ATOM     13  C   UNL     1       5.359   0.499  33.479  0.00  0.00    +0.210 C 
ATOM     14  C   UNL     1       5.893   0.881  32.085  0.00  0.00    +0.109 C 
ATOM     15  O   UNL     1       5.095  -0.674  33.748  0.00  0.00    -0.276 OA
ENDBRANCH  10  11
BRANCH   7  16
ATOM     16  C   UNL     1       4.682   5.875  36.138  0.00  0.00    +0.414 C 
ATOM     17  O   UNL     1       5.365   6.085  37.140  0.00  0.00    -0.240 OA
ATOM     18  O   UNL     1       3.463   5.746  36.257  0.00  0.00    -0.240 OA
ENDBRANCH   7  16
BRANCH   7  19
ATOM     19  O   UNL     1       5.638   7.105  34.250  0.00  0.00    -0.343 OA
ATOM     20  C   UNL     1       7.018   7.524  34.392  0.00  0.00    +0.198 C 
ENDBRANCH   7  19
BRANCH   9  21
ATOM     21  O   UNL     1       7.687   2.792  35.068  0.00  0.00    -0.390 OA
ATOM     22  H   UNL     1       7.554   1.926  34.675  0.00  0.00    +0.210 HD
ENDBRANCH   9  21
ENDBRANCH   4   5
BRANCH   4  23
ATOM     23  O   UNL     1       2.789   4.314  32.139  0.00  0.00    -0.387 OA
ATOM     24  H   UNL     1       2.654   3.972  31.251  0.00  0.00    +0.210 HD
ENDBRANCH   4  23
ENDBRANCH   1   4
BRANCH   1  25
ATOM     25  C   UNL     1       1.313   1.543  32.819  0.00  0.00    +0.141 C 
BRANCH  25  28
ATOM     26  C   UNL     1       1.093   1.358  30.365  0.00  0.00    +0.401 C 
ATOM     27  O   UNL     1      -0.102   1.056  30.400  0.00  0.00    -0.226 OA
ATOM     28  N   UNL     1       1.834   1.598  31.447  0.00  0.00    -0.279 N 
ATOM     29  H   UNL     1       2.808   1.829  31.317  0.00  0.00    +0.152 HD
BRANCH  26  30
ATOM     30  O   UNL     1       1.746   1.460  29.097  0.00  0.00    -0.444 OA
BRANCH  30  31
ATOM     31  C   UNL     1       2.156   2.813  28.878  0.00  0.00    +0.292 C 
BRANCH  31  33
ATOM     32  N   UNL     1       0.112   3.891  28.003  0.00  0.00    -0.131 NA
ATOM     33  C   UNL     1       1.376   3.416  27.782  0.00  0.00    +0.120 A 
ATOM     34  C   UNL     1       1.702   3.602  26.457  0.00  0.00    +0.137 A 
ATOM     35  N   UNL     1       0.590   4.183  25.924  0.00  0.00    -0.248 N 
ATOM     36  N   UNL     1      -0.362   4.354  26.857  0.00  0.00    -0.065 NA
BRANCH  35  37
ATOM     37  C   UNL     1       0.346   4.551  24.530  0.00  0.00    +0.114 C 
ATOM     38  C   UNL     1      -0.343   3.418  23.760  0.00  0.00    +0.062 C 
ATOM     39  C   UNL     1       0.573   2.339  23.181  0.00  0.00    +0.139 C 
ATOM     40  C   UNL     1       1.438   2.746  22.022  0.00  0.00    +0.002 C 
ATOM     41  C   UNL     1       1.824   3.978  21.654  0.00  0.00    +0.002 C 
ATOM     42  C   UNL     1       1.613   5.264  22.394  0.00  0.00    +0.139 C 
ATOM     43  C   UNL     1       1.627   5.130  23.912  0.00  0.00    +0.062 C 
BRANCH  39  44
ATOM     44  O   UNL     1      -0.273   1.296  22.680  0.00  0.00    -0.388 OA
ATOM     45  H   UNL     1      -0.653   0.837  23.448  0.00  0.00    +0.210 HD
ENDBRANCH  39  44
BRANCH  42  46
ATOM     46  O   UNL     1       0.403   5.863  21.959  0.00  0.00    -0.388 OA
ATOM     47  H   UNL     1      -0.263   5.706  22.650  0.00  0.00    +0.210 HD
ENDBRANCH  42  46
ENDBRANCH  35  37
ENDBRANCH  31  33
ENDBRANCH  30  31
ENDBRANCH  26  30
ENDBRANCH  25  28
ENDBRANCH   1  25
TORSDOF 16
