REMARK VINA RESULT:    -6.609      1.371      2.063
REMARK INTER + INTRA:         -13.772
REMARK INTER:                 -12.438
REMARK INTRA:                  -1.334
REMARK UNBOUND:                -2.334
REMARK  Name = lig_assembled_15.pdb
REMARK  16 active torsions:
REMARK  status: ('A' for Active; 'I' for Inactive)
REMARK    1  A    between atoms: _2  and  _9
REMARK    2  A    between atoms: _4  and  _18
REMARK    3  A    between atoms: _6  and  _7
REMARK    4  A    between atoms: _6  and  _18
REMARK    5  A    between atoms: _14  and  _34
REMARK    6  A    between atoms: _16  and  _22
REMARK    7  A    between atoms: _17  and  _21
REMARK    8  A    between atoms: _21  and  _22
REMARK    9  A    between atoms: _24  and  _25
REMARK   10  A    between atoms: _26  and  _27
REMARK   11  A    between atoms: _28  and  _30
REMARK   12  A    between atoms: _30  and  _31
REMARK   13  A    between atoms: _30  and  _32
REMARK   14  A    between atoms: _32  and  _33
REMARK   15  A    between atoms: _32  and  _34
REMARK   16  A    between atoms: _35  and  _37
REMARK                            x       y       z     vdW  Elec       q    Type
REMARK                         _______ _______ _______ _____ _____    ______ ____
ROOT
ATOM      1  C   UNL     1       6.224   2.902  32.813  0.00  0.00    +0.163 C 
ENDROOT
BRANCH   1   2
ATOM      2  O   UNL     1       6.266   2.908  31.377  0.00  0.00    -0.388 OA
ATOM      3  H   UNL     1       7.053   2.446  31.078  0.00  0.00    +0.210 HD
ENDBRANCH   1   2
BRANCH   1   4
ATOM      4  C   UNL     1       4.932   3.551  33.300  0.00  0.00    +0.141 C 
BRANCH   4   7
ATOM      5  C   UNL     1       2.669   3.840  32.352  0.00  0.00    +0.401 C 
ATOM      6  O   UNL     1       2.094   3.674  33.430  0.00  0.00    -0.226 OA
ATOM      7  N   UNL     1       3.993   3.794  32.198  0.00  0.00    -0.279 N 
ATOM      8  H   UNL     1       4.371   3.933  31.272  0.00  0.00    +0.152 HD
BRANCH   5   9
ATOM      9  O   UNL     1       1.889   4.096  31.181  0.00  0.00    -0.444 OA
BRANCH   9  10
ATOM     10  C   UNL     1       1.850   2.921  30.367  0.00  0.00    +0.292 C 
BRANCH  10  12
ATOM     11  N   UNL     1       0.215   3.906  28.792  0.00  0.00    -0.131 NA
ATOM     12  C   UNL     1       1.397   3.257  29.004  0.00  0.00    +0.121 A 
ATOM     13  C   UNL     1       2.004   3.024  27.790  0.00  0.00    +0.143 A 
ATOM     14  N   UNL     1       1.160   3.581  26.858  0.00  0.00    -0.220 N 
ATOM     15  N   UNL     1       0.075   4.094  27.487  0.00  0.00    -0.060 NA
BRANCH  14  16
ATOM     16  C   UNL     1       1.331   3.679  25.451  0.00  0.00    +0.067 A 
ATOM     17  C   UNL     1       1.058   4.876  24.774  0.00  0.00    +0.029 A 
ATOM     18  C   UNL     1       1.193   4.939  23.383  0.00  0.00    +0.017 A 
ATOM     19  C   UNL     1       1.605   3.815  22.671  0.00  0.00    +0.018 A 
ATOM     20 BR   UNL     1       1.759   3.903  20.789  0.00  0.00    -0.050 Br
ATOM     21  C   UNL     1       1.893   2.625  23.336  0.00  0.00    +0.017 A 
ATOM     22  C   UNL     1       1.760   2.556  24.726  0.00  0.00    +0.029 A 
ENDBRANCH  14  16
ENDBRANCH  10  12
ENDBRANCH   9  10
ENDBRANCH   5   9
ENDBRANCH   4   7
ENDBRANCH   1   4
BRANCH   1  23
ATOM     23  C   UNL     1       7.430   3.653  33.402  0.00  0.00    +0.175 C 
BRANCH  23  24
ATOM     24  C   UNL     1       7.147   4.183  34.816  0.00  0.00    +0.176 C 
ATOM     25  O   UNL     1       7.265   5.632  34.782  0.00  0.00    -0.332 OA
ATOM     26  C   UNL     1       6.923   6.325  36.028  0.00  0.00    +0.277 C 
ATOM     27  C   UNL     1       7.753   5.760  37.207  0.00  0.00    +0.110 C 
ATOM     28  C   UNL     1       7.685   4.219  37.264  0.00  0.00    +0.143 C 
ATOM     29  C   UNL     1       8.056   3.603  35.915  0.00  0.00    +0.133 C 
BRANCH  29  30
ATOM     30  N   UNL     1       7.903   2.140  35.958  0.00  0.00    -0.308 N 
ATOM     31  H   UNL     1       6.996   1.767  36.200  0.00  0.00    +0.149 HD
ATOM     32  C   UNL     1       8.885   1.272  35.698  0.00  0.00    +0.210 C 
ATOM     33  C   UNL     1      10.263   1.872  35.357  0.00  0.00    +0.109 C 
ATOM     34  O   UNL     1       8.725   0.052  35.726  0.00  0.00    -0.276 OA
ENDBRANCH  29  30
BRANCH  26  35
ATOM     35  C   UNL     1       5.419   6.179  36.340  0.00  0.00    +0.414 C 
ATOM     36  O   UNL     1       4.608   6.025  35.427  0.00  0.00    -0.240 OA
ATOM     37  O   UNL     1       5.016   6.215  37.503  0.00  0.00    -0.240 OA
ENDBRANCH  26  35
BRANCH  28  38
ATOM     38  O   UNL     1       8.580   3.735  38.266  0.00  0.00    -0.390 OA
ATOM     39  H   UNL     1       8.621   4.363  38.991  0.00  0.00    +0.210 HD
ENDBRANCH  28  38
BRANCH  26  40
ATOM     40  O   UNL     1       7.254   7.728  35.866  0.00  0.00    -0.343 OA
ATOM     41  C   UNL     1       7.559   8.133  34.508  0.00  0.00    +0.198 C 
ENDBRANCH  26  40
ENDBRANCH  23  24
BRANCH  23  42
ATOM     42  O   UNL     1       7.813   4.737  32.533  0.00  0.00    -0.387 OA
ATOM     43  H   UNL     1       8.485   4.433  31.919  0.00  0.00    +0.210 HD
ENDBRANCH  23  42
ENDBRANCH   1  23
TORSDOF 14
