REMARK VINA RESULT:    -7.106     13.586     17.877
REMARK INTER + INTRA:         -14.843
REMARK INTER:                 -13.278
REMARK INTRA:                  -1.565
REMARK UNBOUND:                -1.921
REMARK  Name = lig_assembled_23.pdb
REMARK  18 active torsions:
REMARK  status: ('A' for Active; 'I' for Inactive)
REMARK    1  A    between atoms: _2  and  _10
REMARK    2  A    between atoms: _3  and  _41
REMARK    3  A    between atoms: _5  and  _21
REMARK    4  A    between atoms: _7  and  _8
REMARK    5  A    between atoms: _7  and  _21
REMARK    6  A    between atoms: _12  and  _41
REMARK    7  A    between atoms: _17  and  _37
REMARK    8  A    between atoms: _19  and  _25
REMARK    9  A    between atoms: _20  and  _24
REMARK   10  A    between atoms: _24  and  _25
REMARK   11  A    between atoms: _27  and  _28
REMARK   12  A    between atoms: _29  and  _30
REMARK   13  A    between atoms: _31  and  _33
REMARK   14  A    between atoms: _33  and  _34
REMARK   15  A    between atoms: _33  and  _35
REMARK   16  A    between atoms: _35  and  _36
REMARK   17  A    between atoms: _35  and  _37
REMARK   18  A    between atoms: _38  and  _40
REMARK                            x       y       z     vdW  Elec       q    Type
REMARK                         _______ _______ _______ _____ _____    ______ ____
ROOT
ATOM      1  C   UNL     1       5.104   3.367  33.436  0.00  0.00    +0.141 C 
ENDROOT
BRANCH   1   4
ATOM      2  C   UNL     1       2.812   3.947  32.719  0.00  0.00    +0.401 C 
ATOM      3  O   UNL     1       2.306   3.707  33.818  0.00  0.00    -0.226 OA
ATOM      4  N   UNL     1       4.111   3.810  32.450  0.00  0.00    -0.279 N 
ATOM      5  H   UNL     1       4.429   4.022  31.515  0.00  0.00    +0.152 HD
BRANCH   2   6
ATOM      6  O   UNL     1       1.973   4.397  31.653  0.00  0.00    -0.444 OA
BRANCH   6   7
ATOM      7  C   UNL     1       1.190   3.304  31.166  0.00  0.00    +0.292 C 
BRANCH   7   9
ATOM      8  N   UNL     1       0.053   4.148  29.139  0.00  0.00    -0.131 NA
ATOM      9  C   UNL     1       1.040   3.392  29.703  0.00  0.00    +0.121 A 
ATOM     10  C   UNL     1       1.778   2.800  28.702  0.00  0.00    +0.143 A 
ATOM     11  N   UNL     1       1.205   3.238  27.531  0.00  0.00    -0.220 N 
ATOM     12  N   UNL     1       0.157   4.047  27.822  0.00  0.00    -0.060 NA
BRANCH  11  13
ATOM     13  C   UNL     1       1.570   2.937  26.193  0.00  0.00    +0.069 A 
ATOM     14  C   UNL     1       1.315   3.875  25.182  0.00  0.00    +0.056 A 
ATOM     15  C   UNL     1       1.641   3.568  23.857  0.00  0.00    +0.107 A 
ATOM     16  C   UNL     1       2.241   2.351  23.529  0.00  0.00    +0.028 A 
ATOM     17  C   UNL     1       2.508   1.426  24.538  0.00  0.00    +0.004 A 
ATOM     18  C   UNL     1       2.170   1.713  25.865  0.00  0.00    +0.028 A 
BRANCH  15  19
ATOM     19  S   UNL     1       1.259   4.737  22.588  0.00  0.00    +0.056 S 
ATOM     20  O   UNL     1       1.778   4.247  21.332  0.00  0.00    -0.153 OA
ATOM     21  O   UNL     1      -0.104   5.187  22.747  0.00  0.00    -0.153 OA
BRANCH  19  22
ATOM     22  N   UNL     1       2.214   6.048  23.023  0.00  0.00    -0.204 NA
ATOM     23  H   UNL     1       1.663   6.906  22.994  0.00  0.00    +0.144 HD
ATOM     24  H   UNL     1       3.055   6.075  22.446  0.00  0.00    +0.144 HD
ENDBRANCH  19  22
ENDBRANCH  15  19
ENDBRANCH  11  13
ENDBRANCH   7   9
ENDBRANCH   6   7
ENDBRANCH   2   6
ENDBRANCH   1   4
BRANCH   1  25
ATOM     25  C   UNL     1       6.408   2.934  32.774  0.00  0.00    +0.163 C 
BRANCH  25  26
ATOM     26  O   UNL     1       6.323   3.120  31.352  0.00  0.00    -0.388 OA
ATOM     27  H   UNL     1       6.620   4.005  31.126  0.00  0.00    +0.210 HD
ENDBRANCH  25  26
BRANCH  25  28
ATOM     28  C   UNL     1       7.577   3.742  33.365  0.00  0.00    +0.175 C 
BRANCH  28  29
ATOM     29  C   UNL     1       7.261   4.271  34.772  0.00  0.00    +0.176 C 
ATOM     30  O   UNL     1       7.268   5.724  34.715  0.00  0.00    -0.332 OA
ATOM     31  C   UNL     1       6.880   6.409  35.952  0.00  0.00    +0.277 C 
ATOM     32  C   UNL     1       7.756   5.927  37.134  0.00  0.00    +0.110 C 
ATOM     33  C   UNL     1       7.804   4.387  37.217  0.00  0.00    +0.143 C 
ATOM     34  C   UNL     1       8.216   3.779  35.875  0.00  0.00    +0.133 C 
BRANCH  34  35
ATOM     35  N   UNL     1       8.174   2.309  35.942  0.00  0.00    -0.308 N 
ATOM     36  H   UNL     1       7.313   1.875  36.242  0.00  0.00    +0.149 HD
ATOM     37  C   UNL     1       9.200   1.513  35.631  0.00  0.00    +0.210 C 
ATOM     38  C   UNL     1      10.507   2.206  35.201  0.00  0.00    +0.109 C 
ATOM     39  O   UNL     1       9.132   0.284  35.681  0.00  0.00    -0.276 OA
ENDBRANCH  34  35
BRANCH  31  40
ATOM     40  C   UNL     1       5.393   6.155  36.274  0.00  0.00    +0.414 C 
ATOM     41  O   UNL     1       4.574   6.032  35.364  0.00  0.00    -0.240 OA
ATOM     42  O   UNL     1       5.013   6.073  37.443  0.00  0.00    -0.240 OA
ENDBRANCH  31  40
BRANCH  33  43
ATOM     43  O   UNL     1       8.738   3.987  38.221  0.00  0.00    -0.390 OA
ATOM     44  H   UNL     1       9.535   4.518  38.147  0.00  0.00    +0.210 HD
ENDBRANCH  33  43
BRANCH  31  45
ATOM     45  O   UNL     1       7.104   7.831  35.766  0.00  0.00    -0.343 OA
ATOM     46  C   UNL     1       7.730   8.193  34.510  0.00  0.00    +0.198 C 
ENDBRANCH  31  45
ENDBRANCH  28  29
BRANCH  28  47
ATOM     47  O   UNL     1       7.920   4.834  32.489  0.00  0.00    -0.387 OA
ATOM     48  H   UNL     1       7.954   4.519  31.583  0.00  0.00    +0.210 HD
ENDBRANCH  28  47
ENDBRANCH  25  28
ENDBRANCH   1  25
TORSDOF 16
