REMARK VINA RESULT:    -5.808     13.811     15.319
REMARK INTER + INTRA:         -12.641
REMARK INTER:                 -10.404
REMARK INTRA:                  -2.236
REMARK UNBOUND:                -2.248
REMARK  Name = lig_assembled_61.pdb
REMARK  17 active torsions:
REMARK  status: ('A' for Active; 'I' for Inactive)
REMARK    1  A    between atoms: _2  and  _9
REMARK    2  A    between atoms: _4  and  _17
REMARK    3  A    between atoms: _6  and  _7
REMARK    4  A    between atoms: _6  and  _17
REMARK    5  A    between atoms: _9  and  _10
REMARK    6  A    between atoms: _13  and  _33
REMARK    7  A    between atoms: _15  and  _21
REMARK    8  A    between atoms: _16  and  _20
REMARK    9  A    between atoms: _20  and  _21
REMARK   10  A    between atoms: _23  and  _24
REMARK   11  A    between atoms: _25  and  _26
REMARK   12  A    between atoms: _27  and  _29
REMARK   13  A    between atoms: _29  and  _30
REMARK   14  A    between atoms: _29  and  _31
REMARK   15  A    between atoms: _31  and  _32
REMARK   16  A    between atoms: _31  and  _33
REMARK   17  A    between atoms: _34  and  _36
REMARK                            x       y       z     vdW  Elec       q    Type
REMARK                         _______ _______ _______ _____ _____    ______ ____
ROOT
ATOM      1  C   UNL     1      18.892  10.297  29.595  0.00  0.00    +0.163 C 
ENDROOT
BRANCH   1   2
ATOM      2  O   UNL     1      17.542  10.785  29.528  0.00  0.00    -0.388 OA
ATOM      3  H   UNL     1      17.081  10.352  28.806  0.00  0.00    +0.210 HD
ENDBRANCH   1   2
BRANCH   1   4
ATOM      4  C   UNL     1      19.455  10.123  28.188  0.00  0.00    +0.141 C 
BRANCH   4   7
ATOM      5  C   UNL     1      18.871   8.156  26.812  0.00  0.00    +0.401 C 
ATOM      6  O   UNL     1      18.068   8.770  26.107  0.00  0.00    -0.226 OA
ATOM      7  N   UNL     1      19.560   8.708  27.812  0.00  0.00    -0.279 N 
ATOM      8  H   UNL     1      20.189   8.120  28.340  0.00  0.00    +0.152 HD
BRANCH   5   9
ATOM      9  O   UNL     1      19.092   6.765  26.564  0.00  0.00    -0.444 OA
BRANCH   9  10
ATOM     10  C   UNL     1      19.795   6.606  25.328  0.00  0.00    +0.292 C 
BRANCH  10  12
ATOM     11  N   UNL     1      18.125   6.565  23.502  0.00  0.00    -0.131 NA
ATOM     12  C   UNL     1      18.960   5.885  24.350  0.00  0.00    +0.120 A 
ATOM     13  C   UNL     1      18.851   4.534  24.103  0.00  0.00    +0.137 A 
ATOM     14  N   UNL     1      17.892   4.454  23.136  0.00  0.00    -0.247 N 
ATOM     15  N   UNL     1      17.488   5.678  22.748  0.00  0.00    -0.065 NA
BRANCH  14  16
ATOM     16  C   UNL     1      17.341   3.265  22.512  0.00  0.00    +0.180 C 
BRANCH  16  17
ATOM     17  C   UNL     1      17.309   2.100  23.460  0.00  0.00    -0.019 A 
ATOM     18  C   UNL     1      16.381   1.960  24.548  0.00  0.00    +0.013 A 
ATOM     19  C   UNL     1      16.594   0.816  25.288  0.00  0.00    +0.045 A 
ATOM     20  S   UNL     1      17.896  -0.106  24.681  0.00  0.00    -0.105 S 
ATOM     21  C   UNL     1      18.187   1.027  23.435  0.00  0.00    +0.050 A 
ENDBRANCH  16  17
ENDBRANCH  14  16
ENDBRANCH  10  12
ENDBRANCH   9  10
ENDBRANCH   5   9
ENDBRANCH   4   7
ENDBRANCH   1   4
BRANCH   1  22
ATOM     22  C   UNL     1      18.956   8.955  30.343  0.00  0.00    +0.175 C 
BRANCH  22  23
ATOM     23  C   UNL     1      17.991   8.912  31.537  0.00  0.00    +0.176 C 
ATOM     24  O   UNL     1      18.189  10.124  32.316  0.00  0.00    -0.332 OA
ATOM     25  C   UNL     1      17.273  10.309  33.445  0.00  0.00    +0.277 C 
ATOM     26  C   UNL     1      17.310   9.075  34.380  0.00  0.00    +0.110 C 
ATOM     27  C   UNL     1      17.135   7.760  33.593  0.00  0.00    +0.143 C 
ATOM     28  C   UNL     1      18.136   7.673  32.440  0.00  0.00    +0.133 C 
BRANCH  28  29
ATOM     29  N   UNL     1      17.902   6.457  31.645  0.00  0.00    -0.308 N 
ATOM     30  H   UNL     1      17.037   6.391  31.127  0.00  0.00    +0.149 HD
ATOM     31  C   UNL     1      18.758   5.434  31.564  0.00  0.00    +0.210 C 
ATOM     32  C   UNL     1      20.055   5.554  32.385  0.00  0.00    +0.109 C 
ATOM     33  O   UNL     1      18.542   4.434  30.878  0.00  0.00    -0.276 OA
ENDBRANCH  28  29
BRANCH  25  34
ATOM     34  C   UNL     1      15.830  10.536  32.948  0.00  0.00    +0.414 C 
ATOM     35  O   UNL     1      14.881  10.037  33.551  0.00  0.00    -0.240 OA
ATOM     36  O   UNL     1      15.616  11.219  31.946  0.00  0.00    -0.240 OA
ENDBRANCH  25  34
BRANCH  25  37
ATOM     37  O   UNL     1      17.718  11.467  34.199  0.00  0.00    -0.343 OA
ATOM     38  C   UNL     1      18.531  12.408  33.453  0.00  0.00    +0.198 C 
ENDBRANCH  25  37
BRANCH  27  39
ATOM     39  O   UNL     1      17.327   6.646  34.467  0.00  0.00    -0.390 OA
ATOM     40  H   UNL     1      17.026   6.876  35.349  0.00  0.00    +0.210 HD
ENDBRANCH  27  39
ENDBRANCH  22  23
BRANCH  22  41
ATOM     41  O   UNL     1      20.303   8.695  30.785  0.00  0.00    -0.387 OA
ATOM     42  H   UNL     1      20.402   8.977  31.697  0.00  0.00    +0.210 HD
ENDBRANCH  22  41
ENDBRANCH   1  22
TORSDOF 15
