REMARK VINA RESULT:    -5.612      6.766      8.344
REMARK INTER + INTRA:         -13.444
REMARK INTER:                 -11.629
REMARK INTRA:                  -1.816
REMARK UNBOUND:                -3.239
REMARK  Name = lig_assembled_88.pdb
REMARK  18 active torsions:
REMARK  status: ('A' for Active; 'I' for Inactive)
REMARK    1  A    between atoms: _2  and  _9
REMARK    2  A    between atoms: _4  and  _20
REMARK    3  A    between atoms: _5  and  _15
REMARK    4  A    between atoms: _6  and  _7
REMARK    5  A    between atoms: _6  and  _20
REMARK    6  A    between atoms: _9  and  _10
REMARK    7  A    between atoms: _16  and  _36
REMARK    8  A    between atoms: _18  and  _24
REMARK    9  A    between atoms: _19  and  _23
REMARK   10  A    between atoms: _23  and  _24
REMARK   11  A    between atoms: _26  and  _27
REMARK   12  A    between atoms: _28  and  _29
REMARK   13  A    between atoms: _30  and  _32
REMARK   14  A    between atoms: _32  and  _33
REMARK   15  A    between atoms: _32  and  _34
REMARK   16  A    between atoms: _34  and  _35
REMARK   17  A    between atoms: _34  and  _36
REMARK   18  A    between atoms: _37  and  _39
REMARK                            x       y       z     vdW  Elec       q    Type
REMARK                         _______ _______ _______ _____ _____    ______ ____
ROOT
ATOM      1  C   UNL     1       7.464   2.496  34.331  0.00  0.00    +0.163 C 
ENDROOT
BRANCH   1   2
ATOM      2  O   UNL     1       7.945   2.394  35.681  0.00  0.00    -0.388 OA
ATOM      3  H   UNL     1       7.287   1.954  36.224  0.00  0.00    +0.210 HD
ENDBRANCH   1   2
BRANCH   1   4
ATOM      4  C   UNL     1       7.800   3.871  33.730  0.00  0.00    +0.175 C 
BRANCH   4   5
ATOM      5  C   UNL     1       7.180   5.022  34.536  0.00  0.00    +0.176 C 
ATOM      6  O   UNL     1       7.922   5.146  35.781  0.00  0.00    -0.332 OA
ATOM      7  C   UNL     1       7.536   6.270  36.640  0.00  0.00    +0.277 C 
ATOM      8  C   UNL     1       6.017   6.226  36.938  0.00  0.00    +0.110 C 
ATOM      9  C   UNL     1       5.188   6.062  35.647  0.00  0.00    +0.143 C 
ATOM     10  C   UNL     1       5.676   4.866  34.829  0.00  0.00    +0.133 C 
BRANCH  10  11
ATOM     11  N   UNL     1       4.936   4.773  33.561  0.00  0.00    -0.308 N 
ATOM     12  H   UNL     1       5.114   5.477  32.858  0.00  0.00    +0.149 HD
ATOM     13  C   UNL     1       4.045   3.819  33.278  0.00  0.00    +0.210 C 
ATOM     14  C   UNL     1       3.777   2.776  34.379  0.00  0.00    +0.109 C 
ATOM     15  O   UNL     1       3.450   3.757  32.201  0.00  0.00    -0.276 OA
ENDBRANCH  10  11
BRANCH   7  16
ATOM     16  C   UNL     1       7.892   7.615  35.973  0.00  0.00    +0.414 C 
ATOM     17  O   UNL     1       8.187   8.590  36.663  0.00  0.00    -0.240 OA
ATOM     18  O   UNL     1       7.883   7.725  34.747  0.00  0.00    -0.240 OA
ENDBRANCH   7  16
BRANCH   7  19
ATOM     19  O   UNL     1       8.252   6.142  37.895  0.00  0.00    -0.343 OA
ATOM     20  C   UNL     1       9.199   5.045  37.951  0.00  0.00    +0.198 C 
ENDBRANCH   7  19
BRANCH   9  21
ATOM     21  O   UNL     1       3.811   5.875  35.979  0.00  0.00    -0.390 OA
ATOM     22  H   UNL     1       3.727   5.728  36.924  0.00  0.00    +0.210 HD
ENDBRANCH   9  21
ENDBRANCH   4   5
BRANCH   4  23
ATOM     23  O   UNL     1       7.362   3.934  32.358  0.00  0.00    -0.387 OA
ATOM     24  H   UNL     1       7.445   4.835  32.036  0.00  0.00    +0.210 HD
ENDBRANCH   4  23
ENDBRANCH   1   4
BRANCH   1  25
ATOM     25  C   UNL     1       8.085   1.399  33.472  0.00  0.00    +0.141 C 
BRANCH  25  28
ATOM     26  C   UNL     1       6.093   0.476  32.338  0.00  0.00    +0.401 C 
ATOM     27  O   UNL     1       5.830   1.524  31.743  0.00  0.00    -0.226 OA
ATOM     28  N   UNL     1       7.124   0.331  33.171  0.00  0.00    -0.279 N 
ATOM     29  H   UNL     1       7.252  -0.566  33.620  0.00  0.00    +0.152 HD
BRANCH  26  30
ATOM     30  O   UNL     1       5.252  -0.664  32.142  0.00  0.00    -0.444 OA
BRANCH  30  31
ATOM     31  C   UNL     1       4.801  -0.697  30.785  0.00  0.00    +0.292 C 
BRANCH  31  33
ATOM     32  N   UNL     1       7.008  -1.765  30.433  0.00  0.00    -0.131 NA
ATOM     33  C   UNL     1       5.815  -1.329  29.919  0.00  0.00    +0.120 A 
ATOM     34  C   UNL     1       5.793  -1.571  28.563  0.00  0.00    +0.137 A 
ATOM     35  N   UNL     1       7.030  -2.085  28.304  0.00  0.00    -0.247 N 
ATOM     36  N   UNL     1       7.738  -2.247  29.437  0.00  0.00    -0.065 NA
BRANCH  35  37
ATOM     37  C   UNL     1       7.629  -2.375  27.010  0.00  0.00    +0.184 C 
BRANCH  37  38
ATOM     38  C   UNL     1       7.602  -3.848  26.657  0.00  0.00    +0.017 A 
ATOM     39  C   UNL     1       6.594  -4.414  25.851  0.00  0.00    +0.024 A 
ATOM     40  C   UNL     1       6.601  -5.778  25.546  0.00  0.00    +0.019 A 
ATOM     41 BR   UNL     1       5.204  -6.510  24.503  0.00  0.00    -0.050 Br
ATOM     42  C   UNL     1       7.622  -6.605  26.003  0.00  0.00    +0.034 A 
ATOM     43  C   UNL     1       8.651  -6.051  26.761  0.00  0.00    +0.061 A 
ATOM     44 BR   UNL     1      10.059  -7.175  27.351  0.00  0.00    -0.046 Br
ATOM     45  C   UNL     1       8.643  -4.686  27.080  0.00  0.00    +0.136 A 
BRANCH  45  46
ATOM     46  O   UNL     1       9.658  -4.129  27.812  0.00  0.00    -0.505 OA
ATOM     47  H   UNL     1      10.339  -4.816  27.942  0.00  0.00    +0.292 HD
ENDBRANCH  45  46
ENDBRANCH  37  38
ENDBRANCH  35  37
ENDBRANCH  31  33
ENDBRANCH  30  31
ENDBRANCH  26  30
ENDBRANCH  25  28
ENDBRANCH   1  25
TORSDOF 16
