REMARK VINA RESULT:    -6.016     20.367     23.821
REMARK INTER + INTRA:         -12.325
REMARK INTER:                 -10.061
REMARK INTRA:                  -2.264
REMARK UNBOUND:                -1.914
REMARK  Name = lig_assembled_56.pdb
REMARK  16 active torsions:
REMARK  status: ('A' for Active; 'I' for Inactive)
REMARK    1  A    between atoms: _2  and  _10
REMARK    2  A    between atoms: _5  and  _18
REMARK    3  A    between atoms: _7  and  _8
REMARK    4  A    between atoms: _7  and  _18
REMARK    5  A    between atoms: _14  and  _34
REMARK    6  A    between atoms: _16  and  _22
REMARK    7  A    between atoms: _17  and  _21
REMARK    8  A    between atoms: _21  and  _22
REMARK    9  A    between atoms: _24  and  _25
REMARK   10  A    between atoms: _26  and  _27
REMARK   11  A    between atoms: _28  and  _30
REMARK   12  A    between atoms: _30  and  _31
REMARK   13  A    between atoms: _30  and  _32
REMARK   14  A    between atoms: _32  and  _33
REMARK   15  A    between atoms: _32  and  _34
REMARK   16  A    between atoms: _35  and  _37
REMARK                            x       y       z     vdW  Elec       q    Type
REMARK                         _______ _______ _______ _____ _____    ______ ____
ROOT
ATOM      1  C   UNL     1       8.442   2.408  36.216  0.00  0.00    +0.163 C 
ENDROOT
BRANCH   1   2
ATOM      2  O   UNL     1       8.329   2.923  37.553  0.00  0.00    -0.388 OA
ATOM      3  H   UNL     1       8.886   3.700  37.645  0.00  0.00    +0.210 HD
ENDBRANCH   1   2
BRANCH   1   4
ATOM      4  C   UNL     1       9.466   1.279  36.176  0.00  0.00    +0.141 C 
BRANCH   4   7
ATOM      5  C   UNL     1      11.848   1.851  35.850  0.00  0.00    +0.401 C 
ATOM      6  O   UNL     1      11.839   1.604  34.642  0.00  0.00    -0.226 OA
ATOM      7  N   UNL     1      10.786   1.721  36.645  0.00  0.00    -0.279 N 
ATOM      8  H   UNL     1      10.894   1.938  37.626  0.00  0.00    +0.152 HD
BRANCH   5   9
ATOM      9  O   UNL     1      13.062   2.301  36.458  0.00  0.00    -0.444 OA
BRANCH   9  10
ATOM     10  C   UNL     1      12.919   3.668  36.854  0.00  0.00    +0.292 C 
BRANCH  10  12
ATOM     11  N   UNL     1      14.107   4.154  34.739  0.00  0.00    -0.131 NA
ATOM     12  C   UNL     1      13.746   4.538  35.997  0.00  0.00    +0.121 A 
ATOM     13  C   UNL     1      14.267   5.787  36.252  0.00  0.00    +0.143 A 
ATOM     14  N   UNL     1      14.932   6.136  35.099  0.00  0.00    -0.220 N 
ATOM     15  N   UNL     1      14.830   5.126  34.201  0.00  0.00    -0.060 NA
BRANCH  14  16
ATOM     16  C   UNL     1      15.627   7.334  34.803  0.00  0.00    +0.070 A 
ATOM     17  C   UNL     1      15.544   7.920  33.537  0.00  0.00    +0.047 A 
ATOM     18  C   UNL     1      16.263   9.083  33.311  0.00  0.00    +0.113 A 
ATOM     19  N   UNL     1      17.036   9.683  34.241  0.00  0.00    -0.263 NA
ATOM     20  C   UNL     1      17.096   9.098  35.456  0.00  0.00    +0.113 A 
ATOM     21  C   UNL     1      16.418   7.938  35.785  0.00  0.00    +0.047 A 
ENDBRANCH  14  16
ENDBRANCH  10  12
ENDBRANCH   9  10
ENDBRANCH   5   9
ENDBRANCH   4   7
ENDBRANCH   1   4
BRANCH   1  22
ATOM     22  C   UNL     1       8.858   3.516  35.233  0.00  0.00    +0.175 C 
BRANCH  22  23
ATOM     23  C   UNL     1       7.738   4.542  35.011  0.00  0.00    +0.176 C 
ATOM     24  O   UNL     1       7.581   5.306  36.238  0.00  0.00    -0.332 OA
ATOM     25  C   UNL     1       6.620   6.411  36.179  0.00  0.00    +0.277 C 
ATOM     26  C   UNL     1       5.239   5.903  35.698  0.00  0.00    +0.110 C 
ATOM     27  C   UNL     1       5.359   5.058  34.412  0.00  0.00    +0.143 C 
ATOM     28  C   UNL     1       6.387   3.939  34.584  0.00  0.00    +0.133 C 
BRANCH  28  29
ATOM     29  N   UNL     1       6.555   3.196  33.326  0.00  0.00    -0.308 N 
ATOM     30  H   UNL     1       6.996   3.673  32.552  0.00  0.00    +0.149 HD
ATOM     31  C   UNL     1       6.164   1.933  33.139  0.00  0.00    +0.210 C 
ATOM     32  C   UNL     1       5.472   1.242  34.330  0.00  0.00    +0.109 C 
ATOM     33  O   UNL     1       6.332   1.331  32.078  0.00  0.00    -0.276 OA
ENDBRANCH  28  29
BRANCH  25  34
ATOM     34  C   UNL     1       7.120   7.520  35.229  0.00  0.00    +0.414 C 
ATOM     35  O   UNL     1       8.313   7.820  35.200  0.00  0.00    -0.240 OA
ATOM     36  O   UNL     1       6.331   8.113  34.492  0.00  0.00    -0.240 OA
ENDBRANCH  25  34
BRANCH  27  37
ATOM     37  O   UNL     1       4.090   4.486  34.092  0.00  0.00    -0.390 OA
ATOM     38  H   UNL     1       3.738   4.035  34.862  0.00  0.00    +0.210 HD
ENDBRANCH  27  37
BRANCH  25  39
ATOM     39  O   UNL     1       6.469   6.948  37.518  0.00  0.00    -0.343 OA
ATOM     40  C   UNL     1       7.336   6.353  38.517  0.00  0.00    +0.198 C 
ENDBRANCH  25  39
ENDBRANCH  22  23
BRANCH  22  41
ATOM     41  O   UNL     1       9.260   2.938  33.975  0.00  0.00    -0.387 OA
ATOM     42  H   UNL     1       9.769   3.580  33.475  0.00  0.00    +0.210 HD
ENDBRANCH  22  41
ENDBRANCH   1  22
TORSDOF 14
