REMARK VINA RESULT:    -6.983      1.373      1.763
REMARK INTER + INTRA:         -14.118
REMARK INTER:                 -12.405
REMARK INTRA:                  -1.713
REMARK UNBOUND:                -2.031
REMARK  Name = lig_assembled_42.pdb
REMARK  16 active torsions:
REMARK  status: ('A' for Active; 'I' for Inactive)
REMARK    1  A    between atoms: _2  and  _9
REMARK    2  A    between atoms: _4  and  _21
REMARK    3  A    between atoms: _6  and  _7
REMARK    4  A    between atoms: _6  and  _21
REMARK    5  A    between atoms: _17  and  _37
REMARK    6  A    between atoms: _19  and  _25
REMARK    7  A    between atoms: _20  and  _24
REMARK    8  A    between atoms: _24  and  _25
REMARK    9  A    between atoms: _27  and  _28
REMARK   10  A    between atoms: _29  and  _30
REMARK   11  A    between atoms: _31  and  _33
REMARK   12  A    between atoms: _33  and  _34
REMARK   13  A    between atoms: _33  and  _35
REMARK   14  A    between atoms: _35  and  _36
REMARK   15  A    between atoms: _35  and  _37
REMARK   16  A    between atoms: _38  and  _40
REMARK                            x       y       z     vdW  Elec       q    Type
REMARK                         _______ _______ _______ _____ _____    ______ ____
ROOT
ATOM      1  C   UNL     1       3.535   3.650  32.357  0.00  0.00    +0.163 C 
ENDROOT
BRANCH   1   2
ATOM      2  O   UNL     1       2.621   3.932  33.430  0.00  0.00    -0.388 OA
ATOM      3  H   UNL     1       2.050   3.173  33.573  0.00  0.00    +0.210 HD
ENDBRANCH   1   2
BRANCH   1   4
ATOM      4  C   UNL     1       2.865   2.750  31.324  0.00  0.00    +0.141 C 
BRANCH   4   7
ATOM      5  C   UNL     1       1.166   3.141  29.573  0.00  0.00    +0.401 C 
ATOM      6  O   UNL     1       0.558   2.091  29.796  0.00  0.00    -0.226 OA
ATOM      7  N   UNL     1       2.258   3.525  30.235  0.00  0.00    -0.279 N 
ATOM      8  H   UNL     1       2.691   4.399  29.973  0.00  0.00    +0.152 HD
BRANCH   5   9
ATOM      9  O   UNL     1       0.692   4.012  28.543  0.00  0.00    -0.444 OA
BRANCH   9  10
ATOM     10  C   UNL     1      -0.120   3.272  27.627  0.00  0.00    +0.292 C 
BRANCH  10  12
ATOM     11  N   UNL     1      -0.418   5.204  26.100  0.00  0.00    -0.131 NA
ATOM     12  C   UNL     1      -0.090   3.894  26.290  0.00  0.00    +0.121 A 
ATOM     13  C   UNL     1       0.240   3.335  25.078  0.00  0.00    +0.143 A 
ATOM     14  N   UNL     1       0.100   4.351  24.164  0.00  0.00    -0.220 N 
ATOM     15  N   UNL     1      -0.300   5.477  24.805  0.00  0.00    -0.060 NA
BRANCH  14  16
ATOM     16  C   UNL     1       0.315   4.308  22.763  0.00  0.00    +0.071 A 
ATOM     17  C   UNL     1      -0.746   4.564  21.881  0.00  0.00    +0.077 A 
ATOM     18  C   UNL     1      -0.486   4.510  20.529  0.00  0.00    +0.168 A 
ATOM     19  O   UNL     1      -1.398   4.735  19.547  0.00  0.00    -0.453 OA
ATOM     20  C   UNL     1      -0.579   4.556  18.374  0.00  0.00    +0.466 C 
ATOM     21  O   UNL     1       0.793   4.222  18.677  0.00  0.00    -0.453 OA
ATOM     22  C   UNL     1       0.763   4.219  20.036  0.00  0.00    +0.166 A 
ATOM     23  C   UNL     1       1.828   3.961  20.872  0.00  0.00    +0.051 A 
ATOM     24  C   UNL     1       1.602   4.007  22.255  0.00  0.00    +0.031 A 
ENDBRANCH  14  16
ENDBRANCH  10  12
ENDBRANCH   9  10
ENDBRANCH   5   9
ENDBRANCH   4   7
ENDBRANCH   1   4
BRANCH   1  25
ATOM     25  C   UNL     1       4.808   2.967  32.885  0.00  0.00    +0.175 C 
BRANCH  25  26
ATOM     26  C   UNL     1       5.354   3.656  34.144  0.00  0.00    +0.176 C 
ATOM     27  O   UNL     1       5.352   5.090  33.905  0.00  0.00    -0.332 OA
ATOM     28  C   UNL     1       5.745   5.923  35.046  0.00  0.00    +0.277 C 
ATOM     29  C   UNL     1       7.129   5.485  35.585  0.00  0.00    +0.110 C 
ATOM     30  C   UNL     1       7.190   3.961  35.824  0.00  0.00    +0.143 C 
ATOM     31  C   UNL     1       6.758   3.192  34.575  0.00  0.00    +0.133 C 
BRANCH  31  32
ATOM     32  N   UNL     1       6.737   1.745  34.843  0.00  0.00    -0.308 N 
ATOM     33  H   UNL     1       6.055   1.398  35.503  0.00  0.00    +0.149 HD
ATOM     34  C   UNL     1       7.560   0.862  34.271  0.00  0.00    +0.210 C 
ATOM     35  C   UNL     1       8.604   1.427  33.290  0.00  0.00    +0.109 C 
ATOM     36  O   UNL     1       7.509  -0.346  34.503  0.00  0.00    -0.276 OA
ENDBRANCH  31  32
BRANCH  28  37
ATOM     37  C   UNL     1       4.699   5.832  36.176  0.00  0.00    +0.414 C 
ATOM     38  O   UNL     1       5.004   6.134  37.329  0.00  0.00    -0.240 OA
ATOM     39  O   UNL     1       3.551   5.457  35.935  0.00  0.00    -0.240 OA
ENDBRANCH  28  37
BRANCH  30  40
ATOM     40  O   UNL     1       8.521   3.582  36.174  0.00  0.00    -0.390 OA
ATOM     41  H   UNL     1       8.703   3.845  37.079  0.00  0.00    +0.210 HD
ENDBRANCH  30  40
BRANCH  28  42
ATOM     42  O   UNL     1       5.848   7.295  34.585  0.00  0.00    -0.343 OA
ATOM     43  C   UNL     1       7.198   7.818  34.514  0.00  0.00    +0.198 C 
ENDBRANCH  28  42
ENDBRANCH  25  26
BRANCH  25  44
ATOM     44  O   UNL     1       5.818   2.937  31.857  0.00  0.00    -0.387 OA
ATOM     45  H   UNL     1       5.715   3.701  31.285  0.00  0.00    +0.210 HD
ENDBRANCH  25  44
ENDBRANCH   1  25
TORSDOF 14
