REMARK VINA RESULT:    -6.605      5.126      6.323
REMARK INTER + INTRA:         -13.566
REMARK INTER:                 -11.334
REMARK INTRA:                  -2.233
REMARK UNBOUND:                -2.135
REMARK  Name = lig_assembled_51.pdb
REMARK  16 active torsions:
REMARK  status: ('A' for Active; 'I' for Inactive)
REMARK    1  A    between atoms: _2  and  _9
REMARK    2  A    between atoms: _4  and  _22
REMARK    3  A    between atoms: _6  and  _7
REMARK    4  A    between atoms: _6  and  _22
REMARK    5  A    between atoms: _18  and  _38
REMARK    6  A    between atoms: _20  and  _26
REMARK    7  A    between atoms: _21  and  _25
REMARK    8  A    between atoms: _25  and  _26
REMARK    9  A    between atoms: _28  and  _29
REMARK   10  A    between atoms: _30  and  _31
REMARK   11  A    between atoms: _32  and  _34
REMARK   12  A    between atoms: _34  and  _35
REMARK   13  A    between atoms: _34  and  _36
REMARK   14  A    between atoms: _36  and  _37
REMARK   15  A    between atoms: _36  and  _38
REMARK   16  A    between atoms: _39  and  _41
REMARK                            x       y       z     vdW  Elec       q    Type
REMARK                         _______ _______ _______ _____ _____    ______ ____
ROOT
ATOM      1  C   UNL     1       5.327   2.739  32.658  0.00  0.00    +0.163 C 
ENDROOT
BRANCH   1   2
ATOM      2  O   UNL     1       4.471   3.892  32.708  0.00  0.00    -0.388 OA
ATOM      3  H   UNL     1       4.571   4.330  33.557  0.00  0.00    +0.210 HD
ENDBRANCH   1   2
BRANCH   1   4
ATOM      4  C   UNL     1       4.757   1.628  33.534  0.00  0.00    +0.141 C 
BRANCH   4   7
ATOM      5  C   UNL     1       6.099  -0.446  33.527  0.00  0.00    +0.401 C 
ATOM      6  O   UNL     1       6.827  -0.089  34.457  0.00  0.00    -0.226 OA
ATOM      7  N   UNL     1       5.111   0.296  33.028  0.00  0.00    -0.279 N 
ATOM      8  H   UNL     1       4.575  -0.079  32.258  0.00  0.00    +0.152 HD
BRANCH   5   9
ATOM      9  O   UNL     1       6.313  -1.728  32.930  0.00  0.00    -0.444 OA
BRANCH   9  10
ATOM     10  C   UNL     1       7.388  -1.644  31.990  0.00  0.00    +0.292 C 
BRANCH  10  12
ATOM     11  N   UNL     1       5.779  -0.979  30.230  0.00  0.00    -0.131 NA
ATOM     12  C   UNL     1       6.870  -1.709  30.611  0.00  0.00    +0.120 A 
ATOM     13  C   UNL     1       7.322  -2.436  29.533  0.00  0.00    +0.137 A 
ATOM     14  N   UNL     1       6.460  -2.111  28.522  0.00  0.00    -0.245 N 
ATOM     15  N   UNL     1       5.536  -1.232  28.952  0.00  0.00    -0.065 NA
BRANCH  14  16
ATOM     16  C   UNL     1       6.465  -2.611  27.145  0.00  0.00    +0.066 C 
ATOM     17  C   UNL     1       6.170  -4.136  27.130  0.00  0.00    +0.034 C 
ATOM     18  C   UNL     1       6.125  -4.673  25.689  0.00  0.00    -0.008 C 
ATOM     19  C   UNL     1       5.028  -3.931  24.907  0.00  0.00    +0.007 C 
ATOM     20  C   UNL     1       5.331  -2.424  24.873  0.00  0.00    -0.008 C 
ATOM     21  C   UNL     1       6.694  -2.194  24.203  0.00  0.00    +0.007 C 
ATOM     22  C   UNL     1       7.794  -2.925  24.988  0.00  0.00    -0.008 C 
ATOM     23  C   UNL     1       7.483  -4.430  25.015  0.00  0.00    +0.007 C 
ATOM     24  C   UNL     1       5.374  -1.883  26.312  0.00  0.00    +0.034 C 
ATOM     25  C   UNL     1       7.832  -2.389  26.429  0.00  0.00    +0.034 C 
ENDBRANCH  14  16
ENDBRANCH  10  12
ENDBRANCH   9  10
ENDBRANCH   5   9
ENDBRANCH   4   7
ENDBRANCH   1   4
BRANCH   1  26
ATOM     26  C   UNL     1       6.748   3.089  33.132  0.00  0.00    +0.175 C 
BRANCH  26  27
ATOM     27  C   UNL     1       6.740   3.899  34.437  0.00  0.00    +0.176 C 
ATOM     28  O   UNL     1       6.485   5.290  34.097  0.00  0.00    -0.332 OA
ATOM     29  C   UNL     1       6.336   6.203  35.235  0.00  0.00    +0.277 C 
ATOM     30  C   UNL     1       7.568   6.109  36.169  0.00  0.00    +0.110 C 
ATOM     31  C   UNL     1       7.897   4.645  36.532  0.00  0.00    +0.143 C 
ATOM     32  C   UNL     1       8.026   3.784  35.275  0.00  0.00    +0.133 C 
BRANCH  32  33
ATOM     33  N   UNL     1       8.254   2.376  35.637  0.00  0.00    -0.308 N 
ATOM     34  H   UNL     1       7.488   1.867  36.055  0.00  0.00    +0.149 HD
ATOM     35  C   UNL     1       9.406   1.727  35.448  0.00  0.00    +0.210 C 
ATOM     36  C   UNL     1      10.561   2.538  34.832  0.00  0.00    +0.109 C 
ATOM     37  O   UNL     1       9.562   0.543  35.747  0.00  0.00    -0.276 OA
ENDBRANCH  32  33
BRANCH  29  38
ATOM     38  C   UNL     1       5.057   5.877  36.033  0.00  0.00    +0.414 C 
ATOM     39  O   UNL     1       4.108   5.321  35.484  0.00  0.00    -0.240 OA
ATOM     40  O   UNL     1       4.974   6.172  37.227  0.00  0.00    -0.240 OA
ENDBRANCH  29  38
BRANCH  31  41
ATOM     41  O   UNL     1       9.121   4.595  37.266  0.00  0.00    -0.390 OA
ATOM     42  H   UNL     1       9.331   3.682  37.475  0.00  0.00    +0.210 HD
ENDBRANCH  31  41
BRANCH  29  43
ATOM     43  O   UNL     1       6.258   7.556  34.717  0.00  0.00    -0.343 OA
ATOM     44  C   UNL     1       7.537   8.189  34.462  0.00  0.00    +0.198 C 
ENDBRANCH  29  43
ENDBRANCH  26  27
BRANCH  26  45
ATOM     45  O   UNL     1       7.451   3.812  32.103  0.00  0.00    -0.387 OA
ATOM     46  H   UNL     1       8.261   4.179  32.465  0.00  0.00    +0.210 HD
ENDBRANCH  26  45
ENDBRANCH   1  26
TORSDOF 14
