REMARK VINA RESULT:    -6.121     14.280     16.509
REMARK INTER + INTRA:         -13.249
REMARK INTER:                 -11.398
REMARK INTRA:                  -1.851
REMARK UNBOUND:                -2.296
REMARK  Name = lig_assembled_63.pdb
REMARK  17 active torsions:
REMARK  status: ('A' for Active; 'I' for Inactive)
REMARK    1  A    between atoms: _2  and  _11
REMARK    2  A    between atoms: _6  and  _20
REMARK    3  A    between atoms: _7  and  _15
REMARK    4  A    between atoms: _8  and  _9
REMARK    5  A    between atoms: _8  and  _20
REMARK    6  A    between atoms: _16  and  _36
REMARK    7  A    between atoms: _18  and  _24
REMARK    8  A    between atoms: _19  and  _23
REMARK    9  A    between atoms: _23  and  _24
REMARK   10  A    between atoms: _26  and  _27
REMARK   11  A    between atoms: _28  and  _29
REMARK   12  A    between atoms: _30  and  _32
REMARK   13  A    between atoms: _32  and  _33
REMARK   14  A    between atoms: _32  and  _34
REMARK   15  A    between atoms: _34  and  _35
REMARK   16  A    between atoms: _34  and  _36
REMARK   17  A    between atoms: _37  and  _39
REMARK                            x       y       z     vdW  Elec       q    Type
REMARK                         _______ _______ _______ _____ _____    ______ ____
ROOT
ATOM      1  C   UNL     1       4.742   3.136  32.417  0.00  0.00    +0.163 C 
ENDROOT
BRANCH   1   2
ATOM      2  O   UNL     1       4.058   4.314  32.875  0.00  0.00    -0.388 OA
ATOM      3  H   UNL     1       3.681   4.778  32.124  0.00  0.00    +0.210 HD
ENDBRANCH   1   2
BRANCH   1   4
ATOM      4  C   UNL     1       3.965   1.889  32.828  0.00  0.00    +0.141 C 
BRANCH   4   7
ATOM      5  C   UNL     1       2.634   1.064  30.916  0.00  0.00    +0.401 C 
ATOM      6  O   UNL     1       3.588   0.500  30.375  0.00  0.00    -0.226 OA
ATOM      7  N   UNL     1       2.721   1.742  32.061  0.00  0.00    -0.279 N 
ATOM      8  H   UNL     1       1.885   2.179  32.422  0.00  0.00    +0.152 HD
BRANCH   5   9
ATOM      9  O   UNL     1       1.348   1.004  30.295  0.00  0.00    -0.444 OA
BRANCH   9  10
ATOM     10  C   UNL     1       0.906   2.328  29.983  0.00  0.00    +0.292 C 
BRANCH  10  12
ATOM     11  N   UNL     1       2.174   3.821  28.477  0.00  0.00    -0.131 NA
ATOM     12  C   UNL     1       1.375   2.726  28.644  0.00  0.00    +0.121 A 
ATOM     13  C   UNL     1       1.129   2.162  27.414  0.00  0.00    +0.145 A 
ATOM     14  N   UNL     1       1.776   2.981  26.510  0.00  0.00    -0.200 N 
ATOM     15  N   UNL     1       2.417   3.962  27.181  0.00  0.00    -0.059 NA
BRANCH  14  16
ATOM     16  C   UNL     1       1.739   2.869  25.088  0.00  0.00    +0.173 A 
ATOM     17  C   UNL     1       0.918   3.675  24.295  0.00  0.00    +0.096 A 
ATOM     18  C   UNL     1       0.887   3.414  22.915  0.00  0.00    +0.024 A 
ATOM     19  C   UNL     1       1.673   2.403  22.368  0.00  0.00    +0.021 A 
ATOM     20  C   UNL     1       2.484   1.680  23.219  0.00  0.00    +0.113 A 
ATOM     21  N   UNL     1       2.531   1.886  24.552  0.00  0.00    -0.235 NA
BRANCH  17  22
ATOM     22  C   UNL     1       0.115   4.763  24.767  0.00  0.00    +0.103 C 
ATOM     23  N   UNL     1      -0.533   5.600  25.245  0.00  0.00    -0.191 NA
ENDBRANCH  17  22
ENDBRANCH  14  16
ENDBRANCH  10  12
ENDBRANCH   9  10
ENDBRANCH   5   9
ENDBRANCH   4   7
ENDBRANCH   1   4
BRANCH   1  24
ATOM     24  C   UNL     1       6.166   3.067  32.993  0.00  0.00    +0.175 C 
BRANCH  24  25
ATOM     25  C   UNL     1       6.288   3.824  34.324  0.00  0.00    +0.176 C 
ATOM     26  O   UNL     1       6.199   5.247  34.039  0.00  0.00    -0.332 OA
ATOM     27  C   UNL     1       6.191   6.129  35.210  0.00  0.00    +0.277 C 
ATOM     28  C   UNL     1       7.423   5.851  36.105  0.00  0.00    +0.110 C 
ATOM     29  C   UNL     1       7.578   4.346  36.410  0.00  0.00    +0.143 C 
ATOM     30  C   UNL     1       7.571   3.523  35.122  0.00  0.00    +0.133 C 
BRANCH  30  31
ATOM     31  N   UNL     1       7.631   2.085  35.429  0.00  0.00    -0.308 N 
ATOM     32  H   UNL     1       6.835   1.667  35.890  0.00  0.00    +0.149 HD
ATOM     33  C   UNL     1       8.669   1.296  35.140  0.00  0.00    +0.210 C 
ATOM     34  C   UNL     1       9.878   1.968  34.461  0.00  0.00    +0.109 C 
ATOM     35  O   UNL     1       8.686   0.092  35.396  0.00  0.00    -0.276 OA
ENDBRANCH  30  31
BRANCH  27  36
ATOM     36  C   UNL     1       4.900   5.934  36.032  0.00  0.00    +0.414 C 
ATOM     37  O   UNL     1       3.885   5.489  35.498  0.00  0.00    -0.240 OA
ATOM     38  O   UNL     1       4.874   6.220  37.230  0.00  0.00    -0.240 OA
ENDBRANCH  27  36
BRANCH  27  39
ATOM     39  O   UNL     1       6.267   7.500  34.739  0.00  0.00    -0.343 OA
ATOM     40  C   UNL     1       7.598   8.076  34.746  0.00  0.00    +0.198 C 
ENDBRANCH  27  39
BRANCH  29  41
ATOM     41  O   UNL     1       8.803   4.120  37.107  0.00  0.00    -0.390 OA
ATOM     42  H   UNL     1       8.624   4.017  38.045  0.00  0.00    +0.210 HD
ENDBRANCH  29  41
ENDBRANCH  24  25
BRANCH  24  43
ATOM     43  O   UNL     1       7.114   3.585  32.039  0.00  0.00    -0.387 OA
ATOM     44  H   UNL     1       7.174   2.987  31.290  0.00  0.00    +0.210 HD
ENDBRANCH  24  43
ENDBRANCH   1  24
TORSDOF 15
