REMARK VINA RESULT:    -5.837      2.121      3.771
REMARK INTER + INTRA:         -13.027
REMARK INTER:                 -10.984
REMARK INTRA:                  -2.043
REMARK UNBOUND:                -1.902
REMARK  Name = lig_assembled_13.pdb
REMARK  20 active torsions:
REMARK  status: ('A' for Active; 'I' for Inactive)
REMARK    1  A    between atoms: _2  and  _9
REMARK    2  A    between atoms: _4  and  _18
REMARK    3  A    between atoms: _5  and  _11
REMARK    4  A    between atoms: _6  and  _7
REMARK    5  A    between atoms: _6  and  _18
REMARK    6  A    between atoms: _9  and  _10
REMARK    7  A    between atoms: _10  and  _12
REMARK    8  A    between atoms: _11  and  _12
REMARK    9  A    between atoms: _14  and  _34
REMARK   10  A    between atoms: _16  and  _22
REMARK   11  A    between atoms: _17  and  _21
REMARK   12  A    between atoms: _21  and  _22
REMARK   13  A    between atoms: _24  and  _25
REMARK   14  A    between atoms: _26  and  _27
REMARK   15  A    between atoms: _28  and  _30
REMARK   16  A    between atoms: _30  and  _31
REMARK   17  A    between atoms: _30  and  _32
REMARK   18  A    between atoms: _32  and  _33
REMARK   19  A    between atoms: _32  and  _34
REMARK   20  A    between atoms: _35  and  _37
REMARK                            x       y       z     vdW  Elec       q    Type
REMARK                         _______ _______ _______ _____ _____    ______ ____
ROOT
ATOM      1  C   UNL     1       6.101   3.208  33.385  0.00  0.00    +0.163 C 
ENDROOT
BRANCH   1   2
ATOM      2  O   UNL     1       6.810   4.363  32.906  0.00  0.00    -0.388 OA
ATOM      3  H   UNL     1       6.361   4.719  32.136  0.00  0.00    +0.210 HD
ENDBRANCH   1   2
BRANCH   1   4
ATOM      4  C   UNL     1       5.032   3.608  34.416  0.00  0.00    +0.175 C 
BRANCH   4   5
ATOM      5  C   UNL     1       5.455   4.830  35.244  0.00  0.00    +0.176 C 
ATOM      6  O   UNL     1       6.868   4.690  35.558  0.00  0.00    -0.332 OA
ATOM      7  C   UNL     1       7.477   5.824  36.260  0.00  0.00    +0.277 C 
ATOM      8  C   UNL     1       6.683   6.152  37.549  0.00  0.00    +0.110 C 
ATOM      9  C   UNL     1       5.171   6.279  37.269  0.00  0.00    +0.143 C 
ATOM     10  C   UNL     1       4.643   5.047  36.534  0.00  0.00    +0.133 C 
BRANCH  10  11
ATOM     11  N   UNL     1       3.221   5.218  36.197  0.00  0.00    -0.308 N 
ATOM     12  H   UNL     1       2.983   5.900  35.490  0.00  0.00    +0.149 HD
ATOM     13  C   UNL     1       2.225   4.532  36.764  0.00  0.00    +0.210 C 
ATOM     14  C   UNL     1       2.619   3.520  37.856  0.00  0.00    +0.109 C 
ATOM     15  O   UNL     1       1.044   4.686  36.451  0.00  0.00    -0.276 OA
ENDBRANCH  10  11
BRANCH   7  16
ATOM     16  C   UNL     1       7.521   7.069  35.351  0.00  0.00    +0.414 C 
ATOM     17  O   UNL     1       7.403   6.952  34.132  0.00  0.00    -0.240 OA
ATOM     18  O   UNL     1       7.676   8.191  35.836  0.00  0.00    -0.240 OA
ENDBRANCH   7  16
BRANCH   7  19
ATOM     19  O   UNL     1       8.826   5.446  36.637  0.00  0.00    -0.343 OA
ATOM     20  C   UNL     1       9.221   5.842  37.975  0.00  0.00    +0.198 C 
ENDBRANCH   7  19
BRANCH   9  21
ATOM     21  O   UNL     1       4.465   6.431  38.501  0.00  0.00    -0.390 OA
ATOM     22  H   UNL     1       4.555   5.630  39.023  0.00  0.00    +0.210 HD
ENDBRANCH   9  21
ENDBRANCH   4   5
BRANCH   4  23
ATOM     23  O   UNL     1       4.741   2.495  35.286  0.00  0.00    -0.387 OA
ATOM     24  H   UNL     1       4.700   2.802  36.195  0.00  0.00    +0.210 HD
ENDBRANCH   4  23
ENDBRANCH   1   4
BRANCH   1  25
ATOM     25  C   UNL     1       5.439   2.482  32.218  0.00  0.00    +0.141 C 
BRANCH  25  28
ATOM     26  C   UNL     1       3.118   2.763  31.417  0.00  0.00    +0.401 C 
ATOM     27  O   UNL     1       2.796   1.595  31.651  0.00  0.00    -0.226 OA
ATOM     28  N   UNL     1       4.334   3.261  31.646  0.00  0.00    -0.279 N 
ATOM     29  H   UNL     1       4.504   4.229  31.412  0.00  0.00    +0.152 HD
BRANCH  26  30
ATOM     30  O   UNL     1       2.146   3.653  30.863  0.00  0.00    -0.444 OA
BRANCH  30  31
ATOM     31  C   UNL     1       1.119   2.897  30.216  0.00  0.00    +0.292 C 
BRANCH  31  33
ATOM     32  N   UNL     1       2.205   3.674  28.132  0.00  0.00    -0.131 NA
ATOM     33  C   UNL     1       1.096   3.192  28.772  0.00  0.00    +0.120 A 
ATOM     34  C   UNL     1       0.070   3.067  27.866  0.00  0.00    +0.137 A 
ATOM     35  N   UNL     1       0.597   3.554  26.705  0.00  0.00    -0.241 N 
ATOM     36  N   UNL     1       1.893   3.872  26.856  0.00  0.00    -0.065 NA
BRANCH  35  37
ATOM     37  C   UNL     1      -0.030   3.649  25.406  0.00  0.00    +0.265 C 
BRANCH  37  38
ATOM     38  C   UNL     1      -0.318   5.072  25.023  0.00  0.00    +0.329 C 
ATOM     39  O   UNL     1      -0.972   5.881  25.665  0.00  0.00    -0.249 OA
BRANCH  38  40
ATOM     40  O   UNL     1       0.182   5.304  23.771  0.00  0.00    -0.464 OA
BRANCH  40  41
ATOM     41  C   UNL     1       1.148   4.344  23.318  0.00  0.00    +0.229 C 
ATOM     42  C   UNL     1       1.767   4.875  22.037  0.00  0.00    +0.048 C 
ENDBRANCH  40  41
ENDBRANCH  38  40
ENDBRANCH  37  38
ENDBRANCH  35  37
ENDBRANCH  31  33
ENDBRANCH  30  31
ENDBRANCH  26  30
ENDBRANCH  25  28
ENDBRANCH   1  25
TORSDOF 17
