REMARK VINA RESULT:    -5.807      1.911      4.356
REMARK INTER + INTRA:         -12.639
REMARK INTER:                 -11.427
REMARK INTRA:                  -1.212
REMARK UNBOUND:                -2.248
REMARK  Name = lig_assembled_61.pdb
REMARK  17 active torsions:
REMARK  status: ('A' for Active; 'I' for Inactive)
REMARK    1  A    between atoms: _2  and  _9
REMARK    2  A    between atoms: _4  and  _17
REMARK    3  A    between atoms: _6  and  _7
REMARK    4  A    between atoms: _6  and  _17
REMARK    5  A    between atoms: _9  and  _10
REMARK    6  A    between atoms: _13  and  _33
REMARK    7  A    between atoms: _15  and  _21
REMARK    8  A    between atoms: _16  and  _20
REMARK    9  A    between atoms: _20  and  _21
REMARK   10  A    between atoms: _23  and  _24
REMARK   11  A    between atoms: _25  and  _26
REMARK   12  A    between atoms: _27  and  _29
REMARK   13  A    between atoms: _29  and  _30
REMARK   14  A    between atoms: _29  and  _31
REMARK   15  A    between atoms: _31  and  _32
REMARK   16  A    between atoms: _31  and  _33
REMARK   17  A    between atoms: _34  and  _36
REMARK                            x       y       z     vdW  Elec       q    Type
REMARK                         _______ _______ _______ _____ _____    ______ ____
ROOT
ATOM      1  C   UNL     1       3.975   3.544  32.403  0.00  0.00    +0.163 C 
ENDROOT
BRANCH   1   2
ATOM      2  O   UNL     1       4.024   4.757  33.172  0.00  0.00    -0.388 OA
ATOM      3  H   UNL     1       3.341   5.358  32.866  0.00  0.00    +0.210 HD
ENDBRANCH   1   2
BRANCH   1   4
ATOM      4  C   UNL     1       2.618   3.413  31.721  0.00  0.00    +0.141 C 
BRANCH   4   7
ATOM      5  C   UNL     1       1.795   3.365  29.391  0.00  0.00    +0.401 C 
ATOM      6  O   UNL     1       0.696   3.851  29.670  0.00  0.00    -0.226 OA
ATOM      7  N   UNL     1       2.751   3.121  30.288  0.00  0.00    -0.279 N 
ATOM      8  H   UNL     1       3.616   2.712  29.964  0.00  0.00    +0.152 HD
BRANCH   5   9
ATOM      9  O   UNL     1       2.082   3.032  28.031  0.00  0.00    -0.444 OA
BRANCH   9  10
ATOM     10  C   UNL     1       0.861   2.948  27.291  0.00  0.00    +0.292 C 
BRANCH  10  12
ATOM     11  N   UNL     1      -0.083   4.817  25.972  0.00  0.00    -0.131 NA
ATOM     12  C   UNL     1       0.892   3.868  26.139  0.00  0.00    +0.120 A 
ATOM     13  C   UNL     1       1.797   3.962  25.104  0.00  0.00    +0.137 A 
ATOM     14  N   UNL     1       1.286   4.948  24.312  0.00  0.00    -0.247 N 
ATOM     15  N   UNL     1       0.180   5.488  24.857  0.00  0.00    -0.065 NA
BRANCH  14  16
ATOM     16  C   UNL     1       1.808   5.453  23.055  0.00  0.00    +0.180 C 
BRANCH  16  17
ATOM     17  C   UNL     1       1.161   4.786  21.874  0.00  0.00    -0.019 A 
ATOM     18  C   UNL     1       1.764   3.737  21.098  0.00  0.00    +0.013 A 
ATOM     19  C   UNL     1       0.973   3.329  20.046  0.00  0.00    +0.045 A 
ATOM     20  S   UNL     1      -0.502   4.186  19.983  0.00  0.00    -0.105 S 
ATOM     21  C   UNL     1      -0.081   5.114  21.355  0.00  0.00    +0.050 A 
ENDBRANCH  16  17
ENDBRANCH  14  16
ENDBRANCH  10  12
ENDBRANCH   9  10
ENDBRANCH   5   9
ENDBRANCH   4   7
ENDBRANCH   1   4
BRANCH   1  22
ATOM     22  C   UNL     1       4.221   2.316  33.297  0.00  0.00    +0.175 C 
BRANCH  22  23
ATOM     23  C   UNL     1       5.482   1.543  32.884  0.00  0.00    +0.176 C 
ATOM     24  O   UNL     1       5.297   0.151  33.262  0.00  0.00    -0.332 OA
ATOM     25  C   UNL     1       6.364  -0.765  32.849  0.00  0.00    +0.277 C 
ATOM     26  C   UNL     1       7.737  -0.262  33.357  0.00  0.00    +0.110 C 
ATOM     27  C   UNL     1       7.965   1.223  33.006  0.00  0.00    +0.143 C 
ATOM     28  C   UNL     1       6.794   2.085  33.479  0.00  0.00    +0.133 C 
BRANCH  28  29
ATOM     29  N   UNL     1       6.982   3.484  33.062  0.00  0.00    -0.308 N 
ATOM     30  H   UNL     1       6.898   3.698  32.078  0.00  0.00    +0.149 HD
ATOM     31  C   UNL     1       7.257   4.488  33.898  0.00  0.00    +0.210 C 
ATOM     32  C   UNL     1       7.404   4.125  35.388  0.00  0.00    +0.109 C 
ATOM     33  O   UNL     1       7.394   5.653  33.523  0.00  0.00    -0.276 OA
ENDBRANCH  28  29
BRANCH  25  34
ATOM     34  C   UNL     1       6.402  -0.902  31.312  0.00  0.00    +0.414 C 
ATOM     35  O   UNL     1       5.373  -0.767  30.652  0.00  0.00    -0.240 OA
ATOM     36  O   UNL     1       7.461  -1.148  30.733  0.00  0.00    -0.240 OA
ENDBRANCH  25  34
BRANCH  25  37
ATOM     37  O   UNL     1       6.101  -2.060  33.448  0.00  0.00    -0.343 OA
ATOM     38  C   UNL     1       4.854  -2.153  34.182  0.00  0.00    +0.198 C 
ENDBRANCH  25  37
BRANCH  27  39
ATOM     39  O   UNL     1       9.169   1.685  33.621  0.00  0.00    -0.390 OA
ATOM     40  H   UNL     1       9.918   1.474  33.059  0.00  0.00    +0.210 HD
ENDBRANCH  27  39
ENDBRANCH  22  23
BRANCH  22  41
ATOM     41  O   UNL     1       3.073   1.445  33.271  0.00  0.00    -0.387 OA
ATOM     42  H   UNL     1       3.359   0.543  33.104  0.00  0.00    +0.210 HD
ENDBRANCH  22  41
ENDBRANCH   1  22
TORSDOF 15
