REMARK VINA RESULT:    -5.818      0.000      0.000
REMARK INTER + INTRA:         -13.903
REMARK INTER:                 -11.776
REMARK INTRA:                  -2.127
REMARK UNBOUND:                -3.154
REMARK  Name = lig_assembled_67.pdb
REMARK  18 active torsions:
REMARK  status: ('A' for Active; 'I' for Inactive)
REMARK    1  A    between atoms: _2  and  _9
REMARK    2  A    between atoms: _4  and  _19
REMARK    3  A    between atoms: _6  and  _7
REMARK    4  A    between atoms: _6  and  _19
REMARK    5  A    between atoms: _9  and  _10
REMARK    6  A    between atoms: _10  and  _11
REMARK    7  A    between atoms: _15  and  _35
REMARK    8  A    between atoms: _17  and  _23
REMARK    9  A    between atoms: _18  and  _22
REMARK   10  A    between atoms: _22  and  _23
REMARK   11  A    between atoms: _25  and  _26
REMARK   12  A    between atoms: _27  and  _28
REMARK   13  A    between atoms: _29  and  _31
REMARK   14  A    between atoms: _31  and  _32
REMARK   15  A    between atoms: _31  and  _33
REMARK   16  A    between atoms: _33  and  _34
REMARK   17  A    between atoms: _33  and  _35
REMARK   18  A    between atoms: _36  and  _38
REMARK                            x       y       z     vdW  Elec       q    Type
REMARK                         _______ _______ _______ _____ _____    ______ ____
ROOT
ATOM      1  C   UNL     1       2.945   2.567  32.548  0.00  0.00    +0.163 C 
ENDROOT
BRANCH   1   2
ATOM      2  O   UNL     1       3.723   1.762  31.647  0.00  0.00    -0.388 OA
ATOM      3  H   UNL     1       3.250   1.660  30.818  0.00  0.00    +0.210 HD
ENDBRANCH   1   2
BRANCH   1   4
ATOM      4  C   UNL     1       3.811   3.662  33.196  0.00  0.00    +0.175 C 
BRANCH   4   5
ATOM      5  C   UNL     1       5.239   3.174  33.483  0.00  0.00    +0.176 C 
ATOM      6  O   UNL     1       5.157   1.798  33.943  0.00  0.00    -0.332 OA
ATOM      7  C   UNL     1       6.442   1.127  34.167  0.00  0.00    +0.277 C 
ATOM      8  C   UNL     1       7.321   1.953  35.138  0.00  0.00    +0.110 C 
ATOM      9  C   UNL     1       7.411   3.432  34.707  0.00  0.00    +0.143 C 
ATOM     10  C   UNL     1       6.019   4.029  34.499  0.00  0.00    +0.133 C 
BRANCH  10  11
ATOM     11  N   UNL     1       6.119   5.411  34.005  0.00  0.00    -0.308 N 
ATOM     12  H   UNL     1       6.418   5.550  33.050  0.00  0.00    +0.149 HD
ATOM     13  C   UNL     1       5.842   6.494  34.737  0.00  0.00    +0.210 C 
ATOM     14  C   UNL     1       5.415   6.249  36.196  0.00  0.00    +0.109 C 
ATOM     15  O   UNL     1       5.921   7.639  34.292  0.00  0.00    -0.276 OA
ENDBRANCH  10  11
BRANCH   7  16
ATOM     16  C   UNL     1       7.194   0.926  32.835  0.00  0.00    +0.414 C 
ATOM     17  O   UNL     1       6.591   0.539  31.835  0.00  0.00    -0.240 OA
ATOM     18  O   UNL     1       8.402   1.151  32.760  0.00  0.00    -0.240 OA
ENDBRANCH   7  16
BRANCH   9  19
ATOM     19  O   UNL     1       8.101   4.183  35.706  0.00  0.00    -0.390 OA
ATOM     20  H   UNL     1       7.670   5.033  35.823  0.00  0.00    +0.210 HD
ENDBRANCH   9  19
BRANCH   7  21
ATOM     21  O   UNL     1       6.175  -0.162  34.776  0.00  0.00    -0.343 OA
ATOM     22  C   UNL     1       4.771  -0.468  34.972  0.00  0.00    +0.198 C 
ENDBRANCH   7  21
ENDBRANCH   4   5
BRANCH   4  23
ATOM     23  O   UNL     1       3.192   4.130  34.411  0.00  0.00    -0.387 OA
ATOM     24  H   UNL     1       2.635   4.887  34.215  0.00  0.00    +0.210 HD
ENDBRANCH   4  23
ENDBRANCH   1   4
BRANCH   1  25
ATOM     25  C   UNL     1       1.783   3.213  31.800  0.00  0.00    +0.141 C 
BRANCH  25  28
ATOM     26  C   UNL     1       1.612   3.266  29.336  0.00  0.00    +0.401 C 
ATOM     27  O   UNL     1       0.699   2.439  29.288  0.00  0.00    -0.226 OA
ATOM     28  N   UNL     1       2.183   3.681  30.467  0.00  0.00    -0.279 N 
ATOM     29  H   UNL     1       2.933   4.355  30.404  0.00  0.00    +0.152 HD
BRANCH  26  30
ATOM     30  O   UNL     1       2.109   3.824  28.117  0.00  0.00    -0.444 OA
BRANCH  30  31
ATOM     31  C   UNL     1       1.644   3.046  27.011  0.00  0.00    +0.292 C 
BRANCH  31  33
ATOM     32  N   UNL     1       0.345   4.781  25.816  0.00  0.00    -0.131 NA
ATOM     33  C   UNL     1       1.403   3.909  25.839  0.00  0.00    +0.120 A 
ATOM     34  C   UNL     1       2.098   4.015  24.656  0.00  0.00    +0.137 A 
ATOM     35  N   UNL     1       1.415   4.963  23.957  0.00  0.00    -0.251 N 
ATOM     36  N   UNL     1       0.362   5.420  24.654  0.00  0.00    -0.065 NA
BRANCH  35  37
ATOM     37  C   UNL     1       1.706   5.490  22.642  0.00  0.00    +0.150 C 
BRANCH  37  38
ATOM     38  C   UNL     1       1.709   4.428  21.545  0.00  0.00    +0.084 C 
BRANCH  38  39
ATOM     39  C   UNL     1       0.311   4.119  21.029  0.00  0.00    +0.252 C 
ATOM     40  O   UNL     1      -0.245   3.010  21.743  0.00  0.00    -0.349 OA
ATOM     41  C   UNL     1      -1.647   3.267  21.702  0.00  0.00    +0.191 C 
ATOM     42  C   UNL     1      -1.729   4.767  21.818  0.00  0.00    +0.191 C 
ATOM     43  O   UNL     1      -0.543   5.256  21.189  0.00  0.00    -0.349 OA
ENDBRANCH  38  39
ENDBRANCH  37  38
ENDBRANCH  35  37
ENDBRANCH  31  33
ENDBRANCH  30  31
ENDBRANCH  26  30
ENDBRANCH  25  28
ENDBRANCH   1  25
TORSDOF 16
