REMARK VINA RESULT:    -6.324     13.247     17.992
REMARK INTER + INTRA:         -14.285
REMARK INTER:                 -12.074
REMARK INTRA:                  -2.211
REMARK UNBOUND:                -2.230
REMARK  Name = lig_assembled_9.pdb
REMARK  20 active torsions:
REMARK  status: ('A' for Active; 'I' for Inactive)
REMARK    1  A    between atoms: _2  and  _9
REMARK    2  A    between atoms: _4  and  _23
REMARK    3  A    between atoms: _6  and  _7
REMARK    4  A    between atoms: _6  and  _23
REMARK    5  A    between atoms: _11  and  _12
REMARK    6  A    between atoms: _12  and  _17
REMARK    7  A    between atoms: _13  and  _14
REMARK    8  A    between atoms: _13  and  _17
REMARK    9  A    between atoms: _19  and  _39
REMARK   10  A    between atoms: _21  and  _27
REMARK   11  A    between atoms: _22  and  _26
REMARK   12  A    between atoms: _26  and  _27
REMARK   13  A    between atoms: _29  and  _30
REMARK   14  A    between atoms: _31  and  _32
REMARK   15  A    between atoms: _33  and  _35
REMARK   16  A    between atoms: _35  and  _36
REMARK   17  A    between atoms: _35  and  _37
REMARK   18  A    between atoms: _37  and  _38
REMARK   19  A    between atoms: _37  and  _39
REMARK   20  A    between atoms: _40  and  _42
REMARK                            x       y       z     vdW  Elec       q    Type
REMARK                         _______ _______ _______ _____ _____    ______ ____
ROOT
ATOM      1  C   UNL     1      18.071   5.454  23.674  0.00  0.00    +0.163 C 
ENDROOT
BRANCH   1   2
ATOM      2  O   UNL     1      17.084   5.444  22.630  0.00  0.00    -0.388 OA
ATOM      3  H   UNL     1      16.486   4.704  22.761  0.00  0.00    +0.210 HD
ENDBRANCH   1   2
BRANCH   1   4
ATOM      4  C   UNL     1      18.905   4.162  23.655  0.00  0.00    +0.175 C 
BRANCH   4   5
ATOM      5  C   UNL     1      18.201   3.009  24.385  0.00  0.00    +0.176 C 
ATOM      6  O   UNL     1      19.006   2.655  25.543  0.00  0.00    -0.332 OA
ATOM      7  C   UNL     1      18.433   1.635  26.426  0.00  0.00    +0.277 C 
ATOM      8  C   UNL     1      18.083   0.359  25.623  0.00  0.00    +0.110 C 
ATOM      9  C   UNL     1      17.254   0.688  24.364  0.00  0.00    +0.143 C 
ATOM     10  C   UNL     1      17.941   1.762  23.519  0.00  0.00    +0.133 C 
BRANCH  10  11
ATOM     11  N   UNL     1      17.100   2.129  22.369  0.00  0.00    -0.308 N 
ATOM     12  H   UNL     1      16.254   2.650  22.550  0.00  0.00    +0.149 HD
ATOM     13  C   UNL     1      17.383   1.818  21.101  0.00  0.00    +0.210 C 
ATOM     14  C   UNL     1      18.666   1.002  20.860  0.00  0.00    +0.109 C 
ATOM     15  O   UNL     1      16.668   2.152  20.155  0.00  0.00    -0.276 OA
ENDBRANCH  10  11
BRANCH   7  16
ATOM     16  C   UNL     1      17.165   2.168  27.126  0.00  0.00    +0.414 C 
ATOM     17  O   UNL     1      16.070   1.655  26.898  0.00  0.00    -0.240 OA
ATOM     18  O   UNL     1      17.237   3.109  27.917  0.00  0.00    -0.240 OA
ENDBRANCH   7  16
BRANCH   7  19
ATOM     19  O   UNL     1      19.431   1.290  27.421  0.00  0.00    -0.343 OA
ATOM     20  C   UNL     1      20.786   1.183  26.917  0.00  0.00    +0.198 C 
ENDBRANCH   7  19
BRANCH   9  21
ATOM     21  O   UNL     1      17.084  -0.492  23.577  0.00  0.00    -0.390 OA
ATOM     22  H   UNL     1      17.179  -0.274  22.647  0.00  0.00    +0.210 HD
ENDBRANCH   9  21
ENDBRANCH   4   5
BRANCH   4  23
ATOM     23  O   UNL     1      20.203   4.400  24.236  0.00  0.00    -0.387 OA
ATOM     24  H   UNL     1      20.267   3.939  25.076  0.00  0.00    +0.210 HD
ENDBRANCH   4  23
ENDBRANCH   1   4
BRANCH   1  25
ATOM     25  C   UNL     1      18.993   6.658  23.509  0.00  0.00    +0.141 C 
BRANCH  25  28
ATOM     26  C   UNL     1      20.228   7.624  25.419  0.00  0.00    +0.401 C 
ATOM     27  O   UNL     1      21.311   7.140  25.085  0.00  0.00    -0.226 OA
ATOM     28  N   UNL     1      19.091   7.446  24.744  0.00  0.00    -0.279 N 
ATOM     29  H   UNL     1      18.251   7.876  25.103  0.00  0.00    +0.152 HD
BRANCH  26  30
ATOM     30  O   UNL     1      20.160   8.427  26.601  0.00  0.00    -0.444 OA
BRANCH  30  31
ATOM     31  C   UNL     1      19.665   7.639  27.686  0.00  0.00    +0.292 C 
BRANCH  31  33
ATOM     32  N   UNL     1      18.596   9.763  28.374  0.00  0.00    -0.131 NA
ATOM     33  C   UNL     1      19.014   8.503  28.689  0.00  0.00    +0.121 A 
ATOM     34  C   UNL     1      18.714   8.245  30.006  0.00  0.00    +0.143 A 
ATOM     35  N   UNL     1      18.070   9.378  30.451  0.00  0.00    -0.220 N 
ATOM     36  N   UNL     1      18.031  10.291  29.452  0.00  0.00    -0.060 NA
BRANCH  35  37
ATOM     37  C   UNL     1      17.482   9.623  31.719  0.00  0.00    +0.068 A 
ATOM     38  C   UNL     1      16.934   8.571  32.465  0.00  0.00    +0.042 A 
ATOM     39  C   UNL     1      16.326   8.824  33.704  0.00  0.00    +0.061 A 
ATOM     40  C   UNL     1      16.271  10.133  34.196  0.00  0.00    +0.015 A 
ATOM     41  C   UNL     1      16.828  11.181  33.460  0.00  0.00    +0.003 A 
ATOM     42  C   UNL     1      17.433  10.930  32.228  0.00  0.00    +0.028 A 
BRANCH  39  43
ATOM     43  C   UNL     1      15.786   7.729  34.553  0.00  0.00    +0.339 C 
ATOM     44  O   UNL     1      15.852   7.722  35.771  0.00  0.00    -0.245 OA
BRANCH  43  45
ATOM     45  O   UNL     1      15.319   6.727  33.768  0.00  0.00    -0.461 OA
BRANCH  45  46
ATOM     46  C   UNL     1      15.637   5.400  34.204  0.00  0.00    +0.229 C 
ATOM     47  C   UNL     1      17.075   5.111  33.816  0.00  0.00    +0.048 C 
ENDBRANCH  45  46
ENDBRANCH  43  45
ENDBRANCH  39  43
ENDBRANCH  35  37
ENDBRANCH  31  33
ENDBRANCH  30  31
ENDBRANCH  26  30
ENDBRANCH  25  28
ENDBRANCH   1  25
TORSDOF 17
