REMARK VINA RESULT:    -5.876      1.893      2.619
REMARK INTER + INTRA:         -13.049
REMARK INTER:                 -11.436
REMARK INTRA:                  -1.614
REMARK UNBOUND:                -2.536
REMARK  Name = lig_assembled_44.pdb
REMARK  17 active torsions:
REMARK  status: ('A' for Active; 'I' for Inactive)
REMARK    1  A    between atoms: _2  and  _9
REMARK    2  A    between atoms: _4  and  _19
REMARK    3  A    between atoms: _6  and  _7
REMARK    4  A    between atoms: _6  and  _19
REMARK    5  A    between atoms: _9  and  _10
REMARK    6  A    between atoms: _15  and  _35
REMARK    7  A    between atoms: _17  and  _23
REMARK    8  A    between atoms: _18  and  _22
REMARK    9  A    between atoms: _22  and  _23
REMARK   10  A    between atoms: _25  and  _26
REMARK   11  A    between atoms: _27  and  _28
REMARK   12  A    between atoms: _29  and  _31
REMARK   13  A    between atoms: _31  and  _32
REMARK   14  A    between atoms: _31  and  _33
REMARK   15  A    between atoms: _33  and  _34
REMARK   16  A    between atoms: _33  and  _35
REMARK   17  A    between atoms: _36  and  _38
REMARK                            x       y       z     vdW  Elec       q    Type
REMARK                         _______ _______ _______ _____ _____    ______ ____
ROOT
ATOM      1  C   UNL     1       3.687   3.223  32.260  0.00  0.00    +0.163 C 
ENDROOT
BRANCH   1   2
ATOM      2  O   UNL     1       3.369   4.622  32.181  0.00  0.00    -0.388 OA
ATOM      3  H   UNL     1       3.900   5.033  31.494  0.00  0.00    +0.210 HD
ENDBRANCH   1   2
BRANCH   1   4
ATOM      4  C   UNL     1       2.786   2.429  31.319  0.00  0.00    +0.141 C 
BRANCH   4   7
ATOM      5  C   UNL     1       1.283   3.120  29.484  0.00  0.00    +0.401 C 
ATOM      6  O   UNL     1       0.347   2.409  29.856  0.00  0.00    -0.226 OA
ATOM      7  N   UNL     1       2.462   3.187  30.104  0.00  0.00    -0.279 N 
ATOM      8  H   UNL     1       3.171   3.793  29.716  0.00  0.00    +0.152 HD
BRANCH   5   9
ATOM      9  O   UNL     1       1.119   3.928  28.315  0.00  0.00    -0.444 OA
BRANCH   9  10
ATOM     10  C   UNL     1       1.371   3.139  27.149  0.00  0.00    +0.292 C 
BRANCH  10  12
ATOM     11  N   UNL     1       0.120   4.811  25.815  0.00  0.00    -0.131 NA
ATOM     12  C   UNL     1       1.175   3.944  25.929  0.00  0.00    +0.120 A 
ATOM     13  C   UNL     1       1.934   4.006  24.784  0.00  0.00    +0.137 A 
ATOM     14  N   UNL     1       1.334   4.983  24.045  0.00  0.00    -0.247 N 
ATOM     15  N   UNL     1       0.221   5.436  24.649  0.00  0.00    -0.065 NA
BRANCH  14  16
ATOM     16  C   UNL     1       1.757   5.532  22.772  0.00  0.00    +0.180 C 
BRANCH  16  17
ATOM     17  C   UNL     1       1.185   4.749  21.614  0.00  0.00    -0.026 A 
ATOM     18  C   UNL     1       1.927   3.723  21.008  0.00  0.00    +0.006 A 
ATOM     19  C   UNL     1       1.402   3.011  19.927  0.00  0.00    +0.015 A 
ATOM     20  C   UNL     1       0.132   3.323  19.445  0.00  0.00    +0.018 A 
ATOM     21 BR   UNL     1      -0.584   2.346  17.993  0.00  0.00    -0.050 Br
ATOM     22  C   UNL     1      -0.613   4.346  20.026  0.00  0.00    +0.015 A 
ATOM     23  C   UNL     1      -0.086   5.062  21.105  0.00  0.00    +0.006 A 
ENDBRANCH  16  17
ENDBRANCH  14  16
ENDBRANCH  10  12
ENDBRANCH   9  10
ENDBRANCH   5   9
ENDBRANCH   4   7
ENDBRANCH   1   4
BRANCH   1  24
ATOM     24  C   UNL     1       3.515   2.701  33.697  0.00  0.00    +0.175 C 
BRANCH  24  25
ATOM     25  C   UNL     1       4.140   3.645  34.734  0.00  0.00    +0.176 C 
ATOM     26  O   UNL     1       5.543   3.818  34.393  0.00  0.00    -0.332 OA
ATOM     27  C   UNL     1       6.283   4.778  35.218  0.00  0.00    +0.277 C 
ATOM     28  C   UNL     1       6.149   4.419  36.718  0.00  0.00    +0.110 C 
ATOM     29  C   UNL     1       4.676   4.194  37.121  0.00  0.00    +0.143 C 
ATOM     30  C   UNL     1       4.003   3.180  36.196  0.00  0.00    +0.133 C 
BRANCH  30  31
ATOM     31  N   UNL     1       2.578   3.040  36.535  0.00  0.00    -0.308 N 
ATOM     32  H   UNL     1       1.985   3.851  36.427  0.00  0.00    +0.149 HD
ATOM     33  C   UNL     1       2.017   1.911  36.976  0.00  0.00    +0.210 C 
ATOM     34  C   UNL     1       2.952   0.700  37.155  0.00  0.00    +0.109 C 
ATOM     35  O   UNL     1       0.817   1.819  37.239  0.00  0.00    -0.276 OA
ENDBRANCH  30  31
BRANCH  27  36
ATOM     36  C   UNL     1       5.766   6.213  34.984  0.00  0.00    +0.414 C 
ATOM     37  O   UNL     1       5.058   6.465  34.009  0.00  0.00    -0.240 OA
ATOM     38  O   UNL     1       6.056   7.117  35.768  0.00  0.00    -0.240 OA
ENDBRANCH  27  36
BRANCH  27  39
ATOM     39  O   UNL     1       7.684   4.699  34.852  0.00  0.00    -0.343 OA
ATOM     40  C   UNL     1       8.581   4.345  35.935  0.00  0.00    +0.198 C 
ENDBRANCH  27  39
BRANCH  29  41
ATOM     41  O   UNL     1       4.612   3.719  38.466  0.00  0.00    -0.390 OA
ATOM     42  H   UNL     1       4.854   4.427  39.068  0.00  0.00    +0.210 HD
ENDBRANCH  29  41
ENDBRANCH  24  25
BRANCH  24  43
ATOM     43  O   UNL     1       4.087   1.383  33.818  0.00  0.00    -0.387 OA
ATOM     44  H   UNL     1       4.413   1.095  32.962  0.00  0.00    +0.210 HD
ENDBRANCH  24  43
ENDBRANCH   1  24
TORSDOF 15
