REMARK VINA RESULT:    -5.922      2.217      4.709
REMARK INTER + INTRA:         -12.971
REMARK INTER:                 -10.851
REMARK INTRA:                  -2.120
REMARK UNBOUND:                -2.722
REMARK  Name = lig_assembled_3.pdb
REMARK  16 active torsions:
REMARK  status: ('A' for Active; 'I' for Inactive)
REMARK    1  A    between atoms: _2  and  _9
REMARK    2  A    between atoms: _4  and  _18
REMARK    3  A    between atoms: _6  and  _7
REMARK    4  A    between atoms: _6  and  _18
REMARK    5  A    between atoms: _14  and  _34
REMARK    6  A    between atoms: _16  and  _22
REMARK    7  A    between atoms: _17  and  _21
REMARK    8  A    between atoms: _21  and  _22
REMARK    9  A    between atoms: _24  and  _25
REMARK   10  A    between atoms: _26  and  _27
REMARK   11  A    between atoms: _28  and  _30
REMARK   12  A    between atoms: _30  and  _31
REMARK   13  A    between atoms: _30  and  _32
REMARK   14  A    between atoms: _32  and  _33
REMARK   15  A    between atoms: _32  and  _34
REMARK   16  A    between atoms: _35  and  _37
REMARK                            x       y       z     vdW  Elec       q    Type
REMARK                         _______ _______ _______ _____ _____    ______ ____
ROOT
ATOM      1  C   UNL     1       0.771   2.371  33.676  0.00  0.00    +0.163 C 
ENDROOT
BRANCH   1   2
ATOM      2  O   UNL     1       0.714   1.520  32.520  0.00  0.00    -0.388 OA
ATOM      3  H   UNL     1       1.433   0.884  32.555  0.00  0.00    +0.210 HD
ENDBRANCH   1   2
BRANCH   1   4
ATOM      4  C   UNL     1       0.097   3.706  33.376  0.00  0.00    +0.141 C 
BRANCH   4   7
ATOM      5  C   UNL     1       0.257   4.395  31.008  0.00  0.00    +0.401 C 
ATOM      6  O   UNL     1       1.328   4.988  31.156  0.00  0.00    -0.226 OA
ATOM      7  N   UNL     1      -0.392   3.773  31.993  0.00  0.00    -0.279 N 
ATOM      8  H   UNL     1      -1.270   3.322  31.775  0.00  0.00    +0.152 HD
BRANCH   5   9
ATOM      9  O   UNL     1      -0.346   4.362  29.712  0.00  0.00    -0.444 OA
BRANCH   9  10
ATOM     10  C   UNL     1       0.015   3.149  29.047  0.00  0.00    +0.292 C 
BRANCH  10  12
ATOM     11  N   UNL     1       2.116   3.686  27.856  0.00  0.00    -0.131 NA
ATOM     12  C   UNL     1       0.773   3.445  27.816  0.00  0.00    +0.121 A 
ATOM     13  C   UNL     1       0.340   3.521  26.513  0.00  0.00    +0.143 A 
ATOM     14  N   UNL     1       1.472   3.789  25.776  0.00  0.00    -0.220 N 
ATOM     15  N   UNL     1       2.532   3.900  26.615  0.00  0.00    -0.060 NA
BRANCH  14  16
ATOM     16  C   UNL     1       1.606   3.922  24.370  0.00  0.00    +0.067 A 
ATOM     17  C   UNL     1       1.627   5.187  23.765  0.00  0.00    +0.028 A 
ATOM     18  C   UNL     1       1.729   5.297  22.376  0.00  0.00    +0.002 A 
ATOM     19  C   UNL     1       1.813   4.152  21.586  0.00  0.00    +0.000 A 
ATOM     20  C   UNL     1       1.802   2.892  22.182  0.00  0.00    +0.002 A 
ATOM     21  C   UNL     1       1.699   2.774  23.570  0.00  0.00    +0.028 A 
ENDBRANCH  14  16
ENDBRANCH  10  12
ENDBRANCH   9  10
ENDBRANCH   5   9
ENDBRANCH   4   7
ENDBRANCH   1   4
BRANCH   1  22
ATOM     22  C   UNL     1       2.228   2.617  34.107  0.00  0.00    +0.175 C 
BRANCH  22  23
ATOM     23  C   UNL     1       3.232   2.151  33.042  0.00  0.00    +0.176 C 
ATOM     24  O   UNL     1       3.255   0.697  33.055  0.00  0.00    -0.332 OA
ATOM     25  C   UNL     1       4.086   0.068  32.025  0.00  0.00    +0.277 C 
ATOM     26  C   UNL     1       5.533   0.615  32.087  0.00  0.00    +0.110 C 
ATOM     27  C   UNL     1       5.558   2.158  32.107  0.00  0.00    +0.143 C 
ATOM     28  C   UNL     1       4.658   2.707  33.215  0.00  0.00    +0.133 C 
BRANCH  28  29
ATOM     29  N   UNL     1       4.621   4.177  33.168  0.00  0.00    -0.308 N 
ATOM     30  H   UNL     1       4.229   4.613  32.346  0.00  0.00    +0.149 HD
ATOM     31  C   UNL     1       5.073   4.972  34.142  0.00  0.00    +0.210 C 
ATOM     32  C   UNL     1       5.689   4.276  35.371  0.00  0.00    +0.109 C 
ATOM     33  O   UNL     1       5.017   6.201  34.082  0.00  0.00    -0.276 OA
ENDBRANCH  28  29
BRANCH  25  34
ATOM     34  C   UNL     1       3.499   0.319  30.620  0.00  0.00    +0.414 C 
ATOM     35  O   UNL     1       4.064  -0.128  29.623  0.00  0.00    -0.240 OA
ATOM     36  O   UNL     1       2.461   0.969  30.484  0.00  0.00    -0.240 OA
ENDBRANCH  25  34
BRANCH  27  37
ATOM     37  O   UNL     1       6.894   2.616  32.317  0.00  0.00    -0.390 OA
ATOM     38  H   UNL     1       6.890   3.339  32.948  0.00  0.00    +0.210 HD
ENDBRANCH  27  37
BRANCH  25  39
ATOM     39  O   UNL     1       4.125  -1.358  32.289  0.00  0.00    -0.343 OA
ATOM     40  C   UNL     1       5.429  -1.879  32.650  0.00  0.00    +0.198 C 
ENDBRANCH  25  39
ENDBRANCH  22  23
BRANCH  22  41
ATOM     41  O   UNL     1       2.492   1.958  35.361  0.00  0.00    -0.387 OA
ATOM     42  H   UNL     1       1.924   1.189  35.445  0.00  0.00    +0.210 HD
ENDBRANCH  22  41
ENDBRANCH   1  22
TORSDOF 14
