REMARK VINA RESULT:    -5.882      4.810      7.337
REMARK INTER + INTRA:         -12.748
REMARK INTER:                 -10.514
REMARK INTRA:                  -2.235
REMARK UNBOUND:                -2.568
REMARK  Name = lig_assembled_27.pdb
REMARK  16 active torsions:
REMARK  status: ('A' for Active; 'I' for Inactive)
REMARK    1  A    between atoms: _2  and  _9
REMARK    2  A    between atoms: _4  and  _18
REMARK    3  A    between atoms: _6  and  _7
REMARK    4  A    between atoms: _6  and  _18
REMARK    5  A    between atoms: _14  and  _34
REMARK    6  A    between atoms: _16  and  _22
REMARK    7  A    between atoms: _17  and  _21
REMARK    8  A    between atoms: _21  and  _22
REMARK    9  A    between atoms: _24  and  _25
REMARK   10  A    between atoms: _26  and  _27
REMARK   11  A    between atoms: _28  and  _30
REMARK   12  A    between atoms: _30  and  _31
REMARK   13  A    between atoms: _30  and  _32
REMARK   14  A    between atoms: _32  and  _33
REMARK   15  A    between atoms: _32  and  _34
REMARK   16  A    between atoms: _35  and  _37
REMARK                            x       y       z     vdW  Elec       q    Type
REMARK                         _______ _______ _______ _____ _____    ______ ____
ROOT
ATOM      1  C   UNL     1       7.117   3.933  33.560  0.00  0.00    +0.163 C 
ENDROOT
BRANCH   1   2
ATOM      2  O   UNL     1       7.722   5.084  32.949  0.00  0.00    -0.388 OA
ATOM      3  H   UNL     1       7.045   5.607  32.511  0.00  0.00    +0.210 HD
ENDBRANCH   1   2
BRANCH   1   4
ATOM      4  C   UNL     1       6.719   2.922  32.490  0.00  0.00    +0.141 C 
BRANCH   4   7
ATOM      5  C   UNL     1       4.507   2.120  31.735  0.00  0.00    +0.401 C 
ATOM      6  O   UNL     1       4.816   0.927  31.790  0.00  0.00    -0.226 OA
ATOM      7  N   UNL     1       5.336   3.119  32.038  0.00  0.00    -0.279 N 
ATOM      8  H   UNL     1       4.993   4.066  31.952  0.00  0.00    +0.152 HD
BRANCH   5   9
ATOM      9  O   UNL     1       3.187   2.476  31.318  0.00  0.00    -0.444 OA
BRANCH   9  10
ATOM     10  C   UNL     1       2.481   3.061  32.416  0.00  0.00    +0.292 C 
BRANCH  10  12
ATOM     11  N   UNL     1       1.419   4.815  31.030  0.00  0.00    -0.131 NA
ATOM     12  C   UNL     1       1.299   3.798  31.933  0.00  0.00    +0.121 A 
ATOM     13  C   UNL     1      -0.030   3.634  32.249  0.00  0.00    +0.143 A 
ATOM     14  N   UNL     1      -0.695   4.578  31.501  0.00  0.00    -0.220 N 
ATOM     15  N   UNL     1       0.205   5.285  30.774  0.00  0.00    -0.060 NA
BRANCH  14  16
ATOM     16  C   UNL     1      -2.087   4.841  31.436  0.00  0.00    +0.068 A 
ATOM     17  C   UNL     1      -2.898   4.089  30.570  0.00  0.00    +0.028 A 
ATOM     18  C   UNL     1      -4.270   4.342  30.495  0.00  0.00    +0.003 A 
ATOM     19  C   UNL     1      -4.840   5.343  31.279  0.00  0.00    +0.020 A 
ATOM     20  C   UNL     1      -4.038   6.088  32.140  0.00  0.00    +0.043 A 
ATOM     21 CL   UNL     1      -4.743   7.323  33.109  0.00  0.00    -0.083 Cl
ATOM     22  C   UNL     1      -2.665   5.845  32.225  0.00  0.00    +0.047 A 
ENDBRANCH  14  16
ENDBRANCH  10  12
ENDBRANCH   9  10
ENDBRANCH   5   9
ENDBRANCH   4   7
ENDBRANCH   1   4
BRANCH   1  23
ATOM     23  C   UNL     1       5.876   4.332  34.377  0.00  0.00    +0.175 C 
BRANCH  23  24
ATOM     24  C   UNL     1       6.191   5.424  35.410  0.00  0.00    +0.176 C 
ATOM     25  O   UNL     1       7.581   5.274  35.809  0.00  0.00    -0.332 OA
ATOM     26  C   UNL     1       8.094   6.303  36.720  0.00  0.00    +0.277 C 
ATOM     27  C   UNL     1       7.197   6.408  37.977  0.00  0.00    +0.110 C 
ATOM     28  C   UNL     1       5.705   6.537  37.604  0.00  0.00    +0.143 C 
ATOM     29  C   UNL     1       5.280   5.419  36.652  0.00  0.00    +0.133 C 
BRANCH  29  30
ATOM     30  N   UNL     1       3.880   5.602  36.235  0.00  0.00    -0.308 N 
ATOM     31  H   UNL     1       3.675   6.352  35.591  0.00  0.00    +0.149 HD
ATOM     32  C   UNL     1       2.865   4.841  36.652  0.00  0.00    +0.210 C 
ATOM     33  C   UNL     1       3.208   3.722  37.653  0.00  0.00    +0.109 C 
ATOM     34  O   UNL     1       1.705   5.008  36.274  0.00  0.00    -0.276 OA
ENDBRANCH  29  30
BRANCH  26  35
ATOM     35  C   UNL     1       8.157   7.674  36.015  0.00  0.00    +0.414 C 
ATOM     36  O   UNL     1       8.207   8.710  36.678  0.00  0.00    -0.240 OA
ATOM     37  O   UNL     1       8.159   7.745  34.786  0.00  0.00    -0.240 OA
ENDBRANCH  26  35
BRANCH  28  38
ATOM     38  O   UNL     1       4.906   6.478  38.786  0.00  0.00    -0.390 OA
ATOM     39  H   UNL     1       3.981   6.390  38.543  0.00  0.00    +0.210 HD
ENDBRANCH  28  38
BRANCH  26  40
ATOM     40  O   UNL     1       9.425   5.908  37.139  0.00  0.00    -0.343 OA
ATOM     41  C   UNL     1       9.647   5.926  38.572  0.00  0.00    +0.198 C 
ENDBRANCH  26  40
ENDBRANCH  23  24
BRANCH  23  42
ATOM     42  O   UNL     1       5.319   3.175  35.032  0.00  0.00    -0.387 OA
ATOM     43  H   UNL     1       5.016   2.548  34.371  0.00  0.00    +0.210 HD
ENDBRANCH  23  42
ENDBRANCH   1  23
TORSDOF 14
