REMARK VINA RESULT:    -6.417     13.668     17.687
REMARK INTER + INTRA:         -13.488
REMARK INTER:                 -11.180
REMARK INTRA:                  -2.308
REMARK UNBOUND:                -1.444
REMARK  Name = lig_assembled_16.pdb
REMARK  19 active torsions:
REMARK  status: ('A' for Active; 'I' for Inactive)
REMARK    1  A    between atoms: _2  and  _9
REMARK    2  A    between atoms: _4  and  _22
REMARK    3  A    between atoms: _6  and  _7
REMARK    4  A    between atoms: _6  and  _22
REMARK    5  A    between atoms: _9  and  _10
REMARK    6  A    between atoms: _13  and  _14
REMARK    7  A    between atoms: _14  and  _16
REMARK    8  A    between atoms: _18  and  _38
REMARK    9  A    between atoms: _20  and  _26
REMARK   10  A    between atoms: _21  and  _25
REMARK   11  A    between atoms: _25  and  _26
REMARK   12  A    between atoms: _28  and  _29
REMARK   13  A    between atoms: _30  and  _31
REMARK   14  A    between atoms: _32  and  _34
REMARK   15  A    between atoms: _34  and  _35
REMARK   16  A    between atoms: _34  and  _36
REMARK   17  A    between atoms: _36  and  _37
REMARK   18  A    between atoms: _36  and  _38
REMARK   19  A    between atoms: _39  and  _41
REMARK                            x       y       z     vdW  Elec       q    Type
REMARK                         _______ _______ _______ _____ _____    ______ ____
ROOT
ATOM      1  C   UNL     1       4.041  -3.996  24.299  0.00  0.00    +0.163 C 
ENDROOT
BRANCH   1   2
ATOM      2  O   UNL     1       2.917  -4.746  23.811  0.00  0.00    -0.388 OA
ATOM      3  H   UNL     1       3.223  -5.427  23.207  0.00  0.00    +0.210 HD
ENDBRANCH   1   2
BRANCH   1   4
ATOM      4  C   UNL     1       4.714  -3.210  23.160  0.00  0.00    +0.175 C 
BRANCH   4   5
ATOM      5  C   UNL     1       5.690  -4.082  22.355  0.00  0.00    +0.176 C 
ATOM      6  O   UNL     1       4.909  -5.060  21.615  0.00  0.00    -0.332 OA
ATOM      7  C   UNL     1       5.669  -5.918  20.701  0.00  0.00    +0.277 C 
ATOM      8  C   UNL     1       6.818  -6.629  21.457  0.00  0.00    +0.110 C 
ATOM      9  C   UNL     1       7.657  -5.634  22.285  0.00  0.00    +0.143 C 
ATOM     10  C   UNL     1       6.766  -4.791  23.198  0.00  0.00    +0.133 C 
BRANCH  10  11
ATOM     11  N   UNL     1       7.567  -3.787  23.917  0.00  0.00    -0.308 N 
ATOM     12  H   UNL     1       7.984  -3.042  23.377  0.00  0.00    +0.149 HD
ATOM     13  C   UNL     1       7.780  -3.797  25.235  0.00  0.00    +0.210 C 
ATOM     14  C   UNL     1       7.153  -4.961  26.026  0.00  0.00    +0.109 C 
ATOM     15  O   UNL     1       8.443  -2.935  25.812  0.00  0.00    -0.276 OA
ENDBRANCH  10  11
BRANCH   7  16
ATOM     16  C   UNL     1       6.252  -5.094  19.535  0.00  0.00    +0.414 C 
ATOM     17  O   UNL     1       5.588  -4.197  19.017  0.00  0.00    -0.240 OA
ATOM     18  O   UNL     1       7.386  -5.325  19.113  0.00  0.00    -0.240 OA
ENDBRANCH   7  16
BRANCH   7  19
ATOM     19  O   UNL     1       4.768  -6.930  20.182  0.00  0.00    -0.343 OA
ATOM     20  C   UNL     1       3.417  -6.873  20.704  0.00  0.00    +0.198 C 
ENDBRANCH   7  19
BRANCH   9  21
ATOM     21  O   UNL     1       8.605  -6.347  23.080  0.00  0.00    -0.390 OA
ATOM     22  H   UNL     1       9.030  -5.742  23.693  0.00  0.00    +0.210 HD
ENDBRANCH   9  21
ENDBRANCH   4   5
BRANCH   4  23
ATOM     23  O   UNL     1       5.399  -2.057  23.689  0.00  0.00    -0.387 OA
ATOM     24  H   UNL     1       6.135  -1.830  23.115  0.00  0.00    +0.210 HD
ENDBRANCH   4  23
ENDBRANCH   1   4
BRANCH   1  25
ATOM     25  C   UNL     1       3.590  -3.028  25.388  0.00  0.00    +0.141 C 
BRANCH  25  28
ATOM     26  C   UNL     1       2.560  -0.881  24.726  0.00  0.00    +0.401 C 
ATOM     27  O   UNL     1       3.596  -0.229  24.880  0.00  0.00    -0.226 OA
ATOM     28  N   UNL     1       2.465  -2.193  24.946  0.00  0.00    -0.279 N 
ATOM     29  H   UNL     1       1.570  -2.638  24.801  0.00  0.00    +0.152 HD
BRANCH  26  30
ATOM     30  O   UNL     1       1.375  -0.210  24.289  0.00  0.00    -0.444 OA
BRANCH  30  31
ATOM     31  C   UNL     1       0.930   0.686  25.311  0.00  0.00    +0.292 C 
BRANCH  31  33
ATOM     32  N   UNL     1       2.180   2.825  25.292  0.00  0.00    -0.131 NA
ATOM     33  C   UNL     1       1.104   2.084  24.876  0.00  0.00    +0.120 A 
ATOM     34  C   UNL     1       0.330   2.848  24.032  0.00  0.00    +0.137 A 
ATOM     35  N   UNL     1       1.038   4.005  23.902  0.00  0.00    -0.247 N 
ATOM     36  N   UNL     1       2.121   4.011  24.700  0.00  0.00    -0.065 NA
BRANCH  35  37
ATOM     37  C   UNL     1       0.760   5.126  23.027  0.00  0.00    +0.180 C 
BRANCH  37  38
ATOM     38  C   UNL     1       0.764   4.705  21.575  0.00  0.00    -0.026 A 
ATOM     39  C   UNL     1       1.893   4.093  21.010  0.00  0.00    +0.006 A 
ATOM     40  C   UNL     1       1.877   3.671  19.677  0.00  0.00    +0.015 A 
ATOM     41  C   UNL     1       0.741   3.866  18.888  0.00  0.00    +0.059 A 
ATOM     42  C   UNL     1      -0.386   4.496  19.436  0.00  0.00    +0.015 A 
ATOM     43  C   UNL     1      -0.365   4.923  20.767  0.00  0.00    +0.006 A 
BRANCH  41  44
ATOM     44  C   UNL     1       0.752   3.332  17.500  0.00  0.00    +0.337 C 
ATOM     45  O   UNL     1       0.475   2.173  17.240  0.00  0.00    -0.245 OA
BRANCH  44  46
ATOM     46  O   UNL     1       1.126   4.228  16.567  0.00  0.00    -0.477 OA
ATOM     47  H   UNL     1       1.003   3.943  15.644  0.00  0.00    +0.295 HD
ENDBRANCH  44  46
ENDBRANCH  41  44
ENDBRANCH  37  38
ENDBRANCH  35  37
ENDBRANCH  31  33
ENDBRANCH  30  31
ENDBRANCH  26  30
ENDBRANCH  25  28
ENDBRANCH   1  25
TORSDOF 17
