REMARK VINA RESULT:    -6.173     13.781     17.921
REMARK INTER + INTRA:         -15.801
REMARK INTER:                 -12.114
REMARK INTRA:                  -3.687
REMARK UNBOUND:                -3.133
REMARK  Name = lig_assembled_90.pdb
REMARK  22 active torsions:
REMARK  status: ('A' for Active; 'I' for Inactive)
REMARK    1  A    between atoms: _2  and  _13
REMARK    2  A    between atoms: _3  and  _15
REMARK    3  A    between atoms: _4  and  _17
REMARK    4  A    between atoms: _8  and  _28
REMARK    5  A    between atoms: _10  and  _11
REMARK    6  A    between atoms: _10  and  _28
REMARK    7  A    between atoms: _13  and  _14
REMARK    8  A    between atoms: _15  and  _16
REMARK    9  A    between atoms: _16  and  _17
REMARK   10  A    between atoms: _16  and  _22
REMARK   11  A    between atoms: _24  and  _44
REMARK   12  A    between atoms: _26  and  _32
REMARK   13  A    between atoms: _27  and  _31
REMARK   14  A    between atoms: _31  and  _32
REMARK   15  A    between atoms: _34  and  _35
REMARK   16  A    between atoms: _36  and  _37
REMARK   17  A    between atoms: _38  and  _40
REMARK   18  A    between atoms: _40  and  _41
REMARK   19  A    between atoms: _40  and  _42
REMARK   20  A    between atoms: _42  and  _43
REMARK   21  A    between atoms: _42  and  _44
REMARK   22  A    between atoms: _45  and  _47
REMARK                            x       y       z     vdW  Elec       q    Type
REMARK                         _______ _______ _______ _____ _____    ______ ____
ROOT
ATOM      1  C   UNL     1       6.442  -0.465  32.103  0.00  0.00    +0.401 C 
ATOM      2  O   UNL     1       7.369  -0.853  31.388  0.00  0.00    -0.226 OA
ATOM      3  N   UNL     1       6.557   0.506  33.009  0.00  0.00    -0.279 N 
ATOM      4  H   UNL     1       5.736   0.762  33.541  0.00  0.00    +0.152 HD
ENDROOT
BRANCH   3   5
ATOM      5  C   UNL     1       7.808   1.226  33.279  0.00  0.00    +0.141 C 
BRANCH   5   6
ATOM      6  C   UNL     1       7.596   2.397  34.233  0.00  0.00    +0.163 C 
BRANCH   6   7
ATOM      7  O   UNL     1       8.507   2.299  35.341  0.00  0.00    -0.388 OA
ATOM      8  H   UNL     1       9.026   3.104  35.401  0.00  0.00    +0.210 HD
ENDBRANCH   6   7
BRANCH   6   9
ATOM      9  C   UNL     1       7.794   3.720  33.474  0.00  0.00    +0.175 C 
BRANCH   9  10
ATOM     10  C   UNL     1       7.112   4.900  34.183  0.00  0.00    +0.176 C 
ATOM     11  O   UNL     1       7.864   5.189  35.393  0.00  0.00    -0.332 OA
ATOM     12  C   UNL     1       7.419   6.363  36.151  0.00  0.00    +0.277 C 
ATOM     13  C   UNL     1       5.911   6.250  36.486  0.00  0.00    +0.110 C 
ATOM     14  C   UNL     1       5.074   5.912  35.234  0.00  0.00    +0.143 C 
ATOM     15  C   UNL     1       5.627   4.677  34.522  0.00  0.00    +0.133 C 
BRANCH  15  16
ATOM     16  N   UNL     1       4.874   4.416  33.285  0.00  0.00    -0.308 N 
ATOM     17  H   UNL     1       4.988   5.064  32.518  0.00  0.00    +0.149 HD
ATOM     18  C   UNL     1       4.050   3.379  33.109  0.00  0.00    +0.210 C 
ATOM     19  C   UNL     1       3.878   2.425  34.306  0.00  0.00    +0.109 C 
ATOM     20  O   UNL     1       3.444   3.178  32.057  0.00  0.00    -0.276 OA
ENDBRANCH  15  16
BRANCH  12  21
ATOM     21  C   UNL     1       7.675   7.658  35.353  0.00  0.00    +0.414 C 
ATOM     22  O   UNL     1       7.430   7.703  34.148  0.00  0.00    -0.240 OA
ATOM     23  O   UNL     1       8.125   8.658  35.914  0.00  0.00    -0.240 OA
ENDBRANCH  12  21
BRANCH  14  24
ATOM     24  O   UNL     1       3.719   5.669  35.613  0.00  0.00    -0.390 OA
ATOM     25  H   UNL     1       3.442   4.811  35.282  0.00  0.00    +0.210 HD
ENDBRANCH  14  24
BRANCH  12  26
ATOM     26  O   UNL     1       8.163   6.401  37.396  0.00  0.00    -0.343 OA
ATOM     27  C   UNL     1       7.349   6.504  38.592  0.00  0.00    +0.198 C 
ENDBRANCH  12  26
ENDBRANCH   9  10
BRANCH   9  28
ATOM     28  O   UNL     1       7.299   3.598  32.126  0.00  0.00    -0.387 OA
ATOM     29  H   UNL     1       7.996   3.827  31.507  0.00  0.00    +0.210 HD
ENDBRANCH   9  28
ENDBRANCH   6   9
ENDBRANCH   5   6
ENDBRANCH   3   5
BRANCH   1  30
ATOM     30  O   UNL     1       5.157  -1.075  31.965  0.00  0.00    -0.444 OA
BRANCH  30  31
ATOM     31  C   UNL     1       4.468  -0.493  30.855  0.00  0.00    +0.292 C 
BRANCH  31  33
ATOM     32  N   UNL     1       2.124   0.020  30.228  0.00  0.00    -0.131 NA
ATOM     33  C   UNL     1       3.055  -0.242  31.199  0.00  0.00    +0.120 A 
ATOM     34  C   UNL     1       2.438  -0.218  32.430  0.00  0.00    +0.137 A 
ATOM     35  N   UNL     1       1.132   0.042  32.139  0.00  0.00    -0.242 N 
ATOM     36  N   UNL     1       0.949   0.203  30.817  0.00  0.00    -0.065 NA
BRANCH  35  37
ATOM     37  C   UNL     1       0.038   0.254  33.056  0.00  0.00    +0.240 C 
BRANCH  37  38
ATOM     38  C   UNL     1      -0.514   1.656  32.938  0.00  0.00    +0.235 C 
ATOM     39  O   UNL     1      -1.677   1.938  33.224  0.00  0.00    -0.274 OA
ATOM     40  N   UNL     1       0.397   2.617  32.539  0.00  0.00    -0.311 N 
ATOM     41  H   UNL     1       1.242   2.317  32.058  0.00  0.00    +0.149 HD
BRANCH  40  42
ATOM     42  C   UNL     1      -0.032   3.989  32.306  0.00  0.00    +0.137 C 
BRANCH  42  43
ATOM     43  C   UNL     1       0.444   4.495  30.936  0.00  0.00    +0.151 C 
BRANCH  43  44
ATOM     44  O   UNL     1       1.704   5.156  31.103  0.00  0.00    -0.388 OA
ATOM     45  H   UNL     1       2.163   5.187  30.239  0.00  0.00    +0.210 HD
ENDBRANCH  43  44
BRANCH  43  46
ATOM     46  C   UNL     1       0.544   3.356  29.914  0.00  0.00    +0.162 C 
BRANCH  46  47
ATOM     47  N   UNL     1      -0.312   3.570  28.755  0.00  0.00    -0.269 N 
ATOM     48  C   UNL     1      -1.687   3.607  28.835  0.00  0.00    +0.113 A 
ATOM     49  C   UNL     1      -2.131   3.781  27.546  0.00  0.00    +0.137 A 
ATOM     50  N   UNL     1      -1.074   3.850  26.676  0.00  0.00    -0.172 NA
ATOM     51  C   UNL     1       0.008   3.733  27.430  0.00  0.00    +0.450 A 
ATOM     52  N   UNL     1       1.340   3.768  26.878  0.00  0.00    +0.120 N 
ATOM     53  O   UNL     1       2.292   3.759  27.671  0.00  0.00    +0.045 OA
ATOM     54  O   UNL     1       1.443   3.792  25.645  0.00  0.00    -0.573 OA
ENDBRANCH  46  47
ENDBRANCH  43  46
ENDBRANCH  42  43
ENDBRANCH  40  42
ENDBRANCH  37  38
ENDBRANCH  35  37
ENDBRANCH  31  33
ENDBRANCH  30  31
ENDBRANCH   1  30
TORSDOF 20
