REMARK VINA RESULT:    -6.278      8.819     13.089
REMARK INTER + INTRA:         -13.336
REMARK INTER:                 -11.579
REMARK INTRA:                  -1.758
REMARK UNBOUND:                -1.921
REMARK  Name = lig_assembled_23.pdb
REMARK  18 active torsions:
REMARK  status: ('A' for Active; 'I' for Inactive)
REMARK    1  A    between atoms: _2  and  _10
REMARK    2  A    between atoms: _3  and  _41
REMARK    3  A    between atoms: _5  and  _21
REMARK    4  A    between atoms: _7  and  _8
REMARK    5  A    between atoms: _7  and  _21
REMARK    6  A    between atoms: _12  and  _41
REMARK    7  A    between atoms: _17  and  _37
REMARK    8  A    between atoms: _19  and  _25
REMARK    9  A    between atoms: _20  and  _24
REMARK   10  A    between atoms: _24  and  _25
REMARK   11  A    between atoms: _27  and  _28
REMARK   12  A    between atoms: _29  and  _30
REMARK   13  A    between atoms: _31  and  _33
REMARK   14  A    between atoms: _33  and  _34
REMARK   15  A    between atoms: _33  and  _35
REMARK   16  A    between atoms: _35  and  _36
REMARK   17  A    between atoms: _35  and  _37
REMARK   18  A    between atoms: _38  and  _40
REMARK                            x       y       z     vdW  Elec       q    Type
REMARK                         _______ _______ _______ _____ _____    ______ ____
ROOT
ATOM      1  C   UNL     1      10.933   2.372  36.204  0.00  0.00    +0.141 C 
ENDROOT
BRANCH   1   4
ATOM      2  C   UNL     1      13.152   3.202  35.500  0.00  0.00    +0.401 C 
ATOM      3  O   UNL     1      13.126   2.626  34.410  0.00  0.00    -0.226 OA
ATOM      4  N   UNL     1      12.173   3.133  36.403  0.00  0.00    -0.279 N 
ATOM      5  H   UNL     1      12.291   3.633  37.273  0.00  0.00    +0.152 HD
BRANCH   2   6
ATOM      6  O   UNL     1      14.294   3.993  35.840  0.00  0.00    -0.444 OA
BRANCH   6   7
ATOM      7  C   UNL     1      15.013   4.330  34.651  0.00  0.00    +0.292 C 
BRANCH   7   9
ATOM      8  N   UNL     1      15.285   6.497  35.809  0.00  0.00    -0.131 NA
ATOM      9  C   UNL     1      15.396   5.752  34.670  0.00  0.00    +0.121 A 
ATOM     10  C   UNL     1      15.893   6.547  33.662  0.00  0.00    +0.143 A 
ATOM     11  N   UNL     1      16.082   7.780  34.241  0.00  0.00    -0.220 N 
ATOM     12  N   UNL     1      15.699   7.727  35.540  0.00  0.00    -0.060 NA
BRANCH  11  13
ATOM     13  C   UNL     1      16.577   8.974  33.655  0.00  0.00    +0.069 A 
ATOM     14  C   UNL     1      17.127   8.933  32.365  0.00  0.00    +0.056 A 
ATOM     15  C   UNL     1      17.648  10.102  31.799  0.00  0.00    +0.107 A 
ATOM     16  C   UNL     1      17.604  11.314  32.488  0.00  0.00    +0.028 A 
ATOM     17  C   UNL     1      17.043  11.357  33.765  0.00  0.00    +0.004 A 
ATOM     18  C   UNL     1      16.535  10.192  34.350  0.00  0.00    +0.028 A 
BRANCH  15  19
ATOM     19  S   UNL     1      18.390  10.020  30.197  0.00  0.00    +0.056 S 
ATOM     20  O   UNL     1      18.878   8.679  29.979  0.00  0.00    -0.153 OA
ATOM     21  O   UNL     1      17.548  10.709  29.246  0.00  0.00    -0.153 OA
BRANCH  19  22
ATOM     22  N   UNL     1      19.740  10.999  30.388  0.00  0.00    -0.204 NA
ATOM     23  H   UNL     1      19.963  11.097  31.377  0.00  0.00    +0.144 HD
ATOM     24  H   UNL     1      19.600  11.886  29.903  0.00  0.00    +0.144 HD
ENDBRANCH  19  22
ENDBRANCH  15  19
ENDBRANCH  11  13
ENDBRANCH   7   9
ENDBRANCH   6   7
ENDBRANCH   2   6
ENDBRANCH   1   4
BRANCH   1  25
ATOM     25  C   UNL     1       9.969   3.093  35.268  0.00  0.00    +0.163 C 
BRANCH  25  26
ATOM     26  O   UNL     1       9.930   2.427  33.995  0.00  0.00    -0.388 OA
ATOM     27  H   UNL     1       9.535   1.557  34.100  0.00  0.00    +0.210 HD
ENDBRANCH  25  26
BRANCH  25  28
ATOM     28  C   UNL     1       8.570   3.139  35.907  0.00  0.00    +0.175 C 
BRANCH  28  29
ATOM     29  C   UNL     1       7.775   4.378  35.470  0.00  0.00    +0.176 C 
ATOM     30  O   UNL     1       7.450   5.144  36.662  0.00  0.00    -0.332 OA
ATOM     31  C   UNL     1       6.778   6.426  36.428  0.00  0.00    +0.277 C 
ATOM     32  C   UNL     1       5.503   6.220  35.575  0.00  0.00    +0.110 C 
ATOM     33  C   UNL     1       5.792   5.383  34.311  0.00  0.00    +0.143 C 
ATOM     34  C   UNL     1       6.495   4.073  34.670  0.00  0.00    +0.133 C 
BRANCH  34  35
ATOM     35  N   UNL     1       6.844   3.325  33.452  0.00  0.00    -0.308 N 
ATOM     36  H   UNL     1       7.468   3.765  32.790  0.00  0.00    +0.149 HD
ATOM     37  C   UNL     1       6.389   2.103  33.163  0.00  0.00    +0.210 C 
ATOM     38  C   UNL     1       5.418   1.470  34.179  0.00  0.00    +0.109 C 
ATOM     39  O   UNL     1       6.709   1.494  32.142  0.00  0.00    -0.276 OA
ENDBRANCH  34  35
BRANCH  31  40
ATOM     40  C   UNL     1       7.721   7.416  35.715  0.00  0.00    +0.414 C 
ATOM     41  O   UNL     1       7.299   8.130  34.806  0.00  0.00    -0.240 OA
ATOM     42  O   UNL     1       8.904   7.502  36.049  0.00  0.00    -0.240 OA
ENDBRANCH  31  40
BRANCH  33  43
ATOM     43  O   UNL     1       4.568   5.090  33.636  0.00  0.00    -0.390 OA
ATOM     44  H   UNL     1       4.699   5.166  32.688  0.00  0.00    +0.210 HD
ENDBRANCH  33  43
BRANCH  31  45
ATOM     45  O   UNL     1       6.384   6.967  37.716  0.00  0.00    -0.343 OA
ATOM     46  C   UNL     1       5.211   6.352  38.306  0.00  0.00    +0.198 C 
ENDBRANCH  31  45
ENDBRANCH  28  29
BRANCH  28  47
ATOM     47  O   UNL     1       8.680   3.100  37.344  0.00  0.00    -0.387 OA
ATOM     48  H   UNL     1       8.130   3.789  37.726  0.00  0.00    +0.210 HD
ENDBRANCH  28  47
ENDBRANCH  25  28
ENDBRANCH   1  25
TORSDOF 16
