REMARK VINA RESULT:    -5.409      2.379      7.994
REMARK INTER + INTRA:         -12.507
REMARK INTER:                 -10.443
REMARK INTRA:                  -2.064
REMARK UNBOUND:                -2.671
REMARK  Name = lig_assembled_1.pdb
REMARK  18 active torsions:
REMARK  status: ('A' for Active; 'I' for Inactive)
REMARK    1  A    between atoms: _2  and  _9
REMARK    2  A    between atoms: _4  and  _15
REMARK    3  A    between atoms: _5  and  _9
REMARK    4  A    between atoms: _5  and  _10
REMARK    5  A    between atoms: _6  and  _7
REMARK    6  A    between atoms: _6  and  _15
REMARK    7  A    between atoms: _11  and  _31
REMARK    8  A    between atoms: _13  and  _19
REMARK    9  A    between atoms: _14  and  _18
REMARK   10  A    between atoms: _18  and  _19
REMARK   11  A    between atoms: _21  and  _22
REMARK   12  A    between atoms: _23  and  _24
REMARK   13  A    between atoms: _25  and  _27
REMARK   14  A    between atoms: _27  and  _28
REMARK   15  A    between atoms: _27  and  _29
REMARK   16  A    between atoms: _29  and  _30
REMARK   17  A    between atoms: _29  and  _31
REMARK   18  A    between atoms: _32  and  _34
REMARK                            x       y       z     vdW  Elec       q    Type
REMARK                         _______ _______ _______ _____ _____    ______ ____
ROOT
ATOM      1  C   UNL     1      18.771   3.893  24.199  0.00  0.00    +0.175 C 
ENDROOT
BRANCH   1   2
ATOM      2  C   UNL     1      18.701   4.685  25.513  0.00  0.00    +0.176 C 
ATOM      3  O   UNL     1      19.946   5.422  25.659  0.00  0.00    -0.332 OA
ATOM      4  C   UNL     1      20.017   6.324  26.812  0.00  0.00    +0.277 C 
ATOM      5  C   UNL     1      19.708   5.555  28.120  0.00  0.00    +0.110 C 
ATOM      6  C   UNL     1      18.409   4.731  28.003  0.00  0.00    +0.143 C 
ATOM      7  C   UNL     1      18.440   3.830  26.768  0.00  0.00    +0.133 C 
BRANCH   7   8
ATOM      8  N   UNL     1      17.163   3.115  26.619  0.00  0.00    -0.308 N 
ATOM      9  H   UNL     1      16.330   3.665  26.464  0.00  0.00    +0.149 HD
ATOM     10  C   UNL     1      17.033   1.787  26.675  0.00  0.00    +0.210 C 
ATOM     11  C   UNL     1      18.317   0.979  26.938  0.00  0.00    +0.109 C 
ATOM     12  O   UNL     1      15.952   1.214  26.532  0.00  0.00    -0.276 OA
ENDBRANCH   7   8
BRANCH   4  13
ATOM     13  C   UNL     1      19.024   7.493  26.655  0.00  0.00    +0.414 C 
ATOM     14  O   UNL     1      18.993   8.398  27.489  0.00  0.00    -0.240 OA
ATOM     15  O   UNL     1      18.254   7.533  25.694  0.00  0.00    -0.240 OA
ENDBRANCH   4  13
BRANCH   4  16
ATOM     16  O   UNL     1      21.371   6.840  26.895  0.00  0.00    -0.343 OA
ATOM     17  C   UNL     1      21.886   7.406  25.663  0.00  0.00    +0.198 C 
ENDBRANCH   4  16
BRANCH   6  18
ATOM     18  O   UNL     1      18.243   3.924  29.170  0.00  0.00    -0.390 OA
ATOM     19  H   UNL     1      19.043   3.958  29.699  0.00  0.00    +0.210 HD
ENDBRANCH   6  18
ENDBRANCH   1   2
BRANCH   1  20
ATOM     20  O   UNL     1      20.138   3.544  23.903  0.00  0.00    -0.387 OA
ATOM     21  H   UNL     1      20.575   4.288  23.483  0.00  0.00    +0.210 HD
ENDBRANCH   1  20
BRANCH   1  22
ATOM     22  C   UNL     1      18.156   4.669  23.022  0.00  0.00    +0.163 C 
BRANCH  22  23
ATOM     23  O   UNL     1      17.510   5.869  23.479  0.00  0.00    -0.388 OA
ATOM     24  H   UNL     1      16.741   5.638  24.005  0.00  0.00    +0.210 HD
ENDBRANCH  22  23
BRANCH  22  25
ATOM     25  C   UNL     1      17.151   3.780  22.296  0.00  0.00    +0.141 C 
BRANCH  25  28
ATOM     26  C   UNL     1      17.314   1.808  20.815  0.00  0.00    +0.401 C 
ATOM     27  O   UNL     1      16.345   2.130  20.124  0.00  0.00    -0.226 OA
ATOM     28  N   UNL     1      17.756   2.517  21.854  0.00  0.00    -0.279 N 
ATOM     29  H   UNL     1      18.554   2.166  22.367  0.00  0.00    +0.152 HD
BRANCH  26  30
ATOM     30  O   UNL     1      18.018   0.603  20.506  0.00  0.00    -0.444 OA
BRANCH  30  31
ATOM     31  C   UNL     1      18.966   0.324  21.540  0.00  0.00    +0.292 C 
BRANCH  31  33
ATOM     32  N   UNL     1      18.931  -2.124  21.911  0.00  0.00    -0.131 NA
ATOM     33  C   UNL     1      18.555  -0.868  22.306  0.00  0.00    +0.120 A 
ATOM     34  C   UNL     1      17.794  -0.963  23.450  0.00  0.00    +0.137 A 
ATOM     35  N   UNL     1      17.739  -2.303  23.694  0.00  0.00    -0.249 N 
ATOM     36  N   UNL     1      18.418  -2.998  22.767  0.00  0.00    -0.065 NA
BRANCH  35  37
ATOM     37  C   UNL     1      17.073  -2.981  24.784  0.00  0.00    +0.173 C 
BRANCH  37  38
ATOM     38  C   UNL     1      15.562  -3.043  24.601  0.00  0.00    +0.179 C 
BRANCH  38  39
ATOM     39  O   UNL     1      15.218  -3.501  23.294  0.00  0.00    -0.393 OA
ATOM     40  H   UNL     1      14.941  -2.716  22.783  0.00  0.00    +0.209 HD
ENDBRANCH  38  39
ENDBRANCH  37  38
ENDBRANCH  35  37
ENDBRANCH  31  33
ENDBRANCH  30  31
ENDBRANCH  26  30
ENDBRANCH  25  28
ENDBRANCH  22  25
ENDBRANCH   1  22
TORSDOF 16
