REMARK VINA RESULT:    -6.483     12.253     19.647
REMARK INTER + INTRA:         -13.554
REMARK INTER:                 -11.635
REMARK INTRA:                  -1.919
REMARK UNBOUND:                -2.334
REMARK  Name = lig_assembled_15.pdb
REMARK  16 active torsions:
REMARK  status: ('A' for Active; 'I' for Inactive)
REMARK    1  A    between atoms: _2  and  _9
REMARK    2  A    between atoms: _4  and  _18
REMARK    3  A    between atoms: _6  and  _7
REMARK    4  A    between atoms: _6  and  _18
REMARK    5  A    between atoms: _14  and  _34
REMARK    6  A    between atoms: _16  and  _22
REMARK    7  A    between atoms: _17  and  _21
REMARK    8  A    between atoms: _21  and  _22
REMARK    9  A    between atoms: _24  and  _25
REMARK   10  A    between atoms: _26  and  _27
REMARK   11  A    between atoms: _28  and  _30
REMARK   12  A    between atoms: _30  and  _31
REMARK   13  A    between atoms: _30  and  _32
REMARK   14  A    between atoms: _32  and  _33
REMARK   15  A    between atoms: _32  and  _34
REMARK   16  A    between atoms: _35  and  _37
REMARK                            x       y       z     vdW  Elec       q    Type
REMARK                         _______ _______ _______ _____ _____    ______ ____
ROOT
ATOM      1  C   UNL     1      -2.119   8.490  13.328  0.00  0.00    +0.163 C 
ENDROOT
BRANCH   1   2
ATOM      2  O   UNL     1      -2.430   8.430  11.926  0.00  0.00    -0.388 OA
ATOM      3  H   UNL     1      -2.113   7.600  11.563  0.00  0.00    +0.210 HD
ENDBRANCH   1   2
BRANCH   1   4
ATOM      4  C   UNL     1      -2.443   7.156  13.992  0.00  0.00    +0.141 C 
BRANCH   4   7
ATOM      5  C   UNL     1      -1.678   6.582  16.270  0.00  0.00    +0.401 C 
ATOM      6  O   UNL     1      -2.793   6.720  16.781  0.00  0.00    -0.226 OA
ATOM      7  N   UNL     1      -1.423   6.772  14.975  0.00  0.00    -0.279 N 
ATOM      8  H   UNL     1      -0.474   6.644  14.653  0.00  0.00    +0.152 HD
BRANCH   5   9
ATOM      9  O   UNL     1      -0.577   6.201  17.099  0.00  0.00    -0.444 OA
BRANCH   9  10
ATOM     10  C   UNL     1      -0.496   4.774  17.160  0.00  0.00    +0.292 C 
BRANCH  10  12
ATOM     11  N   UNL     1       1.578   3.826  18.119  0.00  0.00    -0.131 NA
ATOM     12  C   UNL     1       0.335   4.357  18.305  0.00  0.00    +0.121 A 
ATOM     13  C   UNL     1       0.070   4.416  19.654  0.00  0.00    +0.143 A 
ATOM     14  N   UNL     1       1.206   3.932  20.261  0.00  0.00    -0.220 N 
ATOM     15  N   UNL     1       2.098   3.564  19.310  0.00  0.00    -0.060 NA
BRANCH  14  16
ATOM     16  C   UNL     1       1.496   3.827  21.647  0.00  0.00    +0.067 A 
ATOM     17  C   UNL     1       1.719   2.579  22.245  0.00  0.00    +0.029 A 
ATOM     18  C   UNL     1       1.963   2.494  23.619  0.00  0.00    +0.017 A 
ATOM     19  C   UNL     1       1.988   3.651  24.395  0.00  0.00    +0.018 A 
ATOM     20 BR   UNL     1       2.291   3.524  26.257  0.00  0.00    -0.050 Br
ATOM     21  C   UNL     1       1.783   4.898  23.809  0.00  0.00    +0.017 A 
ATOM     22  C   UNL     1       1.540   4.989  22.436  0.00  0.00    +0.029 A 
ENDBRANCH  14  16
ENDBRANCH  10  12
ENDBRANCH   9  10
ENDBRANCH   5   9
ENDBRANCH   4   7
ENDBRANCH   1   4
BRANCH   1  23
ATOM     23  C   UNL     1      -2.910   9.614  14.020  0.00  0.00    +0.175 C 
BRANCH  23  24
ATOM     24  C   UNL     1      -3.157  10.806  13.085  0.00  0.00    +0.176 C 
ATOM     25  O   UNL     1      -1.900  11.129  12.429  0.00  0.00    -0.332 OA
ATOM     26  C   UNL     1      -1.967  12.184  11.413  0.00  0.00    +0.277 C 
ATOM     27  C   UNL     1      -2.593  13.469  12.008  0.00  0.00    +0.110 C 
ATOM     28  C   UNL     1      -3.916  13.171  12.743  0.00  0.00    +0.143 C 
ATOM     29  C   UNL     1      -3.732  12.057  13.774  0.00  0.00    +0.133 C 
BRANCH  29  30
ATOM     30  N   UNL     1      -5.018  11.723  14.406  0.00  0.00    -0.308 N 
ATOM     31  H   UNL     1      -5.748  11.342  13.819  0.00  0.00    +0.149 HD
ATOM     32  C   UNL     1      -5.285  11.889  15.704  0.00  0.00    +0.210 C 
ATOM     33  C   UNL     1      -4.162  12.495  16.567  0.00  0.00    +0.109 C 
ATOM     34  O   UNL     1      -6.367  11.586  16.209  0.00  0.00    -0.276 OA
ENDBRANCH  29  30
BRANCH  26  35
ATOM     35  C   UNL     1      -2.798  11.720  10.198  0.00  0.00    +0.414 C 
ATOM     36  O   UNL     1      -3.148  12.530   9.341  0.00  0.00    -0.240 OA
ATOM     37  O   UNL     1      -3.119  10.538  10.076  0.00  0.00    -0.240 OA
ENDBRANCH  26  35
BRANCH  28  38
ATOM     38  O   UNL     1      -4.378  14.351  13.402  0.00  0.00    -0.390 OA
ATOM     39  H   UNL     1      -4.525  14.163  14.331  0.00  0.00    +0.210 HD
ENDBRANCH  28  38
BRANCH  26  40
ATOM     40  O   UNL     1      -0.613  12.487  10.991  0.00  0.00    -0.343 OA
ATOM     41  C   UNL     1      -0.168  13.836  11.282  0.00  0.00    +0.198 C 
ENDBRANCH  26  40
ENDBRANCH  23  24
BRANCH  23  42
ATOM     42  O   UNL     1      -2.218  10.049  15.207  0.00  0.00    -0.387 OA
ATOM     43  H   UNL     1      -2.748   9.842  15.981  0.00  0.00    +0.210 HD
ENDBRANCH  23  42
ENDBRANCH   1  23
TORSDOF 14
