REMARK VINA RESULT:    -6.778      1.875      2.331
REMARK INTER + INTRA:         -13.881
REMARK INTER:                 -12.233
REMARK INTRA:                  -1.648
REMARK UNBOUND:                -2.150
REMARK  Name = lig_assembled_80.pdb
REMARK  16 active torsions:
REMARK  status: ('A' for Active; 'I' for Inactive)
REMARK    1  A    between atoms: _2  and  _10
REMARK    2  A    between atoms: _5  and  _24
REMARK    3  A    between atoms: _7  and  _8
REMARK    4  A    between atoms: _7  and  _24
REMARK    5  A    between atoms: _20  and  _40
REMARK    6  A    between atoms: _22  and  _28
REMARK    7  A    between atoms: _23  and  _27
REMARK    8  A    between atoms: _27  and  _28
REMARK    9  A    between atoms: _30  and  _31
REMARK   10  A    between atoms: _32  and  _33
REMARK   11  A    between atoms: _34  and  _36
REMARK   12  A    between atoms: _36  and  _37
REMARK   13  A    between atoms: _36  and  _38
REMARK   14  A    between atoms: _38  and  _39
REMARK   15  A    between atoms: _38  and  _40
REMARK   16  A    between atoms: _41  and  _43
REMARK                            x       y       z     vdW  Elec       q    Type
REMARK                         _______ _______ _______ _____ _____    ______ ____
ROOT
ATOM      1  C   UNL     1       2.130   2.463  32.082  0.00  0.00    +0.141 C 
ENDROOT
BRANCH   1   4
ATOM      2  C   UNL     1       1.511   3.213  29.810  0.00  0.00    +0.401 C 
ATOM      3  O   UNL     1       2.343   2.497  29.246  0.00  0.00    -0.226 OA
ATOM      4  N   UNL     1       1.347   3.265  31.132  0.00  0.00    -0.279 N 
ATOM      5  H   UNL     1       0.645   3.890  31.502  0.00  0.00    +0.152 HD
BRANCH   2   6
ATOM      6  O   UNL     1       0.664   4.049  29.018  0.00  0.00    -0.444 OA
BRANCH   6   7
ATOM      7  C   UNL     1      -0.051   3.248  28.074  0.00  0.00    +0.292 C 
BRANCH   7   9
ATOM      8  N   UNL     1      -0.729   5.180  26.702  0.00  0.00    -0.131 NA
ATOM      9  C   UNL     1      -0.146   3.944  26.775  0.00  0.00    +0.120 A 
ATOM     10  C   UNL     1       0.278   3.562  25.522  0.00  0.00    +0.138 A 
ATOM     11  N   UNL     1      -0.128   4.590  24.713  0.00  0.00    -0.239 N 
ATOM     12  N   UNL     1      -0.702   5.577  25.437  0.00  0.00    -0.065 NA
BRANCH  11  13
ATOM     13  C   UNL     1       0.126   4.819  23.286  0.00  0.00    +0.195 C 
ATOM     14  C   UNL     1       1.493   4.242  22.942  0.00  0.00    +0.041 C 
ATOM     15  C   UNL     1       1.945   4.694  21.569  0.00  0.00    +0.039 C 
ATOM     16  C   UNL     1       1.375   3.788  20.523  0.00  0.00    -0.026 A 
ATOM     17  C   UNL     1       0.003   3.689  20.281  0.00  0.00    +0.037 A 
ATOM     18  C   UNL     1      -0.448   2.910  19.202  0.00  0.00    +0.023 A 
ATOM     19  C   UNL     1       0.438   2.145  18.446  0.00  0.00    +0.002 A 
ATOM     20  C   UNL     1       1.794   2.184  18.733  0.00  0.00    +0.000 A 
ATOM     21  N   UNL     1      -1.012   4.241  21.081  0.00  0.00    -0.284 N 
ATOM     22  H   UNL     1      -1.955   4.089  20.735  0.00  0.00    +0.155 HD
ATOM     23  C   UNL     1       2.262   3.019  19.746  0.00  0.00    +0.005 A 
ATOM     24  C   UNL     1      -1.068   4.403  22.436  0.00  0.00    +0.242 C 
ATOM     25  O   UNL     1      -2.201   4.296  22.921  0.00  0.00    -0.273 OA
ENDBRANCH  11  13
ENDBRANCH   7   9
ENDBRANCH   6   7
ENDBRANCH   2   6
ENDBRANCH   1   4
BRANCH   1  26
ATOM     26  C   UNL     1       3.291   3.256  32.672  0.00  0.00    +0.163 C 
BRANCH  26  27
ATOM     27  O   UNL     1       3.317   4.580  32.115  0.00  0.00    -0.388 OA
ATOM     28  H   UNL     1       2.418   4.901  32.010  0.00  0.00    +0.210 HD
ENDBRANCH  26  27
BRANCH  26  29
ATOM     29  C   UNL     1       3.153   3.306  34.204  0.00  0.00    +0.175 C 
BRANCH  29  30
ATOM     30  C   UNL     1       4.428   3.830  34.882  0.00  0.00    +0.176 C 
ATOM     31  O   UNL     1       4.547   5.246  34.577  0.00  0.00    -0.332 OA
ATOM     32  C   UNL     1       5.656   5.945  35.232  0.00  0.00    +0.277 C 
ATOM     33  C   UNL     1       6.997   5.231  34.933  0.00  0.00    +0.110 C 
ATOM     34  C   UNL     1       6.910   3.716  35.213  0.00  0.00    +0.143 C 
ATOM     35  C   UNL     1       5.719   3.091  34.485  0.00  0.00    +0.133 C 
BRANCH  35  36
ATOM     36  N   UNL     1       5.596   1.666  34.828  0.00  0.00    -0.308 N 
ATOM     37  H   UNL     1       5.334   1.429  35.775  0.00  0.00    +0.149 HD
ATOM     38  C   UNL     1       5.806   0.664  33.970  0.00  0.00    +0.210 C 
ATOM     39  C   UNL     1       6.229   1.056  32.542  0.00  0.00    +0.109 C 
ATOM     40  O   UNL     1       5.681  -0.521  34.281  0.00  0.00    -0.276 OA
ENDBRANCH  35  36
BRANCH  32  41
ATOM     41  C   UNL     1       5.436   6.011  36.758  0.00  0.00    +0.414 C 
ATOM     42  O   UNL     1       6.396   5.951  37.526  0.00  0.00    -0.240 OA
ATOM     43  O   UNL     1       4.300   6.125  37.220  0.00  0.00    -0.240 OA
ENDBRANCH  32  41
BRANCH  34  44
ATOM     44  O   UNL     1       8.113   3.076  34.782  0.00  0.00    -0.390 OA
ATOM     45  H   UNL     1       7.953   2.616  33.955  0.00  0.00    +0.210 HD
ENDBRANCH  34  44
BRANCH  32  46
ATOM     46  O   UNL     1       5.723   7.289  34.690  0.00  0.00    -0.343 OA
ATOM     47  C   UNL     1       7.063   7.774  34.419  0.00  0.00    +0.198 C 
ENDBRANCH  32  46
ENDBRANCH  29  30
BRANCH  29  48
ATOM     48  O   UNL     1       2.819   2.000  34.715  0.00  0.00    -0.387 OA
ATOM     49  H   UNL     1       3.609   1.581  35.066  0.00  0.00    +0.210 HD
ENDBRANCH  29  48
ENDBRANCH  26  29
ENDBRANCH   1  26
TORSDOF 14
