REMARK VINA RESULT:    -5.715     14.293     18.073
REMARK INTER + INTRA:         -13.339
REMARK INTER:                 -11.579
REMARK INTRA:                  -1.760
REMARK UNBOUND:                -2.111
REMARK  Name = lig_assembled_17.pdb
REMARK  22 active torsions:
REMARK  status: ('A' for Active; 'I' for Inactive)
REMARK    1  A    between atoms: _2  and  _10
REMARK    2  A    between atoms: _3  and  _11
REMARK    3  A    between atoms: _3  and  _12
REMARK    4  A    between atoms: _3  and  _14
REMARK    5  A    between atoms: _5  and  _19
REMARK    6  A    between atoms: _6  and  _14
REMARK    7  A    between atoms: _7  and  _8
REMARK    8  A    between atoms: _7  and  _19
REMARK    9  A    between atoms: _10  and  _11
REMARK   10  A    between atoms: _12  and  _13
REMARK   11  A    between atoms: _15  and  _35
REMARK   12  A    between atoms: _17  and  _23
REMARK   13  A    between atoms: _18  and  _22
REMARK   14  A    between atoms: _22  and  _23
REMARK   15  A    between atoms: _25  and  _26
REMARK   16  A    between atoms: _27  and  _28
REMARK   17  A    between atoms: _29  and  _31
REMARK   18  A    between atoms: _31  and  _32
REMARK   19  A    between atoms: _31  and  _33
REMARK   20  A    between atoms: _33  and  _34
REMARK   21  A    between atoms: _33  and  _35
REMARK   22  A    between atoms: _36  and  _38
REMARK                            x       y       z     vdW  Elec       q    Type
REMARK                         _______ _______ _______ _____ _____    ______ ____
ROOT
ATOM      1  C   UNL     1      17.266   1.469  26.294  0.00  0.00    +0.163 C 
ENDROOT
BRANCH   1   2
ATOM      2  O   UNL     1      17.013   0.332  27.135  0.00  0.00    -0.388 OA
ATOM      3  H   UNL     1      17.033  -0.469  26.606  0.00  0.00    +0.210 HD
ENDBRANCH   1   2
BRANCH   1   4
ATOM      4  C   UNL     1      16.694   1.248  24.883  0.00  0.00    +0.175 C 
BRANCH   4   5
ATOM      5  C   UNL     1      17.741   0.672  23.918  0.00  0.00    +0.176 C 
ATOM      6  O   UNL     1      17.676   1.433  22.681  0.00  0.00    -0.332 OA
ATOM      7  C   UNL     1      18.683   1.091  21.672  0.00  0.00    +0.277 C 
ATOM      8  C   UNL     1      18.640  -0.425  21.357  0.00  0.00    +0.110 C 
ATOM      9  C   UNL     1      18.676  -1.275  22.645  0.00  0.00    +0.143 C 
ATOM     10  C   UNL     1      17.588  -0.832  23.624  0.00  0.00    +0.133 C 
BRANCH  10  11
ATOM     11  N   UNL     1      17.687  -1.591  24.881  0.00  0.00    -0.308 N 
ATOM     12  H   UNL     1      18.484  -1.414  25.477  0.00  0.00    +0.149 HD
ATOM     13  C   UNL     1      16.794  -2.498  25.285  0.00  0.00    +0.210 C 
ATOM     14  C   UNL     1      15.606  -2.764  24.342  0.00  0.00    +0.109 C 
ATOM     15  O   UNL     1      16.895  -3.108  26.350  0.00  0.00    -0.276 OA
ENDBRANCH  10  11
BRANCH   7  16
ATOM     16  C   UNL     1      20.096   1.477  22.157  0.00  0.00    +0.414 C 
ATOM     17  O   UNL     1      20.237   2.202  23.142  0.00  0.00    -0.240 OA
ATOM     18  O   UNL     1      21.094   1.064  21.565  0.00  0.00    -0.240 OA
ENDBRANCH   7  16
BRANCH   9  19
ATOM     19  O   UNL     1      18.482  -2.652  22.318  0.00  0.00    -0.390 OA
ATOM     20  H   UNL     1      18.935  -3.201  22.962  0.00  0.00    +0.210 HD
ENDBRANCH   9  19
BRANCH   7  21
ATOM     21  O   UNL     1      18.368   1.819  20.458  0.00  0.00    -0.343 OA
ATOM     22  C   UNL     1      16.964   1.824  20.094  0.00  0.00    +0.198 C 
ENDBRANCH   7  21
ENDBRANCH   4   5
BRANCH   4  23
ATOM     23  O   UNL     1      16.165   2.483  24.362  0.00  0.00    -0.387 OA
ATOM     24  H   UNL     1      15.722   2.964  25.065  0.00  0.00    +0.210 HD
ENDBRANCH   4  23
ENDBRANCH   1   4
BRANCH   1  25
ATOM     25  C   UNL     1      16.644   2.720  26.906  0.00  0.00    +0.141 C 
BRANCH  25  28
ATOM     26  C   UNL     1      18.532   4.283  26.597  0.00  0.00    +0.401 C 
ATOM     27  O   UNL     1      18.578   4.135  25.374  0.00  0.00    -0.226 OA
ATOM     28  N   UNL     1      17.664   3.657  27.392  0.00  0.00    -0.279 N 
ATOM     29  H   UNL     1      17.711   3.837  28.385  0.00  0.00    +0.152 HD
BRANCH  26  30
ATOM     30  O   UNL     1      19.460   5.174  27.223  0.00  0.00    -0.444 OA
BRANCH  30  31
ATOM     31  C   UNL     1      19.143   5.293  28.613  0.00  0.00    +0.292 C 
BRANCH  31  33
ATOM     32  N   UNL     1      19.174   7.700  28.050  0.00  0.00    -0.131 NA
ATOM     33  C   UNL     1      18.981   6.712  28.979  0.00  0.00    +0.120 A 
ATOM     34  C   UNL     1      18.630   7.284  30.181  0.00  0.00    +0.137 A 
ATOM     35  N   UNL     1      18.608   8.619  29.910  0.00  0.00    -0.250 N 
ATOM     36  N   UNL     1      18.946   8.867  28.633  0.00  0.00    -0.065 NA
BRANCH  35  37
ATOM     37  C   UNL     1      18.238   9.712  30.786  0.00  0.00    +0.160 C 
BRANCH  37  38
ATOM     38  C   UNL     1      17.466   9.188  32.005  0.00  0.00    +0.107 C 
BRANCH  38  39
ATOM     39  N   UNL     1      16.183   9.870  32.305  0.00  0.00    -0.301 NA
BRANCH  39  40
ATOM     40  C   UNL     1      15.313   9.104  33.216  0.00  0.00    +0.081 C 
ATOM     41  C   UNL     1      15.653   7.628  33.401  0.00  0.00    +0.020 C 
ENDBRANCH  39  40
BRANCH  39  42
ATOM     42  C   UNL     1      16.472  11.238  32.783  0.00  0.00    +0.081 C 
ATOM     43  C   UNL     1      17.067  11.316  34.185  0.00  0.00    +0.020 C 
ENDBRANCH  39  42
ENDBRANCH  38  39
ENDBRANCH  37  38
ENDBRANCH  35  37
ENDBRANCH  31  33
ENDBRANCH  30  31
ENDBRANCH  26  30
ENDBRANCH  25  28
ENDBRANCH   1  25
TORSDOF 18
