REMARK VINA RESULT:    -5.864      1.915      2.764
REMARK INTER + INTRA:         -12.740
REMARK INTER:                 -11.022
REMARK INTRA:                  -1.718
REMARK UNBOUND:                -2.248
REMARK  Name = lig_assembled_61.pdb
REMARK  17 active torsions:
REMARK  status: ('A' for Active; 'I' for Inactive)
REMARK    1  A    between atoms: _2  and  _9
REMARK    2  A    between atoms: _4  and  _17
REMARK    3  A    between atoms: _6  and  _7
REMARK    4  A    between atoms: _6  and  _17
REMARK    5  A    between atoms: _9  and  _10
REMARK    6  A    between atoms: _13  and  _33
REMARK    7  A    between atoms: _15  and  _21
REMARK    8  A    between atoms: _16  and  _20
REMARK    9  A    between atoms: _20  and  _21
REMARK   10  A    between atoms: _23  and  _24
REMARK   11  A    between atoms: _25  and  _26
REMARK   12  A    between atoms: _27  and  _29
REMARK   13  A    between atoms: _29  and  _30
REMARK   14  A    between atoms: _29  and  _31
REMARK   15  A    between atoms: _31  and  _32
REMARK   16  A    between atoms: _31  and  _33
REMARK   17  A    between atoms: _34  and  _36
REMARK                            x       y       z     vdW  Elec       q    Type
REMARK                         _______ _______ _______ _____ _____    ______ ____
ROOT
ATOM      1  C   UNL     1       3.416   3.329  32.473  0.00  0.00    +0.163 C 
ENDROOT
BRANCH   1   2
ATOM      2  O   UNL     1       3.630   4.737  32.278  0.00  0.00    -0.388 OA
ATOM      3  H   UNL     1       3.936   4.893  31.382  0.00  0.00    +0.210 HD
ENDBRANCH   1   2
BRANCH   1   4
ATOM      4  C   UNL     1       2.148   2.888  31.751  0.00  0.00    +0.141 C 
BRANCH   4   7
ATOM      5  C   UNL     1       2.074   3.063  29.287  0.00  0.00    +0.401 C 
ATOM      6  O   UNL     1       2.374   1.882  29.100  0.00  0.00    -0.226 OA
ATOM      7  N   UNL     1       1.952   3.619  30.493  0.00  0.00    -0.279 N 
ATOM      8  H   UNL     1       1.711   4.599  30.544  0.00  0.00    +0.152 HD
BRANCH   5   9
ATOM      9  O   UNL     1       1.842   3.908  28.157  0.00  0.00    -0.444 OA
BRANCH   9  10
ATOM     10  C   UNL     1       1.345   3.124  27.069  0.00  0.00    +0.292 C 
BRANCH  10  12
ATOM     11  N   UNL     1       0.199   4.828  25.688  0.00  0.00    -0.131 NA
ATOM     12  C   UNL     1       1.236   3.946  25.849  0.00  0.00    +0.120 A 
ATOM     13  C   UNL     1       2.053   4.002  24.742  0.00  0.00    +0.137 A 
ATOM     14  N   UNL     1       1.428   4.891  23.918  0.00  0.00    -0.247 N 
ATOM     15  N   UNL     1       0.337   5.417  24.506  0.00  0.00    -0.065 NA
BRANCH  14  16
ATOM     16  C   UNL     1       1.824   5.317  22.588  0.00  0.00    +0.180 C 
BRANCH  16  17
ATOM     17  C   UNL     1       1.309   4.385  21.527  0.00  0.00    -0.019 A 
ATOM     18  C   UNL     1       0.150   4.635  20.716  0.00  0.00    +0.013 A 
ATOM     19  C   UNL     1      -0.127   3.602  19.847  0.00  0.00    +0.045 A 
ATOM     20  S   UNL     1       1.003   2.330  19.984  0.00  0.00    -0.105 S 
ATOM     21  C   UNL     1       1.858   3.152  21.215  0.00  0.00    +0.050 A 
ENDBRANCH  16  17
ENDBRANCH  14  16
ENDBRANCH  10  12
ENDBRANCH   9  10
ENDBRANCH   5   9
ENDBRANCH   4   7
ENDBRANCH   1   4
BRANCH   1  22
ATOM     22  C   UNL     1       3.299   2.992  33.970  0.00  0.00    +0.175 C 
BRANCH  22  23
ATOM     23  C   UNL     1       4.161   3.919  34.840  0.00  0.00    +0.176 C 
ATOM     24  O   UNL     1       5.468   4.034  34.212  0.00  0.00    -0.332 OA
ATOM     25  C   UNL     1       6.398   4.970  34.850  0.00  0.00    +0.277 C 
ATOM     26  C   UNL     1       6.567   4.625  36.350  0.00  0.00    +0.110 C 
ATOM     27  C   UNL     1       5.204   4.461  37.054  0.00  0.00    +0.143 C 
ATOM     28  C   UNL     1       4.315   3.468  36.304  0.00  0.00    +0.133 C 
BRANCH  28  29
ATOM     29  N   UNL     1       2.988   3.386  36.935  0.00  0.00    -0.308 N 
ATOM     30  H   UNL     1       2.390   4.198  36.883  0.00  0.00    +0.149 HD
ATOM     31  C   UNL     1       2.523   2.308  37.572  0.00  0.00    +0.210 C 
ATOM     32  C   UNL     1       3.469   1.095  37.657  0.00  0.00    +0.109 C 
ATOM     33  O   UNL     1       1.401   2.262  38.078  0.00  0.00    -0.276 OA
ENDBRANCH  28  29
BRANCH  25  34
ATOM     34  C   UNL     1       5.897   6.422  34.709  0.00  0.00    +0.414 C 
ATOM     35  O   UNL     1       4.986   6.690  33.926  0.00  0.00    -0.240 OA
ATOM     36  O   UNL     1       6.402   7.325  35.376  0.00  0.00    -0.240 OA
ENDBRANCH  25  34
BRANCH  25  37
ATOM     37  O   UNL     1       7.688   4.833  34.201  0.00  0.00    -0.343 OA
ATOM     38  C   UNL     1       8.458   3.673  34.607  0.00  0.00    +0.198 C 
ENDBRANCH  25  37
BRANCH  27  39
ATOM     39  O   UNL     1       5.404   3.997  38.390  0.00  0.00    -0.390 OA
ATOM     40  H   UNL     1       6.179   3.431  38.420  0.00  0.00    +0.210 HD
ENDBRANCH  27  39
ENDBRANCH  22  23
BRANCH  22  41
ATOM     41  O   UNL     1       3.661   1.616  34.199  0.00  0.00    -0.387 OA
ATOM     42  H   UNL     1       4.161   1.548  35.016  0.00  0.00    +0.210 HD
ENDBRANCH  22  41
ENDBRANCH   1  22
TORSDOF 15
