REMARK VINA RESULT:    -5.545      4.039     11.835
REMARK INTER + INTRA:         -13.072
REMARK INTER:                 -11.025
REMARK INTRA:                  -2.047
REMARK UNBOUND:                -3.800
REMARK  Name = lig_assembled_65.pdb
REMARK  16 active torsions:
REMARK  status: ('A' for Active; 'I' for Inactive)
REMARK    1  A    between atoms: _8  and  _20
REMARK    2  A    between atoms: _9  and  _15
REMARK    3  A    between atoms: _10  and  _11
REMARK    4  A    between atoms: _10  and  _20
REMARK    5  A    between atoms: _16  and  _36
REMARK    6  A    between atoms: _18  and  _24
REMARK    7  A    between atoms: _19  and  _23
REMARK    8  A    between atoms: _23  and  _24
REMARK    9  A    between atoms: _26  and  _27
REMARK   10  A    between atoms: _28  and  _29
REMARK   11  A    between atoms: _30  and  _32
REMARK   12  A    between atoms: _32  and  _33
REMARK   13  A    between atoms: _32  and  _34
REMARK   14  A    between atoms: _34  and  _35
REMARK   15  A    between atoms: _34  and  _36
REMARK   16  A    between atoms: _37  and  _39
REMARK                            x       y       z     vdW  Elec       q    Type
REMARK                         _______ _______ _______ _____ _____    ______ ____
ROOT
ATOM      1  C   UNL     1      18.720  10.360  29.220  0.00  0.00    +0.163 C 
ENDROOT
BRANCH   1   2
ATOM      2  O   UNL     1      17.434  10.985  29.367  0.00  0.00    -0.388 OA
ATOM      3  H   UNL     1      16.846  10.398  29.849  0.00  0.00    +0.210 HD
ENDBRANCH   1   2
BRANCH   1   4
ATOM      4  C   UNL     1      19.041  10.168  27.741  0.00  0.00    +0.141 C 
BRANCH   4   7
ATOM      5  C   UNL     1      19.898   8.175  26.558  0.00  0.00    +0.401 C 
ATOM      6  O   UNL     1      20.859   8.767  26.061  0.00  0.00    -0.226 OA
ATOM      7  N   UNL     1      18.994   8.753  27.351  0.00  0.00    -0.279 N 
ATOM      8  H   UNL     1      18.235   8.186  27.702  0.00  0.00    +0.152 HD
BRANCH   5   9
ATOM      9  O   UNL     1      19.718   6.784  26.278  0.00  0.00    -0.444 OA
BRANCH   9  10
ATOM     10  C   UNL     1      18.806   6.630  25.188  0.00  0.00    +0.292 C 
BRANCH  10  12
ATOM     11  N   UNL     1      19.602   4.287  25.282  0.00  0.00    -0.131 NA
ATOM     12  C   UNL     1      18.865   5.255  24.657  0.00  0.00    +0.121 A 
ATOM     13  C   UNL     1      18.262   4.713  23.548  0.00  0.00    +0.149 A 
ATOM     14  N   UNL     1      18.671   3.396  23.528  0.00  0.00    -0.155 N 
ATOM     15  C   UNL     1      18.333   2.404  22.561  0.00  0.00    +0.416 C 
ATOM     16  N   UNL     1      18.827   1.169  22.711  0.00  0.00    +0.041 NA
ATOM     17  C   UNL     1      18.482   0.304  21.760  0.00  0.00    +0.339 C 
ATOM     18  C   UNL     1      19.015  -1.090  21.865  0.00  0.00    +0.149 C 
ATOM     19  N   UNL     1      17.706   0.598  20.717  0.00  0.00    +0.007 NA
ATOM     20  C   UNL     1      17.282   1.850  20.655  0.00  0.00    +0.386 C 
ATOM     21  N   UNL     1      16.485   2.199  19.585  0.00  0.00    -0.296 N 
ATOM     22  H   UNL     1      16.042   1.382  19.188  0.00  0.00    +0.148 HD
ATOM     23  H   UNL     1      15.896   2.988  19.807  0.00  0.00    +0.148 HD
ATOM     24  N   UNL     1      17.541   2.787  21.550  0.00  0.00    -0.290 NA
ATOM     25  N   UNL     1      19.478   3.159  24.594  0.00  0.00    -0.055 NA
ENDBRANCH  10  12
ENDBRANCH   9  10
ENDBRANCH   5   9
ENDBRANCH   4   7
ENDBRANCH   1   4
BRANCH   1  26
ATOM     26  C   UNL     1      18.755   8.998  29.935  0.00  0.00    +0.175 C 
BRANCH  26  27
ATOM     27  C   UNL     1      17.952   9.012  31.243  0.00  0.00    +0.176 C 
ATOM     28  O   UNL     1      18.200  10.281  31.908  0.00  0.00    -0.332 OA
ATOM     29  C   UNL     1      17.429  10.518  33.132  0.00  0.00    +0.277 C 
ATOM     30  C   UNL     1      17.631   9.354  34.133  0.00  0.00    +0.110 C 
ATOM     31  C   UNL     1      17.408   7.982  33.464  0.00  0.00    +0.143 C 
ATOM     32  C   UNL     1      18.257   7.844  32.199  0.00  0.00    +0.133 C 
BRANCH  32  33
ATOM     33  N   UNL     1      17.971   6.568  31.524  0.00  0.00    -0.308 N 
ATOM     34  H   UNL     1      17.064   6.455  31.094  0.00  0.00    +0.149 HD
ATOM     35  C   UNL     1      18.833   5.551  31.441  0.00  0.00    +0.210 C 
ATOM     36  C   UNL     1      20.198   5.745  32.127  0.00  0.00    +0.109 C 
ATOM     37  O   UNL     1      18.571   4.499  30.855  0.00  0.00    -0.276 OA
ENDBRANCH  32  33
BRANCH  29  38
ATOM     38  C   UNL     1      15.927  10.667  32.811  0.00  0.00    +0.414 C 
ATOM     39  O   UNL     1      15.087  10.075  33.487  0.00  0.00    -0.240 OA
ATOM     40  O   UNL     1      15.556  11.379  31.877  0.00  0.00    -0.240 OA
ENDBRANCH  29  38
BRANCH  29  41
ATOM     41  O   UNL     1      17.921  11.738  33.743  0.00  0.00    -0.343 OA
ATOM     42  C   UNL     1      17.614  11.884  35.153  0.00  0.00    +0.198 C 
ENDBRANCH  29  41
BRANCH  31  43
ATOM     43  O   UNL     1      17.751   6.939  34.377  0.00  0.00    -0.390 OA
ATOM     44  H   UNL     1      18.315   6.299  33.936  0.00  0.00    +0.210 HD
ENDBRANCH  31  43
ENDBRANCH  26  27
BRANCH  26  45
ATOM     45  O   UNL     1      20.119   8.608  30.193  0.00  0.00    -0.387 OA
ATOM     46  H   UNL     1      20.162   8.123  31.020  0.00  0.00    +0.210 HD
ENDBRANCH  26  45
ENDBRANCH   1  26
TORSDOF 13
