REMARK VINA RESULT:    -6.618      4.207      6.699
REMARK INTER + INTRA:         -13.604
REMARK INTER:                  -9.810
REMARK INTRA:                  -3.795
REMARK UNBOUND:                -2.150
REMARK  Name = lig_assembled_80.pdb
REMARK  16 active torsions:
REMARK  status: ('A' for Active; 'I' for Inactive)
REMARK    1  A    between atoms: _2  and  _10
REMARK    2  A    between atoms: _5  and  _24
REMARK    3  A    between atoms: _7  and  _8
REMARK    4  A    between atoms: _7  and  _24
REMARK    5  A    between atoms: _20  and  _40
REMARK    6  A    between atoms: _22  and  _28
REMARK    7  A    between atoms: _23  and  _27
REMARK    8  A    between atoms: _27  and  _28
REMARK    9  A    between atoms: _30  and  _31
REMARK   10  A    between atoms: _32  and  _33
REMARK   11  A    between atoms: _34  and  _36
REMARK   12  A    between atoms: _36  and  _37
REMARK   13  A    between atoms: _36  and  _38
REMARK   14  A    between atoms: _38  and  _39
REMARK   15  A    between atoms: _38  and  _40
REMARK   16  A    between atoms: _41  and  _43
REMARK                            x       y       z     vdW  Elec       q    Type
REMARK                         _______ _______ _______ _____ _____    ______ ____
ROOT
ATOM      1  C   UNL     1       0.868   0.210  30.132  0.00  0.00    +0.141 C 
ENDROOT
BRANCH   1   4
ATOM      2  C   UNL     1       1.072   2.613  30.673  0.00  0.00    +0.401 C 
ATOM      3  O   UNL     1       1.698   2.421  31.718  0.00  0.00    -0.226 OA
ATOM      4  N   UNL     1       0.639   1.637  29.873  0.00  0.00    -0.279 N 
ATOM      5  H   UNL     1       0.125   1.894  29.042  0.00  0.00    +0.152 HD
BRANCH   2   6
ATOM      6  O   UNL     1       0.776   3.954  30.277  0.00  0.00    -0.444 OA
BRANCH   6   7
ATOM      7  C   UNL     1      -0.395   3.963  29.455  0.00  0.00    +0.292 C 
BRANCH   7   9
ATOM      8  N   UNL     1       1.281   3.851  27.652  0.00  0.00    -0.131 NA
ATOM      9  C   UNL     1      -0.021   4.036  28.028  0.00  0.00    +0.120 A 
ATOM     10  C   UNL     1      -0.794   4.266  26.912  0.00  0.00    +0.138 A 
ATOM     11  N   UNL     1       0.111   4.266  25.884  0.00  0.00    -0.239 N 
ATOM     12  N   UNL     1       1.353   3.979  26.334  0.00  0.00    -0.065 NA
BRANCH  11  13
ATOM     13  C   UNL     1      -0.113   4.351  24.436  0.00  0.00    +0.195 C 
ATOM     14  C   UNL     1       1.179   4.811  23.775  0.00  0.00    +0.041 C 
ATOM     15  C   UNL     1       0.944   5.198  22.330  0.00  0.00    +0.039 C 
ATOM     16  C   UNL     1       1.013   3.981  21.461  0.00  0.00    -0.026 A 
ATOM     17  C   UNL     1       0.095   2.934  21.560  0.00  0.00    +0.037 A 
ATOM     18  C   UNL     1       0.151   1.884  20.628  0.00  0.00    +0.023 A 
ATOM     19  C   UNL     1       1.175   1.810  19.686  0.00  0.00    +0.002 A 
ATOM     20  C   UNL     1       2.132   2.812  19.634  0.00  0.00    +0.000 A 
ATOM     21  N   UNL     1      -0.861   2.776  22.578  0.00  0.00    -0.284 N 
ATOM     22  H   UNL     1      -1.464   1.965  22.471  0.00  0.00    +0.155 HD
ATOM     23  C   UNL     1       2.037   3.903  20.498  0.00  0.00    +0.005 A 
ATOM     24  C   UNL     1      -0.787   3.092  23.904  0.00  0.00    +0.242 C 
ATOM     25  O   UNL     1      -1.414   2.329  24.650  0.00  0.00    -0.273 OA
ENDBRANCH  11  13
ENDBRANCH   7   9
ENDBRANCH   6   7
ENDBRANCH   2   6
ENDBRANCH   1   4
BRANCH   1  26
ATOM     26  C   UNL     1       2.162  -0.283  29.491  0.00  0.00    +0.163 C 
BRANCH  26  27
ATOM     27  O   UNL     1       2.448  -1.622  29.930  0.00  0.00    -0.388 OA
ATOM     28  H   UNL     1       2.337  -2.230  29.196  0.00  0.00    +0.210 HD
ENDBRANCH  26  27
BRANCH  26  29
ATOM     29  C   UNL     1       2.032  -0.223  27.960  0.00  0.00    +0.175 C 
BRANCH  29  30
ATOM     30  C   UNL     1       3.047  -1.137  27.257  0.00  0.00    +0.176 C 
ATOM     31  O   UNL     1       4.284  -1.102  28.021  0.00  0.00    -0.332 OA
ATOM     32  C   UNL     1       5.342  -2.003  27.556  0.00  0.00    +0.277 C 
ATOM     33  C   UNL     1       5.645  -1.755  26.058  0.00  0.00    +0.110 C 
ATOM     34  C   UNL     1       4.356  -1.751  25.209  0.00  0.00    +0.143 C 
ATOM     35  C   UNL     1       3.323  -0.782  25.784  0.00  0.00    +0.133 C 
BRANCH  35  36
ATOM     36  N   UNL     1       2.068  -0.852  25.019  0.00  0.00    -0.308 N 
ATOM     37  H   UNL     1       1.494  -1.676  25.129  0.00  0.00    +0.149 HD
ATOM     38  C   UNL     1       1.639   0.102  24.188  0.00  0.00    +0.210 C 
ATOM     39  C   UNL     1       2.550   1.334  24.023  0.00  0.00    +0.109 C 
ATOM     40  O   UNL     1       0.577   0.023  23.571  0.00  0.00    -0.276 OA
ENDBRANCH  35  36
BRANCH  32  41
ATOM     41  C   UNL     1       4.935  -3.477  27.762  0.00  0.00    +0.414 C 
ATOM     42  O   UNL     1       3.987  -3.762  28.492  0.00  0.00    -0.240 OA
ATOM     43  O   UNL     1       5.554  -4.381  27.198  0.00  0.00    -0.240 OA
ENDBRANCH  32  41
BRANCH  34  44
ATOM     44  O   UNL     1       4.663  -1.370  23.868  0.00  0.00    -0.390 OA
ATOM     45  H   UNL     1       4.960  -0.457  23.854  0.00  0.00    +0.210 HD
ENDBRANCH  34  44
BRANCH  32  46
ATOM     46  O   UNL     1       6.543  -1.718  28.319  0.00  0.00    -0.343 OA
ATOM     47  C   UNL     1       6.361  -1.684  29.757  0.00  0.00    +0.198 C 
ENDBRANCH  32  46
ENDBRANCH  29  30
BRANCH  29  48
ATOM     48  O   UNL     1       2.187   1.135  27.502  0.00  0.00    -0.387 OA
ATOM     49  H   UNL     1       2.712   1.629  28.136  0.00  0.00    +0.210 HD
ENDBRANCH  29  48
ENDBRANCH  26  29
ENDBRANCH   1  26
TORSDOF 14
