REMARK VINA RESULT:    -5.577      5.661     10.700
REMARK INTER + INTRA:         -12.624
REMARK INTER:                 -10.303
REMARK INTRA:                  -2.321
REMARK UNBOUND:                -1.667
REMARK  Name = lig_assembled_43.pdb
REMARK  20 active torsions:
REMARK  status: ('A' for Active; 'I' for Inactive)
REMARK    1  A    between atoms: _2  and  _9
REMARK    2  A    between atoms: _4  and  _18
REMARK    3  A    between atoms: _6  and  _7
REMARK    4  A    between atoms: _6  and  _18
REMARK    5  A    between atoms: _9  and  _10
REMARK    6  A    between atoms: _10  and  _11
REMARK    7  A    between atoms: _11  and  _12
REMARK    8  A    between atoms: _12  and  _13
REMARK    9  A    between atoms: _14  and  _34
REMARK   10  A    between atoms: _16  and  _22
REMARK   11  A    between atoms: _17  and  _21
REMARK   12  A    between atoms: _21  and  _22
REMARK   13  A    between atoms: _24  and  _25
REMARK   14  A    between atoms: _26  and  _27
REMARK   15  A    between atoms: _28  and  _30
REMARK   16  A    between atoms: _30  and  _31
REMARK   17  A    between atoms: _30  and  _32
REMARK   18  A    between atoms: _32  and  _33
REMARK   19  A    between atoms: _32  and  _34
REMARK   20  A    between atoms: _35  and  _37
REMARK                            x       y       z     vdW  Elec       q    Type
REMARK                         _______ _______ _______ _____ _____    ______ ____
ROOT
ATOM      1  C   UNL     1       8.554   2.580  36.281  0.00  0.00    +0.163 C 
ENDROOT
BRANCH   1   2
ATOM      2  O   UNL     1       8.538   3.166  37.593  0.00  0.00    -0.388 OA
ATOM      3  H   UNL     1       8.328   4.100  37.524  0.00  0.00    +0.210 HD
ENDBRANCH   1   2
BRANCH   1   4
ATOM      4  C   UNL     1       8.901   3.631  35.213  0.00  0.00    +0.175 C 
BRANCH   4   5
ATOM      5  C   UNL     1       7.740   4.605  34.963  0.00  0.00    +0.176 C 
ATOM      6  O   UNL     1       7.575   5.420  36.157  0.00  0.00    -0.332 OA
ATOM      7  C   UNL     1       6.574   6.486  36.063  0.00  0.00    +0.277 C 
ATOM      8  C   UNL     1       5.204   5.906  35.632  0.00  0.00    +0.110 C 
ATOM      9  C   UNL     1       5.334   5.007  34.384  0.00  0.00    +0.143 C 
ATOM     10  C   UNL     1       6.405   3.935  34.590  0.00  0.00    +0.133 C 
BRANCH  10  11
ATOM     11  N   UNL     1       6.580   3.140  33.364  0.00  0.00    -0.308 N 
ATOM     12  H   UNL     1       6.984   3.597  32.559  0.00  0.00    +0.149 HD
ATOM     13  C   UNL     1       6.241   1.853  33.246  0.00  0.00    +0.210 C 
ATOM     14  C   UNL     1       5.604   1.192  34.483  0.00  0.00    +0.109 C 
ATOM     15  O   UNL     1       6.413   1.208  32.212  0.00  0.00    -0.276 OA
ENDBRANCH  10  11
BRANCH   7  16
ATOM     16  C   UNL     1       7.017   7.566  35.054  0.00  0.00    +0.414 C 
ATOM     17  O   UNL     1       8.202   7.888  34.970  0.00  0.00    -0.240 OA
ATOM     18  O   UNL     1       6.191   8.115  34.323  0.00  0.00    -0.240 OA
ENDBRANCH   7  16
BRANCH   9  19
ATOM     19  O   UNL     1       4.082   4.375  34.113  0.00  0.00    -0.390 OA
ATOM     20  H   UNL     1       3.655   4.815  33.374  0.00  0.00    +0.210 HD
ENDBRANCH   9  19
BRANCH   7  21
ATOM     21  O   UNL     1       6.425   7.080  37.378  0.00  0.00    -0.343 OA
ATOM     22  C   UNL     1       7.511   6.805  38.300  0.00  0.00    +0.198 C 
ENDBRANCH   7  21
ENDBRANCH   4   5
BRANCH   4  23
ATOM     23  O   UNL     1       9.279   2.983  33.982  0.00  0.00    -0.387 OA
ATOM     24  H   UNL     1       8.504   2.586  33.578  0.00  0.00    +0.210 HD
ENDBRANCH   4  23
ENDBRANCH   1   4
BRANCH   1  25
ATOM     25  C   UNL     1       9.573   1.446  36.229  0.00  0.00    +0.141 C 
BRANCH  25  28
ATOM     26  C   UNL     1      11.952   1.999  35.854  0.00  0.00    +0.401 C 
ATOM     27  O   UNL     1      11.920   1.739  34.649  0.00  0.00    -0.226 OA
ATOM     28  N   UNL     1      10.903   1.884  36.670  0.00  0.00    -0.279 N 
ATOM     29  H   UNL     1      11.030   2.111  37.646  0.00  0.00    +0.152 HD
BRANCH  26  30
ATOM     30  O   UNL     1      13.179   2.448  36.435  0.00  0.00    -0.444 OA
BRANCH  30  31
ATOM     31  C   UNL     1      13.046   3.815  36.833  0.00  0.00    +0.292 C 
BRANCH  31  33
ATOM     32  N   UNL     1      14.104   4.356  34.661  0.00  0.00    -0.131 NA
ATOM     33  C   UNL     1      13.870   4.682  35.972  0.00  0.00    +0.120 A 
ATOM     34  C   UNL     1      14.512   5.866  36.262  0.00  0.00    +0.137 A 
ATOM     35  N   UNL     1      15.121   6.202  35.090  0.00  0.00    -0.251 N 
ATOM     36  N   UNL     1      14.874   5.297  34.131  0.00  0.00    -0.065 NA
BRANCH  35  37
ATOM     37  C   UNL     1      15.972   7.342  34.822  0.00  0.00    +0.145 C 
BRANCH  37  38
ATOM     38  C   UNL     1      15.817   7.830  33.385  0.00  0.00    +0.024 C 
BRANCH  38  39
ATOM     39  C   UNL     1      15.721   9.355  33.303  0.00  0.00    +0.006 C 
BRANCH  39  40
ATOM     40  C   UNL     1      17.011  10.002  33.812  0.00  0.00    +0.026 C 
BRANCH  40  41
ATOM     41  C   UNL     1      16.737  11.149  34.740  0.00  0.00    -0.034 C 
ATOM     42  C   UNL     1      17.537  11.493  35.757  0.00  0.00    +0.004 C 
ENDBRANCH  40  41
ENDBRANCH  39  40
ENDBRANCH  38  39
ENDBRANCH  37  38
ENDBRANCH  35  37
ENDBRANCH  31  33
ENDBRANCH  30  31
ENDBRANCH  26  30
ENDBRANCH  25  28
ENDBRANCH   1  25
TORSDOF 18
