REMARK VINA RESULT:    -6.339      1.527      3.525
REMARK INTER + INTRA:         -14.652
REMARK INTER:                 -12.882
REMARK INTRA:                  -1.770
REMARK UNBOUND:                -2.569
REMARK  Name = lig_assembled_18.pdb
REMARK  19 active torsions:
REMARK  status: ('A' for Active; 'I' for Inactive)
REMARK    1  A    between atoms: _2  and  _10
REMARK    2  A    between atoms: _3  and  _12
REMARK    3  A    between atoms: _5  and  _21
REMARK    4  A    between atoms: _7  and  _8
REMARK    5  A    between atoms: _7  and  _21
REMARK    6  A    between atoms: _10  and  _11
REMARK    7  A    between atoms: _12  and  _13
REMARK    8  A    between atoms: _17  and  _37
REMARK    9  A    between atoms: _19  and  _25
REMARK   10  A    between atoms: _20  and  _24
REMARK   11  A    between atoms: _24  and  _25
REMARK   12  A    between atoms: _27  and  _28
REMARK   13  A    between atoms: _29  and  _30
REMARK   14  A    between atoms: _31  and  _33
REMARK   15  A    between atoms: _33  and  _34
REMARK   16  A    between atoms: _33  and  _35
REMARK   17  A    between atoms: _35  and  _36
REMARK   18  A    between atoms: _35  and  _37
REMARK   19  A    between atoms: _38  and  _40
REMARK                            x       y       z     vdW  Elec       q    Type
REMARK                         _______ _______ _______ _____ _____    ______ ____
ROOT
ATOM      1  C   UNL     1       6.242   2.856  33.282  0.00  0.00    +0.163 C 
ENDROOT
BRANCH   1   2
ATOM      2  O   UNL     1       6.156   2.500  31.893  0.00  0.00    -0.388 OA
ATOM      3  H   UNL     1       6.987   2.112  31.609  0.00  0.00    +0.210 HD
ENDBRANCH   1   2
BRANCH   1   4
ATOM      4  C   UNL     1       7.560   3.592  33.580  0.00  0.00    +0.175 C 
BRANCH   4   5
ATOM      5  C   UNL     1       7.579   4.193  34.993  0.00  0.00    +0.176 C 
ATOM      6  O   UNL     1       7.626   5.641  34.863  0.00  0.00    -0.332 OA
ATOM      7  C   UNL     1       7.544   6.394  36.118  0.00  0.00    +0.277 C 
ATOM      8  C   UNL     1       8.640   5.921  37.105  0.00  0.00    +0.110 C 
ATOM      9  C   UNL     1       8.649   4.385  37.252  0.00  0.00    +0.143 C 
ATOM     10  C   UNL     1       8.734   3.703  35.886  0.00  0.00    +0.133 C 
BRANCH  10  11
ATOM     11  N   UNL     1       8.655   2.242  36.034  0.00  0.00    -0.308 N 
ATOM     12  H   UNL     1       7.799   1.850  36.401  0.00  0.00    +0.149 HD
ATOM     13  C   UNL     1       9.641   1.398  35.715  0.00  0.00    +0.210 C 
ATOM     14  C   UNL     1      10.942   2.028  35.182  0.00  0.00    +0.109 C 
ATOM     15  O   UNL     1       9.541   0.177  35.835  0.00  0.00    -0.276 OA
ENDBRANCH  10  11
BRANCH   7  16
ATOM     16  C   UNL     1       6.156   6.222  36.768  0.00  0.00    +0.414 C 
ATOM     17  O   UNL     1       6.049   6.148  37.992  0.00  0.00    -0.240 OA
ATOM     18  O   UNL     1       5.143   6.158  36.070  0.00  0.00    -0.240 OA
ENDBRANCH   7  16
BRANCH   7  19
ATOM     19  O   UNL     1       7.773   7.794  35.817  0.00  0.00    -0.343 OA
ATOM     20  C   UNL     1       7.469   8.186  34.455  0.00  0.00    +0.198 C 
ENDBRANCH   7  19
BRANCH   9  21
ATOM     21  O   UNL     1       9.765   3.984  38.049  0.00  0.00    -0.390 OA
ATOM     22  H   UNL     1      10.358   3.444  37.521  0.00  0.00    +0.210 HD
ENDBRANCH   9  21
ENDBRANCH   4   5
BRANCH   4  23
ATOM     23  O   UNL     1       7.786   4.623  32.599  0.00  0.00    -0.387 OA
ATOM     24  H   UNL     1       8.300   5.333  32.992  0.00  0.00    +0.210 HD
ENDBRANCH   4  23
ENDBRANCH   1   4
BRANCH   1  25
ATOM     25  C   UNL     1       5.064   3.745  33.667  0.00  0.00    +0.141 C 
BRANCH  25  28
ATOM     26  C   UNL     1       2.858   3.981  32.580  0.00  0.00    +0.401 C 
ATOM     27  O   UNL     1       2.221   3.697  33.598  0.00  0.00    -0.226 OA
ATOM     28  N   UNL     1       4.189   4.021  32.521  0.00  0.00    -0.279 N 
ATOM     29  H   UNL     1       4.621   4.255  31.638  0.00  0.00    +0.152 HD
BRANCH  26  30
ATOM     30  O   UNL     1       2.146   4.285  31.378  0.00  0.00    -0.444 OA
BRANCH  30  31
ATOM     31  C   UNL     1       1.635   3.077  30.808  0.00  0.00    +0.292 C 
BRANCH  31  33
ATOM     32  N   UNL     1       2.253   3.755  28.504  0.00  0.00    -0.131 NA
ATOM     33  C   UNL     1       1.314   3.278  29.381  0.00  0.00    +0.120 A 
ATOM     34  C   UNL     1       0.139   3.056  28.703  0.00  0.00    +0.137 A 
ATOM     35  N   UNL     1       0.431   3.388  27.413  0.00  0.00    -0.242 N 
ATOM     36  N   UNL     1       1.698   3.829  27.302  0.00  0.00    -0.065 NA
BRANCH  35  37
ATOM     37  C   UNL     1      -0.451   3.430  26.271  0.00  0.00    +0.240 C 
BRANCH  37  38
ATOM     38  C   UNL     1      -0.062   4.510  25.287  0.00  0.00    +0.235 C 
ATOM     39  O   UNL     1      -0.602   5.614  25.282  0.00  0.00    -0.274 OA
ATOM     40  N   UNL     1       0.978   4.185  24.439  0.00  0.00    -0.309 N 
ATOM     41  H   UNL     1       1.284   3.227  24.355  0.00  0.00    +0.149 HD
BRANCH  40  42
ATOM     42  C   UNL     1       1.470   5.125  23.454  0.00  0.00    +0.146 C 
BRANCH  42  43
ATOM     43  C   UNL     1       0.947   4.757  22.103  0.00  0.00    +0.007 A 
ATOM     44  S   UNL     1       1.692   3.518  21.183  0.00  0.00    -0.100 S 
ATOM     45  C   UNL     1       0.624   3.760  19.871  0.00  0.00    +0.045 A 
ATOM     46  C   UNL     1      -0.296   4.752  20.127  0.00  0.00    +0.008 A 
ATOM     47  C   UNL     1      -0.114   5.322  21.420  0.00  0.00    +0.013 A 
ENDBRANCH  42  43
ENDBRANCH  40  42
ENDBRANCH  37  38
ENDBRANCH  35  37
ENDBRANCH  31  33
ENDBRANCH  30  31
ENDBRANCH  26  30
ENDBRANCH  25  28
ENDBRANCH   1  25
TORSDOF 17
