REMARK VINA RESULT:    -5.781      4.704     10.238
REMARK INTER + INTRA:         -13.806
REMARK INTER:                 -11.351
REMARK INTRA:                  -2.455
REMARK UNBOUND:                -2.450
REMARK  Name = lig_assembled_10.pdb
REMARK  21 active torsions:
REMARK  status: ('A' for Active; 'I' for Inactive)
REMARK    1  A    between atoms: _2  and  _9
REMARK    2  A    between atoms: _4  and  _20
REMARK    3  A    between atoms: _5  and  _9
REMARK    4  A    between atoms: _5  and  _12
REMARK    5  A    between atoms: _6  and  _7
REMARK    6  A    between atoms: _6  and  _20
REMARK    7  A    between atoms: _9  and  _10
REMARK    8  A    between atoms: _10  and  _11
REMARK    9  A    between atoms: _11  and  _14
REMARK   10  A    between atoms: _16  and  _36
REMARK   11  A    between atoms: _18  and  _24
REMARK   12  A    between atoms: _19  and  _23
REMARK   13  A    between atoms: _23  and  _24
REMARK   14  A    between atoms: _26  and  _27
REMARK   15  A    between atoms: _28  and  _29
REMARK   16  A    between atoms: _30  and  _32
REMARK   17  A    between atoms: _32  and  _33
REMARK   18  A    between atoms: _32  and  _34
REMARK   19  A    between atoms: _34  and  _35
REMARK   20  A    between atoms: _34  and  _36
REMARK   21  A    between atoms: _37  and  _39
REMARK                            x       y       z     vdW  Elec       q    Type
REMARK                         _______ _______ _______ _____ _____    ______ ____
ROOT
ATOM      1  C   UNL     1      19.052   6.677  25.482  0.00  0.00    +0.163 C 
ENDROOT
BRANCH   1   2
ATOM      2  O   UNL     1      17.981   7.023  24.589  0.00  0.00    -0.388 OA
ATOM      3  H   UNL     1      18.344   7.381  23.776  0.00  0.00    +0.210 HD
ENDBRANCH   1   2
BRANCH   1   4
ATOM      4  C   UNL     1      20.016   5.676  24.823  0.00  0.00    +0.175 C 
BRANCH   4   5
ATOM      5  C   UNL     1      19.514   4.229  24.940  0.00  0.00    +0.176 C 
ATOM      6  O   UNL     1      18.428   4.054  23.988  0.00  0.00    -0.332 OA
ATOM      7  C   UNL     1      17.891   2.694  23.883  0.00  0.00    +0.277 C 
ATOM      8  C   UNL     1      17.456   2.175  25.275  0.00  0.00    +0.110 C 
ATOM      9  C   UNL     1      18.567   2.369  26.328  0.00  0.00    +0.143 C 
ATOM     10  C   UNL     1      19.055   3.818  26.351  0.00  0.00    +0.133 C 
BRANCH  10  11
ATOM     11  N   UNL     1      20.172   3.971  27.296  0.00  0.00    -0.308 N 
ATOM     12  H   UNL     1      21.048   3.523  27.066  0.00  0.00    +0.149 HD
ATOM     13  C   UNL     1      20.104   4.663  28.436  0.00  0.00    +0.210 C 
ATOM     14  C   UNL     1      18.748   5.311  28.770  0.00  0.00    +0.109 C 
ATOM     15  O   UNL     1      21.061   4.786  29.201  0.00  0.00    -0.276 OA
ENDBRANCH  10  11
BRANCH   7  16
ATOM     16  C   UNL     1      18.940   1.736  23.280  0.00  0.00    +0.414 C 
ATOM     17  O   UNL     1      19.759   2.150  22.460  0.00  0.00    -0.240 OA
ATOM     18  O   UNL     1      18.967   0.551  23.614  0.00  0.00    -0.240 OA
ENDBRANCH   7  16
BRANCH   7  19
ATOM     19  O   UNL     1      16.721   2.739  23.026  0.00  0.00    -0.343 OA
ATOM     20  C   UNL     1      16.751   3.767  22.003  0.00  0.00    +0.198 C 
ENDBRANCH   7  19
BRANCH   9  21
ATOM     21  O   UNL     1      18.072   2.019  27.621  0.00  0.00    -0.390 OA
ATOM     22  H   UNL     1      17.272   2.517  27.804  0.00  0.00    +0.210 HD
ENDBRANCH   9  21
ENDBRANCH   4   5
BRANCH   4  23
ATOM     23  O   UNL     1      21.330   5.794  25.404  0.00  0.00    -0.387 OA
ATOM     24  H   UNL     1      21.314   5.456  26.303  0.00  0.00    +0.210 HD
ENDBRANCH   4  23
ENDBRANCH   1   4
BRANCH   1  25
ATOM     25  C   UNL     1      19.820   7.932  25.887  0.00  0.00    +0.141 C 
BRANCH  25  28
ATOM     26  C   UNL     1      19.272  10.045  27.045  0.00  0.00    +0.401 C 
ATOM     27  O   UNL     1      20.105  10.710  26.426  0.00  0.00    -0.226 OA
ATOM     28  N   UNL     1      19.075   8.738  26.861  0.00  0.00    -0.279 N 
ATOM     29  H   UNL     1      18.374   8.278  27.425  0.00  0.00    +0.152 HD
BRANCH  26  30
ATOM     30  O   UNL     1      18.458  10.691  28.027  0.00  0.00    -0.444 OA
BRANCH  30  31
ATOM     31  C   UNL     1      19.110  10.635  29.299  0.00  0.00    +0.292 C 
BRANCH  31  33
ATOM     32  N   UNL     1      18.271   8.515  30.266  0.00  0.00    -0.131 NA
ATOM     33  C   UNL     1      18.285   9.883  30.263  0.00  0.00    +0.120 A 
ATOM     34  C   UNL     1      17.453  10.344  31.258  0.00  0.00    +0.138 A 
ATOM     35  N   UNL     1      16.995   9.213  31.861  0.00  0.00    -0.237 N 
ATOM     36  N   UNL     1      17.472   8.114  31.243  0.00  0.00    -0.065 NA
BRANCH  35  37
ATOM     37  C   UNL     1      16.120   9.032  33.008  0.00  0.00    +0.227 C 
BRANCH  37  38
ATOM     38  C   UNL     1      15.785  10.307  33.752  0.00  0.00    +0.330 C 
ATOM     39  O   UNL     1      16.527  10.763  34.615  0.00  0.00    -0.249 OA
BRANCH  38  40
ATOM     40  O   UNL     1      14.654  10.954  33.400  0.00  0.00    -0.479 OA
ATOM     41  H   UNL     1      13.802  10.575  33.737  0.00  0.00    +0.295 HD
ENDBRANCH  38  40
ENDBRANCH  37  38
BRANCH  37  42
ATOM     42  C   UNL     1      16.545   7.900  33.953  0.00  0.00    +0.158 C 
BRANCH  42  43
ATOM     43  C   UNL     1      15.571   6.755  33.939  0.00  0.00    +0.307 C 
ATOM     44  O   UNL     1      14.962   6.369  34.929  0.00  0.00    -0.251 OA
BRANCH  43  45
ATOM     45  O   UNL     1      15.365   6.237  32.714  0.00  0.00    -0.481 OA
ATOM     46  H   UNL     1      14.433   6.038  32.497  0.00  0.00    +0.295 HD
ENDBRANCH  43  45
ENDBRANCH  42  43
ENDBRANCH  37  42
ENDBRANCH  35  37
ENDBRANCH  31  33
ENDBRANCH  30  31
ENDBRANCH  26  30
ENDBRANCH  25  28
ENDBRANCH   1  25
TORSDOF 19
