REMARK VINA RESULT:    -6.623      2.942      3.618
REMARK INTER + INTRA:         -15.294
REMARK INTER:                 -13.099
REMARK INTRA:                  -2.195
REMARK UNBOUND:                -2.090
REMARK  Name = lig_assembled_76.pdb
REMARK  21 active torsions:
REMARK  status: ('A' for Active; 'I' for Inactive)
REMARK    1  A    between atoms: _2  and  _9
REMARK    2  A    between atoms: _4  and  _23
REMARK    3  A    between atoms: _6  and  _7
REMARK    4  A    between atoms: _6  and  _23
REMARK    5  A    between atoms: _9  and  _10
REMARK    6  A    between atoms: _10  and  _11
REMARK    7  A    between atoms: _10  and  _18
REMARK    8  A    between atoms: _11  and  _12
REMARK    9  A    between atoms: _12  and  _13
REMARK   10  A    between atoms: _19  and  _39
REMARK   11  A    between atoms: _21  and  _27
REMARK   12  A    between atoms: _22  and  _26
REMARK   13  A    between atoms: _26  and  _27
REMARK   14  A    between atoms: _29  and  _30
REMARK   15  A    between atoms: _31  and  _32
REMARK   16  A    between atoms: _33  and  _35
REMARK   17  A    between atoms: _35  and  _36
REMARK   18  A    between atoms: _35  and  _37
REMARK   19  A    between atoms: _37  and  _38
REMARK   20  A    between atoms: _37  and  _39
REMARK   21  A    between atoms: _40  and  _42
REMARK                            x       y       z     vdW  Elec       q    Type
REMARK                         _______ _______ _______ _____ _____    ______ ____
ROOT
ATOM      1  C   UNL     1       5.888   1.655  33.659  0.00  0.00    +0.141 C 
ENDROOT
BRANCH   1   4
ATOM      2  C   UNL     1       6.731   0.056  31.975  0.00  0.00    +0.401 C 
ATOM      3  O   UNL     1       7.892   0.085  32.390  0.00  0.00    -0.226 OA
ATOM      4  N   UNL     1       5.732   0.763  32.504  0.00  0.00    -0.279 N 
ATOM      5  H   UNL     1       4.815   0.680  32.087  0.00  0.00    +0.152 HD
BRANCH   2   6
ATOM      6  O   UNL     1       6.415  -0.776  30.855  0.00  0.00    -0.444 OA
BRANCH   6   7
ATOM      7  C   UNL     1       4.995  -0.859  30.708  0.00  0.00    +0.292 C 
BRANCH   7   9
ATOM      8  N   UNL     1       5.579  -1.370  28.353  0.00  0.00    -0.131 NA
ATOM      9  C   UNL     1       4.634  -1.044  29.292  0.00  0.00    +0.120 A 
ATOM     10  C   UNL     1       3.408  -0.928  28.677  0.00  0.00    +0.137 A 
ATOM     11  N   UNL     1       3.673  -1.199  27.371  0.00  0.00    -0.249 N 
ATOM     12  N   UNL     1       4.976  -1.454  27.174  0.00  0.00    -0.065 NA
BRANCH  11  13
ATOM     13  C   UNL     1       2.769  -1.102  26.247  0.00  0.00    +0.176 C 
BRANCH  13  14
ATOM     14  C   UNL     1       3.269  -0.146  25.159  0.00  0.00    +0.136 C 
BRANCH  14  15
ATOM     15  O   UNL     1       3.870  -0.888  24.088  0.00  0.00    -0.390 OA
ATOM     16  H   UNL     1       3.529  -0.556  23.239  0.00  0.00    +0.210 HD
ENDBRANCH  14  15
BRANCH  14  17
ATOM     17  C   UNL     1       2.137   0.699  24.554  0.00  0.00    +0.038 C 
BRANCH  17  18
ATOM     18  C   UNL     1       2.418   2.201  24.579  0.00  0.00    +0.038 C 
BRANCH  18  19
ATOM     19  C   UNL     1       2.091   2.862  23.265  0.00  0.00    -0.047 A 
ATOM     20  C   UNL     1       1.794   4.231  23.217  0.00  0.00    +0.003 A 
ATOM     21  C   UNL     1       1.508   4.851  22.000  0.00  0.00    +0.000 A 
ATOM     22  C   UNL     1       1.512   4.107  20.822  0.00  0.00    +0.000 A 
ATOM     23  C   UNL     1       1.796   2.742  20.862  0.00  0.00    +0.000 A 
ATOM     24  C   UNL     1       2.080   2.121  22.078  0.00  0.00    +0.003 A 
ENDBRANCH  18  19
ENDBRANCH  17  18
ENDBRANCH  14  17
ENDBRANCH  13  14
ENDBRANCH  11  13
ENDBRANCH   7   9
ENDBRANCH   6   7
ENDBRANCH   2   6
ENDBRANCH   1   4
BRANCH   1  25
ATOM     25  C   UNL     1       6.019   3.115  33.237  0.00  0.00    +0.163 C 
BRANCH  25  26
ATOM     26  O   UNL     1       5.025   3.910  33.903  0.00  0.00    -0.388 OA
ATOM     27  H   UNL     1       4.550   4.438  33.257  0.00  0.00    +0.210 HD
ENDBRANCH  25  26
BRANCH  25  28
ATOM     28  C   UNL     1       7.435   3.619  33.561  0.00  0.00    +0.175 C 
BRANCH  28  29
ATOM     29  C   UNL     1       7.525   4.223  34.970  0.00  0.00    +0.176 C 
ATOM     30  O   UNL     1       7.497   5.671  34.838  0.00  0.00    -0.332 OA
ATOM     31  C   UNL     1       7.468   6.422  36.097  0.00  0.00    +0.277 C 
ATOM     32  C   UNL     1       8.650   6.002  37.006  0.00  0.00    +0.110 C 
ATOM     33  C   UNL     1       8.739   4.468  37.150  0.00  0.00    +0.143 C 
ATOM     34  C   UNL     1       8.760   3.788  35.781  0.00  0.00    +0.133 C 
BRANCH  34  35
ATOM     35  N   UNL     1       8.758   2.325  35.932  0.00  0.00    -0.308 N 
ATOM     36  H   UNL     1       7.933   1.892  36.324  0.00  0.00    +0.149 HD
ATOM     37  C   UNL     1       9.774   1.530  35.585  0.00  0.00    +0.210 C 
ATOM     38  C   UNL     1      11.027   2.222  35.015  0.00  0.00    +0.109 C 
ATOM     39  O   UNL     1       9.739   0.306  35.710  0.00  0.00    -0.276 OA
ENDBRANCH  34  35
BRANCH  31  40
ATOM     40  C   UNL     1       6.137   6.189  36.842  0.00  0.00    +0.414 C 
ATOM     41  O   UNL     1       6.109   6.174  38.072  0.00  0.00    -0.240 OA
ATOM     42  O   UNL     1       5.092   6.017  36.213  0.00  0.00    -0.240 OA
ENDBRANCH  31  40
BRANCH  33  43
ATOM     43  O   UNL     1       9.925   4.120  37.866  0.00  0.00    -0.390 OA
ATOM     44  H   UNL     1      10.598   3.825  37.249  0.00  0.00    +0.210 HD
ENDBRANCH  33  43
BRANCH  31  45
ATOM     45  O   UNL     1       7.612   7.831  35.783  0.00  0.00    -0.343 OA
ATOM     46  C   UNL     1       7.579   8.150  34.369  0.00  0.00    +0.198 C 
ENDBRANCH  31  45
ENDBRANCH  28  29
BRANCH  28  47
ATOM     47  O   UNL     1       7.856   4.586  32.578  0.00  0.00    -0.387 OA
ATOM     48  H   UNL     1       7.995   5.436  33.004  0.00  0.00    +0.210 HD
ENDBRANCH  28  47
ENDBRANCH  25  28
ENDBRANCH   1  25
TORSDOF 19
