REMARK VINA RESULT:    -5.786     13.848     15.752
REMARK INTER + INTRA:         -13.742
REMARK INTER:                 -10.996
REMARK INTRA:                  -2.746
REMARK UNBOUND:                -2.036
REMARK  Name = lig_assembled_45.pdb
REMARK  24 active torsions:
REMARK  status: ('A' for Active; 'I' for Inactive)
REMARK    1  A    between atoms: _2  and  _10
REMARK    2  A    between atoms: _3  and  _12
REMARK    3  A    between atoms: _3  and  _13
REMARK    4  A    between atoms: _3  and  _14
REMARK    5  A    between atoms: _3  and  _16
REMARK    6  A    between atoms: _5  and  _21
REMARK    7  A    between atoms: _6  and  _16
REMARK    8  A    between atoms: _7  and  _8
REMARK    9  A    between atoms: _7  and  _21
REMARK   10  A    between atoms: _10  and  _11
REMARK   11  A    between atoms: _11  and  _12
REMARK   12  A    between atoms: _14  and  _15
REMARK   13  A    between atoms: _17  and  _37
REMARK   14  A    between atoms: _19  and  _25
REMARK   15  A    between atoms: _20  and  _24
REMARK   16  A    between atoms: _24  and  _25
REMARK   17  A    between atoms: _27  and  _28
REMARK   18  A    between atoms: _29  and  _30
REMARK   19  A    between atoms: _31  and  _33
REMARK   20  A    between atoms: _33  and  _34
REMARK   21  A    between atoms: _33  and  _35
REMARK   22  A    between atoms: _35  and  _36
REMARK   23  A    between atoms: _35  and  _37
REMARK   24  A    between atoms: _38  and  _40
REMARK                            x       y       z     vdW  Elec       q    Type
REMARK                         _______ _______ _______ _____ _____    ______ ____
ROOT
ATOM      1  C   UNL     1      18.525  10.430  29.945  0.00  0.00    +0.163 C 
ENDROOT
BRANCH   1   2
ATOM      2  O   UNL     1      17.165  10.736  30.292  0.00  0.00    -0.388 OA
ATOM      3  H   UNL     1      16.640   9.932  30.271  0.00  0.00    +0.210 HD
ENDBRANCH   1   2
BRANCH   1   4
ATOM      4  C   UNL     1      18.801   8.922  30.080  0.00  0.00    +0.175 C 
BRANCH   4   5
ATOM      5  C   UNL     1      18.003   8.289  31.229  0.00  0.00    +0.176 C 
ATOM      6  O   UNL     1      18.060   9.194  32.365  0.00  0.00    -0.332 OA
ATOM      7  C   UNL     1      17.260   8.801  33.529  0.00  0.00    +0.277 C 
ATOM      8  C   UNL     1      17.631   7.368  33.982  0.00  0.00    +0.110 C 
ATOM      9  C   UNL     1      17.615   6.375  32.801  0.00  0.00    +0.143 C 
ATOM     10  C   UNL     1      18.476   6.884  31.645  0.00  0.00    +0.133 C 
BRANCH  10  11
ATOM     11  N   UNL     1      18.383   5.973  30.493  0.00  0.00    -0.308 N 
ATOM     12  H   UNL     1      17.500   5.916  30.006  0.00  0.00    +0.149 HD
ATOM     13  C   UNL     1      19.390   5.216  30.049  0.00  0.00    +0.210 C 
ATOM     14  C   UNL     1      20.716   5.305  30.828  0.00  0.00    +0.109 C 
ATOM     15  O   UNL     1      19.288   4.472  29.072  0.00  0.00    -0.276 OA
ENDBRANCH  10  11
BRANCH   7  16
ATOM     16  C   UNL     1      15.753   8.865  33.204  0.00  0.00    +0.414 C 
ATOM     17  O   UNL     1      15.306   9.781  32.514  0.00  0.00    -0.240 OA
ATOM     18  O   UNL     1      14.985   8.002  33.631  0.00  0.00    -0.240 OA
ENDBRANCH   7  16
BRANCH   9  19
ATOM     19  O   UNL     1      18.107   5.105  33.232  0.00  0.00    -0.390 OA
ATOM     20  H   UNL     1      17.882   4.437  32.580  0.00  0.00    +0.210 HD
ENDBRANCH   9  19
BRANCH   7  21
ATOM     21  O   UNL     1      17.565   9.717  34.613  0.00  0.00    -0.343 OA
ATOM     22  C   UNL     1      18.162  10.973  34.204  0.00  0.00    +0.198 C 
ENDBRANCH   7  21
ENDBRANCH   4   5
BRANCH   4  23
ATOM     23  O   UNL     1      20.212   8.690  30.269  0.00  0.00    -0.387 OA
ATOM     24  H   UNL     1      20.344   8.132  31.039  0.00  0.00    +0.210 HD
ENDBRANCH   4  23
ENDBRANCH   1   4
BRANCH   1  25
ATOM     25  C   UNL     1      18.812  10.874  28.515  0.00  0.00    +0.141 C 
BRANCH  25  28
ATOM     26  C   UNL     1      19.906   9.643  26.673  0.00  0.00    +0.401 C 
ATOM     27  O   UNL     1      20.754  10.515  26.469  0.00  0.00    -0.226 OA
ATOM     28  N   UNL     1      18.957   9.731  27.605  0.00  0.00    -0.279 N 
ATOM     29  H   UNL     1      18.300   8.968  27.690  0.00  0.00    +0.152 HD
BRANCH  26  30
ATOM     30  O   UNL     1      19.920   8.460  25.871  0.00  0.00    -0.444 OA
BRANCH  30  31
ATOM     31  C   UNL     1      18.704   7.734  26.070  0.00  0.00    +0.292 C 
BRANCH  31  33
ATOM     32  N   UNL     1      17.994   6.883  23.851  0.00  0.00    -0.131 NA
ATOM     33  C   UNL     1      18.581   6.659  25.067  0.00  0.00    +0.120 A 
ATOM     34  C   UNL     1      18.982   5.344  25.137  0.00  0.00    +0.137 A 
ATOM     35  N   UNL     1      18.610   4.836  23.931  0.00  0.00    -0.251 N 
ATOM     36  N   UNL     1      18.014   5.749  23.162  0.00  0.00    -0.065 NA
BRANCH  35  37
ATOM     37  C   UNL     1      18.774   3.474  23.464  0.00  0.00    +0.150 C 
BRANCH  37  38
ATOM     38  C   UNL     1      17.449   2.753  23.260  0.00  0.00    +0.074 C 
BRANCH  38  39
ATOM     39  C   UNL     1      16.935   1.905  24.432  0.00  0.00    +0.134 C 
BRANCH  39  40
ATOM     40  N   UNL     1      17.413   0.418  24.525  0.00  0.00    +0.241 N 
ATOM     41  C   UNL     1      17.748  -0.084  23.110  0.00  0.00    +0.192 C 
BRANCH  40  42
ATOM     42  C   UNL     1      16.190  -0.397  25.062  0.00  0.00    +0.129 C 
ATOM     43  C   UNL     1      15.941  -1.704  24.319  0.00  0.00    +0.060 C 
ENDBRANCH  40  42
BRANCH  40  44
ATOM     44  C   UNL     1      18.632   0.187  25.438  0.00  0.00    +0.129 C 
ATOM     45  C   UNL     1      19.965   0.190  24.709  0.00  0.00    +0.060 C 
ENDBRANCH  40  44
ENDBRANCH  39  40
ENDBRANCH  38  39
ENDBRANCH  37  38
ENDBRANCH  35  37
ENDBRANCH  31  33
ENDBRANCH  30  31
ENDBRANCH  26  30
ENDBRANCH  25  28
ENDBRANCH   1  25
TORSDOF 19
