REMARK VINA RESULT:    -6.112     17.112     19.617
REMARK INTER + INTRA:         -13.094
REMARK INTER:                 -11.094
REMARK INTRA:                  -2.000
REMARK UNBOUND:                -1.802
REMARK  Name = lig_assembled_36.pdb
REMARK  18 active torsions:
REMARK  status: ('A' for Active; 'I' for Inactive)
REMARK    1  A    between atoms: _2  and  _10
REMARK    2  A    between atoms: _5  and  _21
REMARK    3  A    between atoms: _7  and  _8
REMARK    4  A    between atoms: _7  and  _21
REMARK    5  A    between atoms: _10  and  _11
REMARK    6  A    between atoms: _14  and  _15
REMARK    7  A    between atoms: _17  and  _37
REMARK    8  A    between atoms: _19  and  _25
REMARK    9  A    between atoms: _20  and  _24
REMARK   10  A    between atoms: _24  and  _25
REMARK   11  A    between atoms: _27  and  _28
REMARK   12  A    between atoms: _29  and  _30
REMARK   13  A    between atoms: _31  and  _33
REMARK   14  A    between atoms: _33  and  _34
REMARK   15  A    between atoms: _33  and  _35
REMARK   16  A    between atoms: _35  and  _36
REMARK   17  A    between atoms: _35  and  _37
REMARK   18  A    between atoms: _38  and  _40
REMARK                            x       y       z     vdW  Elec       q    Type
REMARK                         _______ _______ _______ _____ _____    ______ ____
ROOT
ATOM      1  C   UNL     1      -3.136   2.576  23.662  0.00  0.00    +0.163 C 
ENDROOT
BRANCH   1   2
ATOM      2  O   UNL     1      -4.529   2.722  23.341  0.00  0.00    -0.388 OA
ATOM      3  H   UNL     1      -4.624   2.912  22.404  0.00  0.00    +0.210 HD
ENDBRANCH   1   2
BRANCH   1   4
ATOM      4  C   UNL     1      -2.339   2.082  22.443  0.00  0.00    +0.175 C 
BRANCH   4   5
ATOM      5  C   UNL     1      -0.901   2.619  22.436  0.00  0.00    +0.176 C 
ATOM      6  O   UNL     1      -0.665   3.250  21.148  0.00  0.00    -0.332 OA
ATOM      7  C   UNL     1       0.631   3.918  20.996  0.00  0.00    +0.277 C 
ATOM      8  C   UNL     1       1.786   2.937  21.318  0.00  0.00    +0.110 C 
ATOM      9  C   UNL     1       1.564   2.218  22.665  0.00  0.00    +0.143 C 
ATOM     10  C   UNL     1       0.184   1.561  22.715  0.00  0.00    +0.133 C 
BRANCH  10  11
ATOM     11  N   UNL     1      -0.050   0.954  24.034  0.00  0.00    -0.308 N 
ATOM     12  H   UNL     1      -0.124   1.570  24.831  0.00  0.00    +0.149 HD
ATOM     13  C   UNL     1      -0.172  -0.359  24.248  0.00  0.00    +0.210 C 
ATOM     14  C   UNL     1      -0.028  -1.274  23.017  0.00  0.00    +0.109 C 
ATOM     15  O   UNL     1      -0.382  -0.839  25.362  0.00  0.00    -0.276 OA
ENDBRANCH  10  11
BRANCH   7  16
ATOM     16  C   UNL     1       0.725   5.147  21.925  0.00  0.00    +0.414 C 
ATOM     17  O   UNL     1      -0.243   5.892  22.067  0.00  0.00    -0.240 OA
ATOM     18  O   UNL     1       1.769   5.393  22.531  0.00  0.00    -0.240 OA
ENDBRANCH   7  16
BRANCH   7  19
ATOM     19  O   UNL     1       0.761   4.339  19.614  0.00  0.00    -0.343 OA
ATOM     20  C   UNL     1       1.782   3.645  18.855  0.00  0.00    +0.198 C 
ENDBRANCH   7  19
BRANCH   9  21
ATOM     21  O   UNL     1       2.567   1.219  22.848  0.00  0.00    -0.390 OA
ATOM     22  H   UNL     1       2.817   1.182  23.775  0.00  0.00    +0.210 HD
ENDBRANCH   9  21
ENDBRANCH   4   5
BRANCH   4  23
ATOM     23  O   UNL     1      -3.014   2.454  21.224  0.00  0.00    -0.387 OA
ATOM     24  H   UNL     1      -3.911   2.112  21.238  0.00  0.00    +0.210 HD
ENDBRANCH   4  23
ENDBRANCH   1   4
BRANCH   1  25
ATOM     25  C   UNL     1      -2.568   3.909  24.136  0.00  0.00    +0.141 C 
BRANCH  25  28
ATOM     26  C   UNL     1      -0.892   4.728  25.757  0.00  0.00    +0.401 C 
ATOM     27  O   UNL     1      -0.913   5.887  25.336  0.00  0.00    -0.226 OA
ATOM     28  N   UNL     1      -1.629   3.738  25.252  0.00  0.00    -0.279 N 
ATOM     29  H   UNL     1      -1.535   2.818  25.659  0.00  0.00    +0.152 HD
BRANCH  26  30
ATOM     30  O   UNL     1      -0.031   4.402  26.851  0.00  0.00    -0.444 OA
BRANCH  30  31
ATOM     31  C   UNL     1       1.189   3.850  26.350  0.00  0.00    +0.292 C 
BRANCH  31  33
ATOM     32  N   UNL     1       1.904   2.942  28.542  0.00  0.00    -0.131 NA
ATOM     33  C   UNL     1       1.641   2.741  27.212  0.00  0.00    +0.120 A 
ATOM     34  C   UNL     1       1.845   1.414  26.907  0.00  0.00    +0.137 A 
ATOM     35  N   UNL     1       2.137   0.846  28.113  0.00  0.00    -0.247 N 
ATOM     36  N   UNL     1       2.227   1.775  29.081  0.00  0.00    -0.065 NA
BRANCH  35  37
ATOM     37  C   UNL     1       2.325  -0.559  28.414  0.00  0.00    +0.180 C 
BRANCH  37  38
ATOM     38  C   UNL     1       3.641  -1.066  27.870  0.00  0.00    -0.026 A 
ATOM     39  C   UNL     1       3.776  -1.411  26.517  0.00  0.00    +0.007 A 
ATOM     40  C   UNL     1       4.999  -1.874  26.021  0.00  0.00    +0.019 A 
ATOM     41  C   UNL     1       6.101  -2.003  26.872  0.00  0.00    +0.052 A 
ATOM     42  C   UNL     1       5.969  -1.684  28.226  0.00  0.00    +0.019 A 
ATOM     43  C   UNL     1       4.746  -1.223  28.722  0.00  0.00    +0.007 A 
BRANCH  41  44
ATOM     44  C   UNL     1       7.361  -2.459  26.356  0.00  0.00    +0.099 C 
ATOM     45  N   UNL     1       8.384  -2.818  25.945  0.00  0.00    -0.191 NA
ENDBRANCH  41  44
ENDBRANCH  37  38
ENDBRANCH  35  37
ENDBRANCH  31  33
ENDBRANCH  30  31
ENDBRANCH  26  30
ENDBRANCH  25  28
ENDBRANCH   1  25
TORSDOF 16
