REMARK VINA RESULT:    -5.997      4.956      7.120
REMARK INTER + INTRA:         -14.070
REMARK INTER:                 -12.127
REMARK INTRA:                  -1.943
REMARK UNBOUND:                -2.640
REMARK  Name = lig_assembled_29.pdb
REMARK  21 active torsions:
REMARK  status: ('A' for Active; 'I' for Inactive)
REMARK    1  A    between atoms: _2  and  _9
REMARK    2  A    between atoms: _4  and  _23
REMARK    3  A    between atoms: _6  and  _7
REMARK    4  A    between atoms: _6  and  _23
REMARK    5  A    between atoms: _9  and  _10
REMARK    6  A    between atoms: _12  and  _18
REMARK    7  A    between atoms: _13  and  _18
REMARK    8  A    between atoms: _14  and  _17
REMARK    9  A    between atoms: _15  and  _17
REMARK   10  A    between atoms: _19  and  _39
REMARK   11  A    between atoms: _21  and  _27
REMARK   12  A    between atoms: _22  and  _26
REMARK   13  A    between atoms: _26  and  _27
REMARK   14  A    between atoms: _29  and  _30
REMARK   15  A    between atoms: _31  and  _32
REMARK   16  A    between atoms: _33  and  _35
REMARK   17  A    between atoms: _35  and  _36
REMARK   18  A    between atoms: _35  and  _37
REMARK   19  A    between atoms: _37  and  _38
REMARK   20  A    between atoms: _37  and  _39
REMARK   21  A    between atoms: _40  and  _42
REMARK                            x       y       z     vdW  Elec       q    Type
REMARK                         _______ _______ _______ _____ _____    ______ ____
ROOT
ATOM      1  C   UNL     1       3.464   3.377  32.723  0.00  0.00    +0.163 C 
ENDROOT
BRANCH   1   2
ATOM      2  O   UNL     1       3.705   4.758  32.406  0.00  0.00    -0.388 OA
ATOM      3  H   UNL     1       3.875   5.248  33.214  0.00  0.00    +0.210 HD
ENDBRANCH   1   2
BRANCH   1   4
ATOM      4  C   UNL     1       3.207   3.196  34.229  0.00  0.00    +0.175 C 
BRANCH   4   5
ATOM      5  C   UNL     1       4.063   4.147  35.080  0.00  0.00    +0.176 C 
ATOM      6  O   UNL     1       5.409   4.147  34.532  0.00  0.00    -0.332 OA
ATOM      7  C   UNL     1       6.348   5.085  35.156  0.00  0.00    +0.277 C 
ATOM      8  C   UNL     1       6.406   4.854  36.686  0.00  0.00    +0.110 C 
ATOM      9  C   UNL     1       4.995   4.814  37.309  0.00  0.00    +0.143 C 
ATOM     10  C   UNL     1       4.102   3.809  36.582  0.00  0.00    +0.133 C 
BRANCH  10  11
ATOM     11  N   UNL     1       2.736   3.843  37.129  0.00  0.00    -0.308 N 
ATOM     12  H   UNL     1       2.185   4.674  36.970  0.00  0.00    +0.149 HD
ATOM     13  C   UNL     1       2.177   2.846  37.821  0.00  0.00    +0.210 C 
ATOM     14  C   UNL     1       3.052   1.602  38.067  0.00  0.00    +0.109 C 
ATOM     15  O   UNL     1       1.026   2.896  38.254  0.00  0.00    -0.276 OA
ENDBRANCH  10  11
BRANCH   7  16
ATOM     16  C   UNL     1       5.935   6.543  34.869  0.00  0.00    +0.414 C 
ATOM     17  O   UNL     1       5.078   6.790  34.021  0.00  0.00    -0.240 OA
ATOM     18  O   UNL     1       6.458   7.473  35.486  0.00  0.00    -0.240 OA
ENDBRANCH   7  16
BRANCH   7  19
ATOM     19  O   UNL     1       7.666   4.833  34.605  0.00  0.00    -0.343 OA
ATOM     20  C   UNL     1       7.689   3.975  33.436  0.00  0.00    +0.198 C 
ENDBRANCH   7  19
BRANCH   9  21
ATOM     21  O   UNL     1       5.087   4.450  38.687  0.00  0.00    -0.390 OA
ATOM     22  H   UNL     1       4.519   3.696  38.859  0.00  0.00    +0.210 HD
ENDBRANCH   9  21
ENDBRANCH   4   5
BRANCH   4  23
ATOM     23  O   UNL     1       3.451   1.829  34.614  0.00  0.00    -0.387 OA
ATOM     24  H   UNL     1       4.398   1.667  34.637  0.00  0.00    +0.210 HD
ENDBRANCH   4  23
ENDBRANCH   1   4
BRANCH   1  25
ATOM     25  C   UNL     1       2.262   2.864  31.936  0.00  0.00    +0.141 C 
BRANCH  25  28
ATOM     26  C   UNL     1       2.134   2.912  29.469  0.00  0.00    +0.401 C 
ATOM     27  O   UNL     1       2.274   1.693  29.344  0.00  0.00    -0.226 OA
ATOM     28  N   UNL     1       2.123   3.545  30.643  0.00  0.00    -0.279 N 
ATOM     29  H   UNL     1       2.013   4.549  30.643  0.00  0.00    +0.152 HD
BRANCH  26  30
ATOM     30  O   UNL     1       1.978   3.717  28.298  0.00  0.00    -0.444 OA
BRANCH  30  31
ATOM     31  C   UNL     1       0.997   3.127  27.440  0.00  0.00    +0.292 C 
BRANCH  31  33
ATOM     32  N   UNL     1      -0.188   4.843  26.099  0.00  0.00    -0.131 NA
ATOM     33  C   UNL     1       0.830   3.934  26.217  0.00  0.00    +0.120 A 
ATOM     34  C   UNL     1       1.594   3.963  25.073  0.00  0.00    +0.137 A 
ATOM     35  N   UNL     1       1.045   4.975  24.339  0.00  0.00    -0.247 N 
ATOM     36  N   UNL     1      -0.053   5.470  24.936  0.00  0.00    -0.065 NA
BRANCH  35  37
ATOM     37  C   UNL     1       1.536   5.549  23.100  0.00  0.00    +0.180 C 
BRANCH  37  38
ATOM     38  C   UNL     1       1.073   4.738  21.911  0.00  0.00    -0.022 A 
ATOM     39  C   UNL     1      -0.292   4.683  21.581  0.00  0.00    +0.054 A 
ATOM     40  C   UNL     1      -0.726   4.000  20.435  0.00  0.00    +0.162 A 
ATOM     41  C   UNL     1       0.218   3.353  19.612  0.00  0.00    +0.162 A 
ATOM     42  C   UNL     1       1.574   3.409  19.943  0.00  0.00    +0.050 A 
ATOM     43  C   UNL     1       1.998   4.094  21.084  0.00  0.00    +0.009 A 
BRANCH  40  44
ATOM     44  O   UNL     1      -2.036   3.917  20.033  0.00  0.00    -0.491 OA
ATOM     45  C   UNL     1      -3.043   4.223  20.988  0.00  0.00    +0.277 C 
ENDBRANCH  40  44
BRANCH  41  46
ATOM     46  O   UNL     1      -0.285   2.700  18.513  0.00  0.00    -0.491 OA
ATOM     47  C   UNL     1       0.553   2.584  17.373  0.00  0.00    +0.277 C 
ENDBRANCH  41  46
ENDBRANCH  37  38
ENDBRANCH  35  37
ENDBRANCH  31  33
ENDBRANCH  30  31
ENDBRANCH  26  30
ENDBRANCH  25  28
ENDBRANCH   1  25
TORSDOF 17
