REMARK VINA RESULT:    -5.811      9.548     13.841
REMARK INTER + INTRA:         -12.816
REMARK INTER:                 -10.583
REMARK INTRA:                  -2.233
REMARK UNBOUND:                -2.078
REMARK  Name = lig_assembled_14.pdb
REMARK  18 active torsions:
REMARK  status: ('A' for Active; 'I' for Inactive)
REMARK    1  A    between atoms: _2  and  _10
REMARK    2  A    between atoms: _3  and  _11
REMARK    3  A    between atoms: _5  and  _19
REMARK    4  A    between atoms: _7  and  _8
REMARK    5  A    between atoms: _7  and  _19
REMARK    6  A    between atoms: _10  and  _11
REMARK    7  A    between atoms: _15  and  _35
REMARK    8  A    between atoms: _17  and  _23
REMARK    9  A    between atoms: _18  and  _22
REMARK   10  A    between atoms: _22  and  _23
REMARK   11  A    between atoms: _25  and  _26
REMARK   12  A    between atoms: _27  and  _28
REMARK   13  A    between atoms: _29  and  _31
REMARK   14  A    between atoms: _31  and  _32
REMARK   15  A    between atoms: _31  and  _33
REMARK   16  A    between atoms: _33  and  _34
REMARK   17  A    between atoms: _33  and  _35
REMARK   18  A    between atoms: _36  and  _38
REMARK                            x       y       z     vdW  Elec       q    Type
REMARK                         _______ _______ _______ _____ _____    ______ ____
ROOT
ATOM      1  C   UNL     1       8.805   2.698  35.944  0.00  0.00    +0.163 C 
ENDROOT
BRANCH   1   2
ATOM      2  O   UNL     1       9.121   3.562  37.048  0.00  0.00    -0.388 OA
ATOM      3  H   UNL     1       9.177   4.469  36.739  0.00  0.00    +0.210 HD
ENDBRANCH   1   2
BRANCH   1   4
ATOM      4  C   UNL     1       8.620   3.506  34.649  0.00  0.00    +0.175 C 
BRANCH   4   5
ATOM      5  C   UNL     1       7.383   4.415  34.707  0.00  0.00    +0.176 C 
ATOM      6  O   UNL     1       7.660   5.486  35.651  0.00  0.00    -0.332 OA
ATOM      7  C   UNL     1       6.624   6.518  35.760  0.00  0.00    +0.277 C 
ATOM      8  C   UNL     1       5.252   5.877  36.083  0.00  0.00    +0.110 C 
ATOM      9  C   UNL     1       4.929   4.711  35.124  0.00  0.00    +0.143 C 
ATOM     10  C   UNL     1       6.074   3.699  35.085  0.00  0.00    +0.133 C 
BRANCH  10  11
ATOM     11  N   UNL     1       5.792   2.639  34.104  0.00  0.00    -0.308 N 
ATOM     12  H   UNL     1       5.788   2.891  33.126  0.00  0.00    +0.149 HD
ATOM     13  C   UNL     1       5.540   1.366  34.421  0.00  0.00    +0.210 C 
ATOM     14  C   UNL     1       5.527   1.020  35.922  0.00  0.00    +0.109 C 
ATOM     15  O   UNL     1       5.322   0.497  33.577  0.00  0.00    -0.276 OA
ENDBRANCH  10  11
BRANCH   7  16
ATOM     16  C   UNL     1       6.520   7.328  34.451  0.00  0.00    +0.414 C 
ATOM     17  O   UNL     1       7.384   7.217  33.583  0.00  0.00    -0.240 OA
ATOM     18  O   UNL     1       5.572   8.091  34.264  0.00  0.00    -0.240 OA
ENDBRANCH   7  16
BRANCH   9  19
ATOM     19  O   UNL     1       3.734   4.055  35.549  0.00  0.00    -0.390 OA
ATOM     20  H   UNL     1       3.920   3.129  35.720  0.00  0.00    +0.210 HD
ENDBRANCH   9  19
BRANCH   7  21
ATOM     21  O   UNL     1       6.984   7.401  36.853  0.00  0.00    -0.343 OA
ATOM     22  C   UNL     1       8.394   7.729  36.937  0.00  0.00    +0.198 C 
ENDBRANCH   7  21
ENDBRANCH   4   5
BRANCH   4  23
ATOM     23  O   UNL     1       8.530   2.617  33.517  0.00  0.00    -0.387 OA
ATOM     24  H   UNL     1       7.662   2.207  33.500  0.00  0.00    +0.210 HD
ENDBRANCH   4  23
ENDBRANCH   1   4
BRANCH   1  25
ATOM     25  C   UNL     1       9.917   1.672  35.750  0.00  0.00    +0.141 C 
BRANCH  25  28
ATOM     26  C   UNL     1      12.035   2.902  35.420  0.00  0.00    +0.401 C 
ATOM     27  O   UNL     1      12.164   3.189  36.613  0.00  0.00    -0.226 OA
ATOM     28  N   UNL     1      11.013   2.201  34.928  0.00  0.00    -0.279 N 
ATOM     29  H   UNL     1      10.990   2.025  33.933  0.00  0.00    +0.152 HD
BRANCH  26  30
ATOM     30  O   UNL     1      13.028   3.340  34.490  0.00  0.00    -0.444 OA
BRANCH  30  31
ATOM     31  C   UNL     1      14.275   3.517  35.169  0.00  0.00    +0.292 C 
BRANCH  31  33
ATOM     32  N   UNL     1      14.339   5.984  35.351  0.00  0.00    -0.131 NA
ATOM     33  C   UNL     1      14.862   4.828  34.834  0.00  0.00    +0.120 A 
ATOM     34  C   UNL     1      15.926   5.140  34.018  0.00  0.00    +0.137 A 
ATOM     35  N   UNL     1      15.988   6.499  34.071  0.00  0.00    -0.250 N 
ATOM     36  N   UNL     1      15.040   7.003  34.879  0.00  0.00    -0.065 NA
BRANCH  35  37
ATOM     37  C   UNL     1      16.876   7.384  33.347  0.00  0.00    +0.160 C 
BRANCH  37  38
ATOM     38  C   UNL     1      16.118   8.551  32.703  0.00  0.00    +0.107 C 
BRANCH  38  39
ATOM     39  N   UNL     1      16.929   9.289  31.718  0.00  0.00    -0.301 NA
ATOM     40  C   UNL     1      17.704  10.381  32.314  0.00  0.00    +0.084 C 
ATOM     41  C   UNL     1      18.723  10.687  31.235  0.00  0.00    +0.017 C 
ATOM     42  C   UNL     1      19.077   9.321  30.674  0.00  0.00    +0.017 C 
ATOM     43  C   UNL     1      17.910   8.416  31.056  0.00  0.00    +0.084 C 
ENDBRANCH  38  39
ENDBRANCH  37  38
ENDBRANCH  35  37
ENDBRANCH  31  33
ENDBRANCH  30  31
ENDBRANCH  26  30
ENDBRANCH  25  28
ENDBRANCH   1  25
TORSDOF 16
