REMARK VINA RESULT:    -5.326      7.317     12.558
REMARK INTER + INTRA:         -12.994
REMARK INTER:                 -10.387
REMARK INTRA:                  -2.606
REMARK UNBOUND:                -3.154
REMARK  Name = lig_assembled_67.pdb
REMARK  18 active torsions:
REMARK  status: ('A' for Active; 'I' for Inactive)
REMARK    1  A    between atoms: _2  and  _9
REMARK    2  A    between atoms: _4  and  _19
REMARK    3  A    between atoms: _6  and  _7
REMARK    4  A    between atoms: _6  and  _19
REMARK    5  A    between atoms: _9  and  _10
REMARK    6  A    between atoms: _10  and  _11
REMARK    7  A    between atoms: _15  and  _35
REMARK    8  A    between atoms: _17  and  _23
REMARK    9  A    between atoms: _18  and  _22
REMARK   10  A    between atoms: _22  and  _23
REMARK   11  A    between atoms: _25  and  _26
REMARK   12  A    between atoms: _27  and  _28
REMARK   13  A    between atoms: _29  and  _31
REMARK   14  A    between atoms: _31  and  _32
REMARK   15  A    between atoms: _31  and  _33
REMARK   16  A    between atoms: _33  and  _34
REMARK   17  A    between atoms: _33  and  _35
REMARK   18  A    between atoms: _36  and  _38
REMARK                            x       y       z     vdW  Elec       q    Type
REMARK                         _______ _______ _______ _____ _____    ______ ____
ROOT
ATOM      1  C   UNL     1       8.545   2.476  36.195  0.00  0.00    +0.163 C 
ENDROOT
BRANCH   1   2
ATOM      2  O   UNL     1       8.754   2.912  37.549  0.00  0.00    -0.388 OA
ATOM      3  H   UNL     1       8.272   3.729  37.701  0.00  0.00    +0.210 HD
ENDBRANCH   1   2
BRANCH   1   4
ATOM      4  C   UNL     1       8.910   3.588  35.197  0.00  0.00    +0.175 C 
BRANCH   4   5
ATOM      5  C   UNL     1       7.756   4.579  34.987  0.00  0.00    +0.176 C 
ATOM      6  O   UNL     1       7.601   5.350  36.209  0.00  0.00    -0.332 OA
ATOM      7  C   UNL     1       6.607   6.426  36.158  0.00  0.00    +0.277 C 
ATOM      8  C   UNL     1       5.232   5.872  35.711  0.00  0.00    +0.110 C 
ATOM      9  C   UNL     1       5.351   5.018  34.431  0.00  0.00    +0.143 C 
ATOM     10  C   UNL     1       6.415   3.932  34.594  0.00  0.00    +0.133 C 
BRANCH  10  11
ATOM     11  N   UNL     1       6.580   3.181  33.339  0.00  0.00    -0.308 N 
ATOM     12  H   UNL     1       6.991   3.662  32.552  0.00  0.00    +0.149 HD
ATOM     13  C   UNL     1       6.223   1.904  33.174  0.00  0.00    +0.210 C 
ATOM     14  C   UNL     1       5.576   1.206  34.385  0.00  0.00    +0.109 C 
ATOM     15  O   UNL     1       6.387   1.296  32.115  0.00  0.00    -0.276 OA
ENDBRANCH  10  11
BRANCH   7  16
ATOM     16  C   UNL     1       7.055   7.539  35.187  0.00  0.00    +0.414 C 
ATOM     17  O   UNL     1       6.234   8.091  34.455  0.00  0.00    -0.240 OA
ATOM     18  O   UNL     1       8.236   7.884  35.136  0.00  0.00    -0.240 OA
ENDBRANCH   7  16
BRANCH   9  19
ATOM     19  O   UNL     1       4.094   4.406  34.142  0.00  0.00    -0.390 OA
ATOM     20  H   UNL     1       3.741   4.768  33.326  0.00  0.00    +0.210 HD
ENDBRANCH   9  19
BRANCH   7  21
ATOM     21  O   UNL     1       6.467   6.972  37.495  0.00  0.00    -0.343 OA
ATOM     22  C   UNL     1       7.500   6.573  38.431  0.00  0.00    +0.198 C 
ENDBRANCH   7  21
ENDBRANCH   4   5
BRANCH   4  23
ATOM     23  O   UNL     1       9.306   3.012  33.936  0.00  0.00    -0.387 OA
ATOM     24  H   UNL     1       9.307   3.693  33.259  0.00  0.00    +0.210 HD
ENDBRANCH   4  23
ENDBRANCH   1   4
BRANCH   1  25
ATOM     25  C   UNL     1       9.387   1.237  35.910  0.00  0.00    +0.141 C 
BRANCH  25  28
ATOM     26  C   UNL     1      11.829   1.592  35.782  0.00  0.00    +0.401 C 
ATOM     27  O   UNL     1      11.837   1.749  34.559  0.00  0.00    -0.226 OA
ATOM     28  N   UNL     1      10.730   1.342  36.494  0.00  0.00    -0.279 N 
ATOM     29  H   UNL     1      10.826   1.218  37.492  0.00  0.00    +0.152 HD
BRANCH  26  30
ATOM     30  O   UNL     1      13.063   1.673  36.500  0.00  0.00    -0.444 OA
BRANCH  30  31
ATOM     31  C   UNL     1      13.129   2.920  37.196  0.00  0.00    +0.292 C 
BRANCH  31  33
ATOM     32  N   UNL     1      13.367   5.212  36.291  0.00  0.00    -0.131 NA
ATOM     33  C   UNL     1      13.837   3.927  36.383  0.00  0.00    +0.120 A 
ATOM     34  C   UNL     1      14.984   3.814  35.629  0.00  0.00    +0.137 A 
ATOM     35  N   UNL     1      15.155   5.059  35.104  0.00  0.00    -0.251 N 
ATOM     36  N   UNL     1      14.183   5.895  35.500  0.00  0.00    -0.065 NA
BRANCH  35  37
ATOM     37  C   UNL     1      16.214   5.526  34.237  0.00  0.00    +0.150 C 
BRANCH  37  38
ATOM     38  C   UNL     1      15.711   6.289  33.014  0.00  0.00    +0.084 C 
BRANCH  38  39
ATOM     39  C   UNL     1      16.224   7.721  32.970  0.00  0.00    +0.252 C 
ATOM     40  O   UNL     1      15.150   8.623  32.679  0.00  0.00    -0.349 OA
ATOM     41  C   UNL     1      15.552   9.827  33.328  0.00  0.00    +0.191 C 
ATOM     42  C   UNL     1      16.233   9.336  34.580  0.00  0.00    +0.191 C 
ATOM     43  O   UNL     1      16.813   8.080  34.224  0.00  0.00    -0.349 OA
ENDBRANCH  38  39
ENDBRANCH  37  38
ENDBRANCH  35  37
ENDBRANCH  31  33
ENDBRANCH  30  31
ENDBRANCH  26  30
ENDBRANCH  25  28
ENDBRANCH   1  25
TORSDOF 16
