REMARK VINA RESULT:    -6.301      2.691     10.692
REMARK INTER + INTRA:         -14.810
REMARK INTER:                 -11.289
REMARK INTRA:                  -3.520
REMARK UNBOUND:                -2.615
REMARK  Name = lig_assembled_83.pdb
REMARK  20 active torsions:
REMARK  status: ('A' for Active; 'I' for Inactive)
REMARK    1  A    between atoms: _2  and  _12
REMARK    2  A    between atoms: _3  and  _14
REMARK    3  A    between atoms: _7  and  _24
REMARK    4  A    between atoms: _9  and  _10
REMARK    5  A    between atoms: _9  and  _24
REMARK    6  A    between atoms: _12  and  _13
REMARK    7  A    between atoms: _13  and  _14
REMARK    8  A    between atoms: _13  and  _18
REMARK    9  A    between atoms: _20  and  _40
REMARK   10  A    between atoms: _22  and  _28
REMARK   11  A    between atoms: _23  and  _27
REMARK   12  A    between atoms: _27  and  _28
REMARK   13  A    between atoms: _30  and  _31
REMARK   14  A    between atoms: _32  and  _33
REMARK   15  A    between atoms: _34  and  _36
REMARK   16  A    between atoms: _36  and  _37
REMARK   17  A    between atoms: _36  and  _38
REMARK   18  A    between atoms: _38  and  _39
REMARK   19  A    between atoms: _38  and  _40
REMARK   20  A    between atoms: _41  and  _43
REMARK                            x       y       z     vdW  Elec       q    Type
REMARK                         _______ _______ _______ _____ _____    ______ ____
ROOT
ATOM      1  C   UNL     1      18.652  11.118  28.643  0.00  0.00    +0.141 C 
ENDROOT
BRANCH   1   4
ATOM      2  C   UNL     1      20.095  10.409  26.766  0.00  0.00    +0.401 C 
ATOM      3  O   UNL     1      20.655  11.502  26.661  0.00  0.00    -0.226 OA
ATOM      4  N   UNL     1      19.142  10.143  27.661  0.00  0.00    -0.279 N 
ATOM      5  H   UNL     1      18.735   9.218  27.664  0.00  0.00    +0.152 HD
BRANCH   2   6
ATOM      6  O   UNL     1      20.469   9.349  25.883  0.00  0.00    -0.444 OA
BRANCH   6   7
ATOM      7  C   UNL     1      20.802   8.186  26.646  0.00  0.00    +0.292 C 
BRANCH   7   9
ATOM      8  N   UNL     1      21.262   5.862  25.905  0.00  0.00    -0.131 NA
ATOM      9  C   UNL     1      20.444   6.963  25.906  0.00  0.00    +0.120 A 
ATOM     10  C   UNL     1      19.332   6.693  25.142  0.00  0.00    +0.137 A 
ATOM     11  N   UNL     1      19.525   5.414  24.720  0.00  0.00    -0.249 N 
ATOM     12  N   UNL     1      20.690   4.918  25.167  0.00  0.00    -0.065 NA
BRANCH  11  13
ATOM     13  C   UNL     1      18.667   4.624  23.863  0.00  0.00    +0.178 C 
BRANCH  13  14
ATOM     14  C   UNL     1      18.313   3.276  24.498  0.00  0.00    +0.156 C 
BRANCH  14  15
ATOM     15  O   UNL     1      17.959   3.463  25.872  0.00  0.00    -0.388 OA
ATOM     16  H   UNL     1      17.029   3.194  26.014  0.00  0.00    +0.210 HD
ENDBRANCH  14  15
BRANCH  14  17
ATOM     17  C   UNL     1      17.157   2.610  23.735  0.00  0.00    +0.162 C 
BRANCH  17  18
ATOM     18  N   UNL     1      17.338   1.174  23.589  0.00  0.00    -0.269 N 
ATOM     19  C   UNL     1      17.052   0.269  24.586  0.00  0.00    +0.113 A 
ATOM     20  C   UNL     1      17.325  -0.968  24.051  0.00  0.00    +0.137 A 
ATOM     21  N   UNL     1      17.796  -0.851  22.772  0.00  0.00    -0.172 NA
ATOM     22  C   UNL     1      17.789   0.444  22.515  0.00  0.00    +0.450 A 
ATOM     23  N   UNL     1      18.209   0.985  21.242  0.00  0.00    +0.120 N 
ATOM     24  O   UNL     1      18.164   2.218  21.097  0.00  0.00    +0.045 OA
ATOM     25  O   UNL     1      18.598   0.186  20.383  0.00  0.00    -0.573 OA
ENDBRANCH  17  18
ENDBRANCH  14  17
ENDBRANCH  13  14
ENDBRANCH  11  13
ENDBRANCH   7   9
ENDBRANCH   6   7
ENDBRANCH   2   6
ENDBRANCH   1   4
BRANCH   1  26
ATOM     26  C   UNL     1      18.480  10.495  30.025  0.00  0.00    +0.163 C 
BRANCH  26  27
ATOM     27  O   UNL     1      17.142  10.718  30.501  0.00  0.00    -0.388 OA
ATOM     28  H   UNL     1      16.564  10.028  30.167  0.00  0.00    +0.210 HD
ENDBRANCH  26  27
BRANCH  26  29
ATOM     29  C   UNL     1      18.795   8.991  29.954  0.00  0.00    +0.175 C 
BRANCH  29  30
ATOM     30  C   UNL     1      18.061   8.195  31.044  0.00  0.00    +0.176 C 
ATOM     31  O   UNL     1      18.150   8.948  32.284  0.00  0.00    -0.332 OA
ATOM     32  C   UNL     1      17.411   8.389  33.420  0.00  0.00    +0.277 C 
ATOM     33  C   UNL     1      17.832   6.919  33.668  0.00  0.00    +0.110 C 
ATOM     34  C   UNL     1      17.784   6.086  32.370  0.00  0.00    +0.143 C 
ATOM     35  C   UNL     1      18.582   6.761  31.255  0.00  0.00    +0.133 C 
BRANCH  35  36
ATOM     36  N   UNL     1      18.457   6.003  30.000  0.00  0.00    -0.308 N 
ATOM     37  H   UNL     1      17.555   5.990  29.545  0.00  0.00    +0.149 HD
ATOM     38  C   UNL     1      19.458   5.331  29.423  0.00  0.00    +0.210 C 
ATOM     39  C   UNL     1      20.813   5.349  30.156  0.00  0.00    +0.109 C 
ATOM     40  O   UNL     1      19.327   4.717  28.364  0.00  0.00    -0.276 OA
ENDBRANCH  35  36
BRANCH  32  41
ATOM     41  C   UNL     1      15.891   8.454  33.168  0.00  0.00    +0.414 C 
ATOM     42  O   UNL     1      15.149   7.584  33.624  0.00  0.00    -0.240 OA
ATOM     43  O   UNL     1      15.406   9.376  32.511  0.00  0.00    -0.240 OA
ENDBRANCH  32  41
BRANCH  32  44
ATOM     44  O   UNL     1      17.745   9.165  34.599  0.00  0.00    -0.343 OA
ATOM     45  C   UNL     1      18.350   8.410  35.679  0.00  0.00    +0.198 C 
ENDBRANCH  32  44
BRANCH  34  46
ATOM     46  O   UNL     1      18.321   4.785  32.613  0.00  0.00    -0.390 OA
ATOM     47  H   UNL     1      18.644   4.735  33.515  0.00  0.00    +0.210 HD
ENDBRANCH  34  46
ENDBRANCH  29  30
BRANCH  29  48
ATOM     48  O   UNL     1      20.217   8.777  30.054  0.00  0.00    -0.387 OA
ATOM     49  H   UNL     1      20.454   8.624  30.972  0.00  0.00    +0.210 HD
ENDBRANCH  29  48
ENDBRANCH  26  29
ENDBRANCH   1  26
TORSDOF 18
