REMARK VINA RESULT:    -5.878     14.200     17.979
REMARK INTER + INTRA:         -13.106
REMARK INTER:                 -11.012
REMARK INTRA:                  -2.094
REMARK UNBOUND:                -1.902
REMARK  Name = lig_assembled_13.pdb
REMARK  20 active torsions:
REMARK  status: ('A' for Active; 'I' for Inactive)
REMARK    1  A    between atoms: _2  and  _9
REMARK    2  A    between atoms: _4  and  _18
REMARK    3  A    between atoms: _5  and  _11
REMARK    4  A    between atoms: _6  and  _7
REMARK    5  A    between atoms: _6  and  _18
REMARK    6  A    between atoms: _9  and  _10
REMARK    7  A    between atoms: _10  and  _12
REMARK    8  A    between atoms: _11  and  _12
REMARK    9  A    between atoms: _14  and  _34
REMARK   10  A    between atoms: _16  and  _22
REMARK   11  A    between atoms: _17  and  _21
REMARK   12  A    between atoms: _21  and  _22
REMARK   13  A    between atoms: _24  and  _25
REMARK   14  A    between atoms: _26  and  _27
REMARK   15  A    between atoms: _28  and  _30
REMARK   16  A    between atoms: _30  and  _31
REMARK   17  A    between atoms: _30  and  _32
REMARK   18  A    between atoms: _32  and  _33
REMARK   19  A    between atoms: _32  and  _34
REMARK   20  A    between atoms: _35  and  _37
REMARK                            x       y       z     vdW  Elec       q    Type
REMARK                         _______ _______ _______ _____ _____    ______ ____
ROOT
ATOM      1  C   UNL     1      18.448   5.682  23.784  0.00  0.00    +0.163 C 
ENDROOT
BRANCH   1   2
ATOM      2  O   UNL     1      17.433   5.669  22.767  0.00  0.00    -0.388 OA
ATOM      3  H   UNL     1      16.584   5.460  23.163  0.00  0.00    +0.210 HD
ENDBRANCH   1   2
BRANCH   1   4
ATOM      4  C   UNL     1      19.177   4.329  23.851  0.00  0.00    +0.175 C 
BRANCH   4   5
ATOM      5  C   UNL     1      18.412   3.301  24.698  0.00  0.00    +0.176 C 
ATOM      6  O   UNL     1      19.277   2.893  25.794  0.00  0.00    -0.332 OA
ATOM      7  C   UNL     1      18.672   1.986  26.774  0.00  0.00    +0.277 C 
ATOM      8  C   UNL     1      18.093   0.735  26.070  0.00  0.00    +0.110 C 
ATOM      9  C   UNL     1      17.191   1.119  24.878  0.00  0.00    +0.143 C 
ATOM     10  C   UNL     1      17.919   2.066  23.922  0.00  0.00    +0.133 C 
BRANCH  10  11
ATOM     11  N   UNL     1      17.021   2.493  22.838  0.00  0.00    -0.308 N 
ATOM     12  H   UNL     1      16.223   3.062  23.082  0.00  0.00    +0.149 HD
ATOM     13  C   UNL     1      17.192   2.178  21.551  0.00  0.00    +0.210 C 
ATOM     14  C   UNL     1      18.403   1.288  21.214  0.00  0.00    +0.109 C 
ATOM     15  O   UNL     1      16.432   2.563  20.661  0.00  0.00    -0.276 OA
ENDBRANCH  10  11
BRANCH   7  16
ATOM     16  C   UNL     1      17.553   2.700  27.561  0.00  0.00    +0.414 C 
ATOM     17  O   UNL     1      16.377   2.571  27.221  0.00  0.00    -0.240 OA
ATOM     18  O   UNL     1      17.825   3.404  28.534  0.00  0.00    -0.240 OA
ENDBRANCH   7  16
BRANCH   7  19
ATOM     19  O   UNL     1      19.713   1.555  27.689  0.00  0.00    -0.343 OA
ATOM     20  C   UNL     1      20.950   2.308  27.607  0.00  0.00    +0.198 C 
ENDBRANCH   7  19
BRANCH   9  21
ATOM     21  O   UNL     1      16.803  -0.058  24.168  0.00  0.00    -0.390 OA
ATOM     22  H   UNL     1      16.473   0.185  23.300  0.00  0.00    +0.210 HD
ENDBRANCH   9  21
ENDBRANCH   4   5
BRANCH   4  23
ATOM     23  O   UNL     1      20.510   4.508  24.371  0.00  0.00    -0.387 OA
ATOM     24  H   UNL     1      20.802   5.406  24.200  0.00  0.00    +0.210 HD
ENDBRANCH   4  23
ENDBRANCH   1   4
BRANCH   1  25
ATOM     25  C   UNL     1      19.456   6.791  23.502  0.00  0.00    +0.141 C 
BRANCH  25  28
ATOM     26  C   UNL     1      20.878   7.751  25.280  0.00  0.00    +0.401 C 
ATOM     27  O   UNL     1      21.897   7.163  24.913  0.00  0.00    -0.226 OA
ATOM     28  N   UNL     1      19.692   7.631  24.682  0.00  0.00    -0.279 N 
ATOM     29  H   UNL     1      18.911   8.147  25.063  0.00  0.00    +0.152 HD
BRANCH  26  30
ATOM     30  O   UNL     1      20.946   8.617  26.416  0.00  0.00    -0.444 OA
BRANCH  30  31
ATOM     31  C   UNL     1      19.629   9.052  26.765  0.00  0.00    +0.292 C 
BRANCH  31  33
ATOM     32  N   UNL     1      19.054   7.334  28.451  0.00  0.00    -0.131 NA
ATOM     33  C   UNL     1      19.301   8.644  28.143  0.00  0.00    +0.120 A 
ATOM     34  C   UNL     1      19.178   9.406  29.280  0.00  0.00    +0.137 A 
ATOM     35  N   UNL     1      18.788   8.511  30.234  0.00  0.00    -0.241 N 
ATOM     36  N   UNL     1      18.761   7.261  29.744  0.00  0.00    -0.065 NA
BRANCH  35  37
ATOM     37  C   UNL     1      18.528   8.751  31.635  0.00  0.00    +0.265 C 
BRANCH  37  38
ATOM     38  C   UNL     1      17.071   8.999  31.903  0.00  0.00    +0.329 C 
ATOM     39  O   UNL     1      16.223   8.154  32.151  0.00  0.00    -0.249 OA
BRANCH  38  40
ATOM     40  O   UNL     1      16.806  10.328  31.720  0.00  0.00    -0.464 OA
BRANCH  40  41
ATOM     41  C   UNL     1      16.291  11.006  32.876  0.00  0.00    +0.229 C 
ATOM     42  C   UNL     1      17.388  11.907  33.414  0.00  0.00    +0.048 C 
ENDBRANCH  40  41
ENDBRANCH  38  40
ENDBRANCH  37  38
ENDBRANCH  35  37
ENDBRANCH  31  33
ENDBRANCH  30  31
ENDBRANCH  26  30
ENDBRANCH  25  28
ENDBRANCH   1  25
TORSDOF 17
