REMARK VINA RESULT:    -6.480      6.991     12.750
REMARK INTER + INTRA:         -14.581
REMARK INTER:                 -12.691
REMARK INTRA:                  -1.890
REMARK UNBOUND:                -2.230
REMARK  Name = lig_assembled_9.pdb
REMARK  20 active torsions:
REMARK  status: ('A' for Active; 'I' for Inactive)
REMARK    1  A    between atoms: _2  and  _9
REMARK    2  A    between atoms: _4  and  _23
REMARK    3  A    between atoms: _6  and  _7
REMARK    4  A    between atoms: _6  and  _23
REMARK    5  A    between atoms: _11  and  _12
REMARK    6  A    between atoms: _12  and  _17
REMARK    7  A    between atoms: _13  and  _14
REMARK    8  A    between atoms: _13  and  _17
REMARK    9  A    between atoms: _19  and  _39
REMARK   10  A    between atoms: _21  and  _27
REMARK   11  A    between atoms: _22  and  _26
REMARK   12  A    between atoms: _26  and  _27
REMARK   13  A    between atoms: _29  and  _30
REMARK   14  A    between atoms: _31  and  _32
REMARK   15  A    between atoms: _33  and  _35
REMARK   16  A    between atoms: _35  and  _36
REMARK   17  A    between atoms: _35  and  _37
REMARK   18  A    between atoms: _37  and  _38
REMARK   19  A    between atoms: _37  and  _39
REMARK   20  A    between atoms: _40  and  _42
REMARK                            x       y       z     vdW  Elec       q    Type
REMARK                         _______ _______ _______ _____ _____    ______ ____
ROOT
ATOM      1  C   UNL     1       7.344   2.450  34.378  0.00  0.00    +0.163 C 
ENDROOT
BRANCH   1   2
ATOM      2  O   UNL     1       7.239   2.507  35.810  0.00  0.00    -0.388 OA
ATOM      3  H   UNL     1       6.341   2.292  36.075  0.00  0.00    +0.210 HD
ENDBRANCH   1   2
BRANCH   1   4
ATOM      4  C   UNL     1       7.781   3.808  33.804  0.00  0.00    +0.175 C 
BRANCH   4   5
ATOM      5  C   UNL     1       7.156   4.986  34.566  0.00  0.00    +0.176 C 
ATOM      6  O   UNL     1       7.858   5.122  35.832  0.00  0.00    -0.332 OA
ATOM      7  C   UNL     1       7.465   6.270  36.655  0.00  0.00    +0.277 C 
ATOM      8  C   UNL     1       5.936   6.260  36.903  0.00  0.00    +0.110 C 
ATOM      9  C   UNL     1       5.148   6.085  35.588  0.00  0.00    +0.143 C 
ATOM     10  C   UNL     1       5.641   4.864  34.810  0.00  0.00    +0.133 C 
BRANCH  10  11
ATOM     11  N   UNL     1       4.942   4.758  33.520  0.00  0.00    -0.308 N 
ATOM     12  H   UNL     1       5.146   5.452  32.815  0.00  0.00    +0.149 HD
ATOM     13  C   UNL     1       4.056   3.805  33.220  0.00  0.00    +0.210 C 
ATOM     14  C   UNL     1       3.747   2.777  34.325  0.00  0.00    +0.109 C 
ATOM     15  O   UNL     1       3.496   3.732  32.125  0.00  0.00    -0.276 OA
ENDBRANCH  10  11
BRANCH   7  16
ATOM     16  C   UNL     1       7.868   7.595  35.974  0.00  0.00    +0.414 C 
ATOM     17  O   UNL     1       7.870   7.686  34.747  0.00  0.00    -0.240 OA
ATOM     18  O   UNL     1       8.192   8.571  36.652  0.00  0.00    -0.240 OA
ENDBRANCH   7  16
BRANCH   7  19
ATOM     19  O   UNL     1       8.136   6.155  37.936  0.00  0.00    -0.343 OA
ATOM     20  C   UNL     1       9.456   5.555  37.884  0.00  0.00    +0.198 C 
ENDBRANCH   7  19
BRANCH   9  21
ATOM     21  O   UNL     1       3.758   5.929  35.877  0.00  0.00    -0.390 OA
ATOM     22  H   UNL     1       3.599   5.047  36.220  0.00  0.00    +0.210 HD
ENDBRANCH   9  21
ENDBRANCH   4   5
BRANCH   4  23
ATOM     23  O   UNL     1       7.444   3.887  32.405  0.00  0.00    -0.387 OA
ATOM     24  H   UNL     1       7.361   3.001  32.045  0.00  0.00    +0.210 HD
ENDBRANCH   4  23
ENDBRANCH   1   4
BRANCH   1  25
ATOM     25  C   UNL     1       8.350   1.377  33.972  0.00  0.00    +0.141 C 
BRANCH  25  28
ATOM     26  C   UNL     1      10.551   1.942  34.941  0.00  0.00    +0.401 C 
ATOM     27  O   UNL     1      10.261   1.544  36.072  0.00  0.00    -0.226 OA
ATOM     28  N   UNL     1       9.717   1.908  33.901  0.00  0.00    -0.279 N 
ATOM     29  H   UNL     1      10.044   2.266  33.015  0.00  0.00    +0.152 HD
BRANCH  26  30
ATOM     30  O   UNL     1      11.855   2.481  34.708  0.00  0.00    -0.444 OA
BRANCH  30  31
ATOM     31  C   UNL     1      12.715   2.139  35.798  0.00  0.00    +0.292 C 
BRANCH  31  33
ATOM     32  N   UNL     1      14.192   3.339  37.383  0.00  0.00    -0.131 NA
ATOM     33  C   UNL     1      13.534   3.303  36.188  0.00  0.00    +0.121 A 
ATOM     34  C   UNL     1      13.789   4.465  35.499  0.00  0.00    +0.143 A 
ATOM     35  N   UNL     1      14.650   5.174  36.307  0.00  0.00    -0.220 N 
ATOM     36  N   UNL     1      14.860   4.482  37.451  0.00  0.00    -0.060 NA
BRANCH  35  37
ATOM     37  C   UNL     1      15.286   6.416  36.049  0.00  0.00    +0.068 A 
ATOM     38  C   UNL     1      15.251   6.983  34.768  0.00  0.00    +0.042 A 
ATOM     39  C   UNL     1      15.909   8.195  34.511  0.00  0.00    +0.061 A 
ATOM     40  C   UNL     1      16.599   8.841  35.542  0.00  0.00    +0.015 A 
ATOM     41  C   UNL     1      16.625   8.286  36.823  0.00  0.00    +0.003 A 
ATOM     42  C   UNL     1      15.971   7.080  37.079  0.00  0.00    +0.028 A 
BRANCH  39  43
ATOM     43  C   UNL     1      15.846   8.858  33.182  0.00  0.00    +0.339 C 
ATOM     44  O   UNL     1      16.070   8.286  32.128  0.00  0.00    -0.245 OA
BRANCH  43  45
ATOM     45  O   UNL     1      15.606  10.183  33.342  0.00  0.00    -0.461 OA
BRANCH  45  46
ATOM     46  C   UNL     1      16.425  11.058  32.555  0.00  0.00    +0.229 C 
ATOM     47  C   UNL     1      17.220  11.935  33.505  0.00  0.00    +0.048 C 
ENDBRANCH  45  46
ENDBRANCH  43  45
ENDBRANCH  39  43
ENDBRANCH  35  37
ENDBRANCH  31  33
ENDBRANCH  30  31
ENDBRANCH  26  30
ENDBRANCH  25  28
ENDBRANCH   1  25
TORSDOF 17
