REMARK VINA RESULT:    -6.662     14.274     18.377
REMARK INTER + INTRA:         -15.003
REMARK INTER:                 -12.503
REMARK INTRA:                  -2.499
REMARK UNBOUND:                -2.499
REMARK  Name = lig_assembled_64.pdb
REMARK  19 active torsions:
REMARK  status: ('A' for Active; 'I' for Inactive)
REMARK    1  A    between atoms: _2  and  _10
REMARK    2  A    between atoms: _5  and  _27
REMARK    3  A    between atoms: _7  and  _8
REMARK    4  A    between atoms: _7  and  _27
REMARK    5  A    between atoms: _12  and  _13
REMARK    6  A    between atoms: _13  and  _21
REMARK    7  A    between atoms: _14  and  _15
REMARK    8  A    between atoms: _23  and  _43
REMARK    9  A    between atoms: _25  and  _31
REMARK   10  A    between atoms: _26  and  _30
REMARK   11  A    between atoms: _30  and  _31
REMARK   12  A    between atoms: _33  and  _34
REMARK   13  A    between atoms: _35  and  _36
REMARK   14  A    between atoms: _37  and  _39
REMARK   15  A    between atoms: _39  and  _40
REMARK   16  A    between atoms: _39  and  _41
REMARK   17  A    between atoms: _41  and  _42
REMARK   18  A    between atoms: _41  and  _43
REMARK   19  A    between atoms: _44  and  _46
REMARK                            x       y       z     vdW  Elec       q    Type
REMARK                         _______ _______ _______ _____ _____    ______ ____
ROOT
ATOM      1  C   UNL     1      19.156   2.407  28.056  0.00  0.00    +0.401 C 
ATOM      2  O   UNL     1      19.509   1.814  29.078  0.00  0.00    -0.226 OA
ATOM      3  N   UNL     1      18.419   1.856  27.091  0.00  0.00    -0.279 N 
ATOM      4  H   UNL     1      18.172   2.427  26.294  0.00  0.00    +0.152 HD
ENDROOT
BRANCH   3   5
ATOM      5  C   UNL     1      17.947   0.466  27.120  0.00  0.00    +0.141 C 
BRANCH   5   6
ATOM      6  C   UNL     1      16.564   0.322  26.493  0.00  0.00    +0.163 C 
BRANCH   6   7
ATOM      7  O   UNL     1      16.119   1.592  25.987  0.00  0.00    -0.388 OA
ATOM      8  H   UNL     1      16.874   2.174  25.875  0.00  0.00    +0.210 HD
ENDBRANCH   6   7
BRANCH   6   9
ATOM      9  C   UNL     1      16.615  -0.729  25.371  0.00  0.00    +0.175 C 
BRANCH   9  10
ATOM     10  C   UNL     1      17.613  -0.349  24.267  0.00  0.00    +0.176 C 
ATOM     11  O   UNL     1      17.082   0.809  23.565  0.00  0.00    -0.332 OA
ATOM     12  C   UNL     1      17.956   1.382  22.537  0.00  0.00    +0.277 C 
ATOM     13  C   UNL     1      18.374   0.296  21.515  0.00  0.00    +0.110 C 
ATOM     14  C   UNL     1      18.916  -0.967  22.217  0.00  0.00    +0.143 C 
ATOM     15  C   UNL     1      17.929  -1.477  23.268  0.00  0.00    +0.133 C 
BRANCH  15  16
ATOM     16  N   UNL     1      18.493  -2.629  23.989  0.00  0.00    -0.308 N 
ATOM     17  H   UNL     1      19.388  -2.509  24.443  0.00  0.00    +0.149 HD
ATOM     18  C   UNL     1      17.901  -3.822  24.083  0.00  0.00    +0.210 C 
ATOM     19  C   UNL     1      16.551  -3.980  23.359  0.00  0.00    +0.109 C 
ATOM     20  O   UNL     1      18.390  -4.764  24.706  0.00  0.00    -0.276 OA
ENDBRANCH  15  16
BRANCH  12  21
ATOM     21  C   UNL     1      19.216   2.003  23.175  0.00  0.00    +0.414 C 
ATOM     22  O   UNL     1      19.149   2.550  24.275  0.00  0.00    -0.240 OA
ATOM     23  O   UNL     1      20.299   1.956  22.590  0.00  0.00    -0.240 OA
ENDBRANCH  12  21
BRANCH  12  24
ATOM     24  O   UNL     1      17.209   2.408  21.834  0.00  0.00    -0.343 OA
ATOM     25  C   UNL     1      16.777   2.044  20.498  0.00  0.00    +0.198 C 
ENDBRANCH  12  24
BRANCH  14  26
ATOM     26  O   UNL     1      19.146  -1.994  21.251  0.00  0.00    -0.390 OA
ATOM     27  H   UNL     1      18.553  -2.730  21.418  0.00  0.00    +0.210 HD
ENDBRANCH  14  26
ENDBRANCH   9  10
BRANCH   9  28
ATOM     28  O   UNL     1      15.302  -0.921  24.809  0.00  0.00    -0.387 OA
ATOM     29  H   UNL     1      15.011  -1.821  24.973  0.00  0.00    +0.210 HD
ENDBRANCH   9  28
ENDBRANCH   6   9
ENDBRANCH   5   6
ENDBRANCH   3   5
BRANCH   1  30
ATOM     30  O   UNL     1      19.546   3.771  27.875  0.00  0.00    -0.444 OA
BRANCH  30  31
ATOM     31  C   UNL     1      18.680   4.393  26.921  0.00  0.00    +0.292 C 
BRANCH  31  33
ATOM     32  N   UNL     1      18.623   6.662  25.918  0.00  0.00    -0.131 NA
ATOM     33  C   UNL     1      18.779   5.862  27.014  0.00  0.00    +0.121 A 
ATOM     34  C   UNL     1      19.023   6.651  28.113  0.00  0.00    +0.143 A 
ATOM     35  N   UNL     1      19.015   7.940  27.635  0.00  0.00    -0.220 N 
ATOM     36  N   UNL     1      18.766   7.924  26.304  0.00  0.00    -0.060 NA
BRANCH  35  37
ATOM     37  C   UNL     1      19.220   9.145  28.349  0.00  0.00    +0.071 A 
ATOM     38  C   UNL     1      20.002  10.159  27.807  0.00  0.00    +0.063 A 
ATOM     39  CA  UNL     1      20.163  11.309  28.555  0.00  0.00    +0.150 A 
ATOM     40  N   UNL     1      19.619  11.520  29.787  0.00  0.00    -0.240 NA
ATOM     41  C   UNL     1      18.867  10.517  30.317  0.00  0.00    +0.074 A 
ATOM     42  C   UNL     1      18.642   9.328  29.616  0.00  0.00    +0.056 A 
BRANCH  41  43
ATOM     43  C   UNL     1      18.337  10.766  31.680  0.00  0.00    +0.000 A 
ATOM     44  C   UNL     1      18.881  11.751  32.526  0.00  0.00    +0.010 A 
ATOM     45  C   UNL     1      18.347  12.002  33.796  0.00  0.00    +0.001 A 
ATOM     46  C   UNL     1      17.255  11.272  34.253  0.00  0.00    +0.000 A 
ATOM     47  C   UNL     1      16.701  10.287  33.442  0.00  0.00    +0.001 A 
ATOM     48  C   UNL     1      17.236  10.038  32.173  0.00  0.00    +0.010 A 
ENDBRANCH  41  43
BRANCH  39  49
ATOM     49  C   UNL     1      20.993  12.423  28.012  0.00  0.00    +0.355 C 
ATOM     50  OXT UNL     1      22.013  12.840  28.531  0.00  0.00    -0.243 OA
BRANCH  49  51
ATOM     51  O   UNL     1      20.457  12.905  26.867  0.00  0.00    -0.476 OA
ATOM     52  H   UNL     1      19.630  13.395  27.083  0.00  0.00    +0.295 HD
ENDBRANCH  49  51
ENDBRANCH  39  49
ENDBRANCH  35  37
ENDBRANCH  31  33
ENDBRANCH  30  31
ENDBRANCH   1  30
TORSDOF 17
