REMARK VINA RESULT:    -6.142     15.047     17.639
REMARK INTER + INTRA:         -14.461
REMARK INTER:                 -12.123
REMARK INTRA:                  -2.339
REMARK UNBOUND:                -2.754
REMARK  Name = lig_assembled_12.pdb
REMARK  19 active torsions:
REMARK  status: ('A' for Active; 'I' for Inactive)
REMARK    1  A    between atoms: _2  and  _9
REMARK    2  A    between atoms: _4  and  _21
REMARK    3  A    between atoms: _6  and  _7
REMARK    4  A    between atoms: _6  and  _21
REMARK    5  A    between atoms: _9  and  _16
REMARK    6  A    between atoms: _10  and  _11
REMARK    7  A    between atoms: _10  and  _16
REMARK    8  A    between atoms: _17  and  _37
REMARK    9  A    between atoms: _19  and  _25
REMARK   10  A    between atoms: _20  and  _24
REMARK   11  A    between atoms: _24  and  _25
REMARK   12  A    between atoms: _27  and  _28
REMARK   13  A    between atoms: _29  and  _30
REMARK   14  A    between atoms: _31  and  _33
REMARK   15  A    between atoms: _33  and  _34
REMARK   16  A    between atoms: _33  and  _35
REMARK   17  A    between atoms: _35  and  _36
REMARK   18  A    between atoms: _35  and  _37
REMARK   19  A    between atoms: _38  and  _40
REMARK                            x       y       z     vdW  Elec       q    Type
REMARK                         _______ _______ _______ _____ _____    ______ ____
ROOT
ATOM      1  C   UNL     1      19.394  -0.920  22.362  0.00  0.00    +0.163 C 
ENDROOT
BRANCH   1   2
ATOM      2  O   UNL     1      19.718   0.150  23.265  0.00  0.00    -0.388 OA
ATOM      3  H   UNL     1      20.583  -0.007  23.652  0.00  0.00    +0.210 HD
ENDBRANCH   1   2
BRANCH   1   4
ATOM      4  C   UNL     1      18.685  -2.068  23.101  0.00  0.00    +0.175 C 
BRANCH   4   5
ATOM      5  C   UNL     1      17.891  -1.569  24.318  0.00  0.00    +0.176 C 
ATOM      6  O   UNL     1      18.837  -1.298  25.388  0.00  0.00    -0.332 OA
ATOM      7  C   UNL     1      18.266  -0.709  26.604  0.00  0.00    +0.277 C 
ATOM      8  C   UNL     1      17.108  -1.587  27.138  0.00  0.00    +0.110 C 
ATOM      9  C   UNL     1      16.093  -1.928  26.027  0.00  0.00    +0.143 C 
ATOM     10  C   UNL     1      16.794  -2.531  24.810  0.00  0.00    +0.133 C 
BRANCH  10  11
ATOM     11  N   UNL     1      15.829  -2.771  23.726  0.00  0.00    -0.308 N 
ATOM     12  H   UNL     1      15.339  -1.974  23.344  0.00  0.00    +0.149 HD
ATOM     13  C   UNL     1      15.556  -3.974  23.213  0.00  0.00    +0.210 C 
ATOM     14  C   UNL     1      16.299  -5.173  23.833  0.00  0.00    +0.109 C 
ATOM     15  O   UNL     1      14.753  -4.144  22.295  0.00  0.00    -0.276 OA
ENDBRANCH  10  11
BRANCH   7  16
ATOM     16  C   UNL     1      17.748   0.718  26.329  0.00  0.00    +0.414 C 
ATOM     17  O   UNL     1      18.235   1.391  25.421  0.00  0.00    -0.240 OA
ATOM     18  O   UNL     1      16.843   1.196  27.014  0.00  0.00    -0.240 OA
ENDBRANCH   7  16
BRANCH   9  19
ATOM     19  O   UNL     1      15.129  -2.857  26.524  0.00  0.00    -0.390 OA
ATOM     20  H   UNL     1      15.581  -3.609  26.915  0.00  0.00    +0.210 HD
ENDBRANCH   9  19
BRANCH   7  21
ATOM     21  O   UNL     1      19.309  -0.664  27.612  0.00  0.00    -0.343 OA
ATOM     22  C   UNL     1      18.981  -1.323  28.861  0.00  0.00    +0.198 C 
ENDBRANCH   7  21
ENDBRANCH   4   5
BRANCH   4  23
ATOM     23  O   UNL     1      19.645  -3.064  23.509  0.00  0.00    -0.387 OA
ATOM     24  H   UNL     1      19.823  -3.656  22.775  0.00  0.00    +0.210 HD
ENDBRANCH   4  23
ENDBRANCH   1   4
BRANCH   1  25
ATOM     25  C   UNL     1      18.497  -0.404  21.242  0.00  0.00    +0.141 C 
BRANCH  25  28
ATOM     26  C   UNL     1      17.313   1.686  20.663  0.00  0.00    +0.401 C 
ATOM     27  O   UNL     1      17.164   1.384  19.477  0.00  0.00    -0.226 OA
ATOM     28  N   UNL     1      17.930   0.913  21.558  0.00  0.00    -0.279 N 
ATOM     29  H   UNL     1      18.011   1.252  22.506  0.00  0.00    +0.152 HD
BRANCH  26  30
ATOM     30  O   UNL     1      16.806   2.939  21.129  0.00  0.00    -0.444 OA
BRANCH  30  31
ATOM     31  C   UNL     1      16.874   2.980  22.557  0.00  0.00    +0.292 C 
BRANCH  31  33
ATOM     32  N   UNL     1      17.112   5.448  22.518  0.00  0.00    -0.131 NA
ATOM     33  C   UNL     1      17.513   4.231  23.007  0.00  0.00    +0.120 A 
ATOM     34  C   UNL     1      18.534   4.423  23.908  0.00  0.00    +0.139 A 
ATOM     35  N   UNL     1      18.729   5.772  23.904  0.00  0.00    -0.226 N 
ATOM     36  N   UNL     1      17.857   6.389  23.085  0.00  0.00    -0.063 NA
BRANCH  35  37
ATOM     37  C   UNL     1      19.679   6.553  24.679  0.00  0.00    +0.305 C 
BRANCH  37  38
ATOM     38  O   UNL     1      18.968   7.366  25.609  0.00  0.00    -0.353 OA
BRANCH  38  39
ATOM     39  C   UNL     1      19.556   7.322  26.902  0.00  0.00    +0.197 C 
BRANCH  39  40
ATOM     40  C   UNL     1      19.061   8.521  27.665  0.00  0.00    -0.022 A 
ATOM     41  C   UNL     1      18.640   9.673  26.988  0.00  0.00    +0.006 A 
ATOM     42  C   UNL     1      18.218  10.799  27.697  0.00  0.00    +0.000 A 
ATOM     43  C   UNL     1      18.221  10.786  29.090  0.00  0.00    +0.000 A 
ATOM     44  C   UNL     1      18.647   9.651  29.776  0.00  0.00    +0.000 A 
ATOM     45  C   UNL     1      19.069   8.525  29.068  0.00  0.00    +0.006 A 
ENDBRANCH  39  40
ENDBRANCH  38  39
ENDBRANCH  37  38
ENDBRANCH  35  37
ENDBRANCH  31  33
ENDBRANCH  30  31
ENDBRANCH  26  30
ENDBRANCH  25  28
ENDBRANCH   1  25
TORSDOF 17
