REMARK VINA RESULT:    -6.394      1.840      3.208
REMARK INTER + INTRA:         -14.098
REMARK INTER:                 -11.942
REMARK INTRA:                  -2.156
REMARK UNBOUND:                -1.911
REMARK  Name = lig_assembled_26.pdb
REMARK  20 active torsions:
REMARK  status: ('A' for Active; 'I' for Inactive)
REMARK    1  A    between atoms: _2  and  _9
REMARK    2  A    between atoms: _4  and  _23
REMARK    3  A    between atoms: _6  and  _7
REMARK    4  A    between atoms: _6  and  _23
REMARK    5  A    between atoms: _9  and  _10
REMARK    6  A    between atoms: _9  and  _11
REMARK    7  A    between atoms: _11  and  _12
REMARK    8  A    between atoms: _12  and  _13
REMARK    9  A    between atoms: _19  and  _39
REMARK   10  A    between atoms: _21  and  _27
REMARK   11  A    between atoms: _22  and  _26
REMARK   12  A    between atoms: _26  and  _27
REMARK   13  A    between atoms: _29  and  _30
REMARK   14  A    between atoms: _31  and  _32
REMARK   15  A    between atoms: _33  and  _35
REMARK   16  A    between atoms: _35  and  _36
REMARK   17  A    between atoms: _35  and  _37
REMARK   18  A    between atoms: _37  and  _38
REMARK   19  A    between atoms: _37  and  _39
REMARK   20  A    between atoms: _40  and  _42
REMARK                            x       y       z     vdW  Elec       q    Type
REMARK                         _______ _______ _______ _____ _____    ______ ____
ROOT
ATOM      1  C   UNL     1       5.152   5.369  34.215  0.00  0.00    +0.163 C 
ENDROOT
BRANCH   1   2
ATOM      2  O   UNL     1       4.540   6.260  35.162  0.00  0.00    -0.388 OA
ATOM      3  H   UNL     1       3.610   6.038  35.256  0.00  0.00    +0.210 HD
ENDBRANCH   1   2
BRANCH   1   4
ATOM      4  C   UNL     1       6.640   5.157  34.542  0.00  0.00    +0.175 C 
BRANCH   4   5
ATOM      5  C   UNL     1       6.875   4.918  36.041  0.00  0.00    +0.176 C 
ATOM      6  O   UNL     1       7.131   6.206  36.665  0.00  0.00    -0.332 OA
ATOM      7  C   UNL     1       7.274   6.187  38.124  0.00  0.00    +0.277 C 
ATOM      8  C   UNL     1       8.367   5.174  38.547  0.00  0.00    +0.110 C 
ATOM      9  C   UNL     1       8.154   3.797  37.883  0.00  0.00    +0.143 C 
ATOM     10  C   UNL     1       8.015   3.935  36.366  0.00  0.00    +0.133 C 
BRANCH  10  11
ATOM     11  N   UNL     1       7.727   2.628  35.755  0.00  0.00    -0.308 N 
ATOM     12  H   UNL     1       6.827   2.208  35.942  0.00  0.00    +0.149 HD
ATOM     13  C   UNL     1       8.576   1.961  34.969  0.00  0.00    +0.210 C 
ATOM     14  C   UNL     1       9.949   2.615  34.725  0.00  0.00    +0.109 C 
ATOM     15  O   UNL     1       8.302   0.874  34.458  0.00  0.00    -0.276 OA
ENDBRANCH  10  11
BRANCH   7  16
ATOM     16  C   UNL     1       5.938   5.816  38.800  0.00  0.00    +0.414 C 
ATOM     17  O   UNL     1       4.881   6.291  38.386  0.00  0.00    -0.240 OA
ATOM     18  O   UNL     1       5.917   5.042  39.758  0.00  0.00    -0.240 OA
ENDBRANCH   7  16
BRANCH   7  19
ATOM     19  O   UNL     1       7.687   7.510  38.552  0.00  0.00    -0.343 OA
ATOM     20  C   UNL     1       8.602   7.532  39.676  0.00  0.00    +0.198 C 
ENDBRANCH   7  19
BRANCH   9  21
ATOM     21  O   UNL     1       9.261   2.944  38.178  0.00  0.00    -0.390 OA
ATOM     22  H   UNL     1       9.017   2.032  38.009  0.00  0.00    +0.210 HD
ENDBRANCH   9  21
ENDBRANCH   4   5
BRANCH   4  23
ATOM     23  O   UNL     1       7.414   6.288  34.093  0.00  0.00    -0.387 OA
ATOM     24  H   UNL     1       7.944   6.032  33.334  0.00  0.00    +0.210 HD
ENDBRANCH   4  23
ENDBRANCH   1   4
BRANCH   1  25
ATOM     25  C   UNL     1       4.432   4.024  34.223  0.00  0.00    +0.141 C 
BRANCH  25  28
ATOM     26  C   UNL     1       4.559   2.903  32.025  0.00  0.00    +0.401 C 
ATOM     27  O   UNL     1       5.670   2.410  32.235  0.00  0.00    -0.226 OA
ATOM     28  N   UNL     1       3.909   3.676  32.896  0.00  0.00    -0.279 N 
ATOM     29  H   UNL     1       3.007   4.042  32.629  0.00  0.00    +0.152 HD
BRANCH  26  30
ATOM     30  O   UNL     1       3.911   2.648  30.776  0.00  0.00    -0.444 OA
BRANCH  30  31
ATOM     31  C   UNL     1       2.532   2.348  31.006  0.00  0.00    +0.292 C 
BRANCH  31  33
ATOM     32  N   UNL     1       0.962   3.904  29.879  0.00  0.00    -0.131 NA
ATOM     33  C   UNL     1       1.716   2.762  29.850  0.00  0.00    +0.120 A 
ATOM     34  C   UNL     1       1.565   2.152  28.627  0.00  0.00    +0.137 A 
ATOM     35  N   UNL     1       0.685   2.951  27.961  0.00  0.00    -0.248 N 
ATOM     36  N   UNL     1       0.347   4.021  28.708  0.00  0.00    -0.065 NA
BRANCH  35  37
ATOM     37  C   UNL     1       0.169   2.832  26.606  0.00  0.00    +0.113 C 
ATOM     38  C   UNL     1      -1.314   2.444  26.524  0.00  0.00    +0.033 C 
BRANCH  37  39
ATOM     39  C   UNL     1       0.485   4.064  25.739  0.00  0.00    +0.106 C 
BRANCH  39  40
ATOM     40  C   UNL     1       1.805   3.976  24.996  0.00  0.00    +0.165 C 
ATOM     41  O   UNL     1       2.887   4.132  25.558  0.00  0.00    -0.292 OA
BRANCH  40  42
ATOM     42  C   UNL     1       1.786   3.731  23.522  0.00  0.00    +0.017 A 
ATOM     43  C   UNL     1       1.739   4.773  22.588  0.00  0.00    +0.011 A 
ATOM     44  C   UNL     1       1.767   4.488  21.220  0.00  0.00    +0.001 A 
ATOM     45  C   UNL     1       1.834   3.167  20.780  0.00  0.00    +0.000 A 
ATOM     46  C   UNL     1       1.870   2.125  21.702  0.00  0.00    +0.001 A 
ATOM     47  C   UNL     1       1.847   2.406  23.069  0.00  0.00    +0.011 A 
ENDBRANCH  40  42
ENDBRANCH  39  40
ENDBRANCH  37  39
ENDBRANCH  35  37
ENDBRANCH  31  33
ENDBRANCH  30  31
ENDBRANCH  26  30
ENDBRANCH  25  28
ENDBRANCH   1  25
TORSDOF 17
