REMARK VINA RESULT:    -5.590     15.272     18.128
REMARK INTER + INTRA:         -12.556
REMARK INTER:                  -8.954
REMARK INTRA:                  -3.603
REMARK UNBOUND:                -1.902
REMARK  Name = lig_assembled_13.pdb
REMARK  20 active torsions:
REMARK  status: ('A' for Active; 'I' for Inactive)
REMARK    1  A    between atoms: _2  and  _9
REMARK    2  A    between atoms: _4  and  _18
REMARK    3  A    between atoms: _5  and  _11
REMARK    4  A    between atoms: _6  and  _7
REMARK    5  A    between atoms: _6  and  _18
REMARK    6  A    between atoms: _9  and  _10
REMARK    7  A    between atoms: _10  and  _12
REMARK    8  A    between atoms: _11  and  _12
REMARK    9  A    between atoms: _14  and  _34
REMARK   10  A    between atoms: _16  and  _22
REMARK   11  A    between atoms: _17  and  _21
REMARK   12  A    between atoms: _21  and  _22
REMARK   13  A    between atoms: _24  and  _25
REMARK   14  A    between atoms: _26  and  _27
REMARK   15  A    between atoms: _28  and  _30
REMARK   16  A    between atoms: _30  and  _31
REMARK   17  A    between atoms: _30  and  _32
REMARK   18  A    between atoms: _32  and  _33
REMARK   19  A    between atoms: _32  and  _34
REMARK   20  A    between atoms: _35  and  _37
REMARK                            x       y       z     vdW  Elec       q    Type
REMARK                         _______ _______ _______ _____ _____    ______ ____
ROOT
ATOM      1  C   UNL     1      21.690   3.392  24.186  0.00  0.00    +0.163 C 
ENDROOT
BRANCH   1   2
ATOM      2  O   UNL     1      21.367   2.890  22.878  0.00  0.00    -0.388 OA
ATOM      3  H   UNL     1      22.174   2.634  22.425  0.00  0.00    +0.210 HD
ENDBRANCH   1   2
BRANCH   1   4
ATOM      4  C   UNL     1      20.443   3.424  25.086  0.00  0.00    +0.175 C 
BRANCH   4   5
ATOM      5  C   UNL     1      19.314   2.537  24.541  0.00  0.00    +0.176 C 
ATOM      6  O   UNL     1      18.663   3.256  23.457  0.00  0.00    -0.332 OA
ATOM      7  C   UNL     1      17.620   2.516  22.741  0.00  0.00    +0.277 C 
ATOM      8  C   UNL     1      16.554   1.987  23.733  0.00  0.00    +0.110 C 
ATOM      9  C   UNL     1      17.201   1.243  24.920  0.00  0.00    +0.143 C 
ATOM     10  C   UNL     1      18.273   2.103  25.589  0.00  0.00    +0.133 C 
BRANCH  10  11
ATOM     11  N   UNL     1      18.941   1.350  26.663  0.00  0.00    -0.308 N 
ATOM     12  H   UNL     1      19.464   0.525  26.406  0.00  0.00    +0.149 HD
ATOM     13  C   UNL     1      18.901   1.687  27.955  0.00  0.00    +0.210 C 
ATOM     14  C   UNL     1      18.074   2.934  28.318  0.00  0.00    +0.109 C 
ATOM     15  O   UNL     1      19.483   1.046  28.831  0.00  0.00    -0.276 OA
ENDBRANCH  10  11
BRANCH   7  16
ATOM     16  C   UNL     1      18.228   1.333  21.959  0.00  0.00    +0.414 C 
ATOM     17  O   UNL     1      17.715   0.217  22.025  0.00  0.00    -0.240 OA
ATOM     18  O   UNL     1      19.230   1.495  21.262  0.00  0.00    -0.240 OA
ENDBRANCH   7  16
BRANCH   7  19
ATOM     19  O   UNL     1      16.973   3.430  21.819  0.00  0.00    -0.343 OA
ATOM     20  C   UNL     1      17.087   4.833  22.167  0.00  0.00    +0.198 C 
ENDBRANCH   7  19
BRANCH   9  21
ATOM     21  O   UNL     1      16.199   0.907  25.881  0.00  0.00    -0.390 OA
ATOM     22  H   UNL     1      15.627   1.664  26.026  0.00  0.00    +0.210 HD
ENDBRANCH   9  21
ENDBRANCH   4   5
BRANCH   4  23
ATOM     23  O   UNL     1      19.978   4.780  25.241  0.00  0.00    -0.387 OA
ATOM     24  H   UNL     1      20.459   5.355  24.641  0.00  0.00    +0.210 HD
ENDBRANCH   4  23
ENDBRANCH   1   4
BRANCH   1  25
ATOM     25  C   UNL     1      22.761   2.518  24.830  0.00  0.00    +0.141 C 
BRANCH  25  28
ATOM     26  C   UNL     1      22.137   0.134  25.013  0.00  0.00    +0.401 C 
ATOM     27  O   UNL     1      21.607   0.260  26.119  0.00  0.00    -0.226 OA
ATOM     28  N   UNL     1      22.707   1.135  24.341  0.00  0.00    -0.279 N 
ATOM     29  H   UNL     1      23.125   0.931  23.444  0.00  0.00    +0.152 HD
BRANCH  26  30
ATOM     30  O   UNL     1      22.159  -1.156  24.396  0.00  0.00    -0.444 OA
BRANCH  30  31
ATOM     31  C   UNL     1      21.397  -1.120  23.186  0.00  0.00    +0.292 C 
BRANCH  31  33
ATOM     32  N   UNL     1      19.687  -2.685  22.320  0.00  0.00    -0.131 NA
ATOM     33  C   UNL     1      20.154  -1.897  23.337  0.00  0.00    +0.120 A 
ATOM     34  C   UNL     1      19.294  -1.982  24.405  0.00  0.00    +0.137 A 
ATOM     35  N   UNL     1      18.287  -2.783  23.952  0.00  0.00    -0.241 N 
ATOM     36  N   UNL     1      18.549  -3.242  22.718  0.00  0.00    -0.065 NA
BRANCH  35  37
ATOM     37  C   UNL     1      17.111  -3.233  24.662  0.00  0.00    +0.265 C 
BRANCH  37  38
ATOM     38  C   UNL     1      15.845  -2.713  24.043  0.00  0.00    +0.329 C 
ATOM     39  O   UNL     1      15.351  -1.609  24.216  0.00  0.00    -0.249 OA
BRANCH  38  40
ATOM     40  O   UNL     1      15.258  -3.717  23.324  0.00  0.00    -0.464 OA
BRANCH  40  41
ATOM     41  C   UNL     1      15.775  -5.031  23.586  0.00  0.00    +0.229 C 
ATOM     42  C   UNL     1      14.595  -5.969  23.762  0.00  0.00    +0.048 C 
ENDBRANCH  40  41
ENDBRANCH  38  40
ENDBRANCH  37  38
ENDBRANCH  35  37
ENDBRANCH  31  33
ENDBRANCH  30  31
ENDBRANCH  26  30
ENDBRANCH  25  28
ENDBRANCH   1  25
TORSDOF 17
