REMARK VINA RESULT:    -5.902     22.111     24.862
REMARK INTER + INTRA:         -13.071
REMARK INTER:                 -10.316
REMARK INTRA:                  -2.755
REMARK UNBOUND:                -2.511
REMARK  Name = lig_assembled_6.pdb
REMARK  17 active torsions:
REMARK  status: ('A' for Active; 'I' for Inactive)
REMARK    1  A    between atoms: _2  and  _10
REMARK    2  A    between atoms: _3  and  _13
REMARK    3  A    between atoms: _5  and  _21
REMARK    4  A    between atoms: _7  and  _8
REMARK    5  A    between atoms: _7  and  _21
REMARK    6  A    between atoms: _17  and  _37
REMARK    7  A    between atoms: _19  and  _25
REMARK    8  A    between atoms: _20  and  _24
REMARK    9  A    between atoms: _24  and  _25
REMARK   10  A    between atoms: _27  and  _28
REMARK   11  A    between atoms: _29  and  _30
REMARK   12  A    between atoms: _31  and  _33
REMARK   13  A    between atoms: _33  and  _34
REMARK   14  A    between atoms: _33  and  _35
REMARK   15  A    between atoms: _35  and  _36
REMARK   16  A    between atoms: _35  and  _37
REMARK   17  A    between atoms: _38  and  _40
REMARK                            x       y       z     vdW  Elec       q    Type
REMARK                         _______ _______ _______ _____ _____    ______ ____
ROOT
ATOM      1  C   UNL     1      12.820  24.619  24.871  0.00  0.00    +0.163 C 
ENDROOT
BRANCH   1   2
ATOM      2  O   UNL     1      13.572  24.673  23.648  0.00  0.00    -0.388 OA
ATOM      3  H   UNL     1      14.453  24.320  23.797  0.00  0.00    +0.210 HD
ENDBRANCH   1   2
BRANCH   1   4
ATOM      4  C   UNL     1      13.189  23.365  25.656  0.00  0.00    +0.141 C 
BRANCH   4   7
ATOM      5  C   UNL     1      15.559  22.778  25.271  0.00  0.00    +0.401 C 
ATOM      6  O   UNL     1      15.992  23.597  26.084  0.00  0.00    -0.226 OA
ATOM      7  N   UNL     1      14.263  22.607  25.003  0.00  0.00    -0.279 N 
ATOM      8  H   UNL     1      14.007  21.916  24.312  0.00  0.00    +0.152 HD
BRANCH   5   9
ATOM      9  O   UNL     1      16.483  21.954  24.556  0.00  0.00    -0.444 OA
BRANCH   9  10
ATOM     10  C   UNL     1      17.091  22.716  23.509  0.00  0.00    +0.292 C 
BRANCH  10  12
ATOM     11  N   UNL     1      16.239  21.137  21.803  0.00  0.00    -0.131 NA
ATOM     12  C   UNL     1      16.444  22.421  22.217  0.00  0.00    +0.121 A 
ATOM     13  C   UNL     1      15.950  23.283  21.265  0.00  0.00    +0.143 A 
ATOM     14  N   UNL     1      15.419  22.471  20.290  0.00  0.00    -0.220 N 
ATOM     15  N   UNL     1      15.624  21.175  20.628  0.00  0.00    -0.060 NA
BRANCH  14  16
ATOM     16  C   UNL     1      14.716  22.839  19.112  0.00  0.00    +0.067 A 
ATOM     17  C   UNL     1      13.445  22.309  18.842  0.00  0.00    +0.034 A 
ATOM     18  C   UNL     1      12.789  22.631  17.649  0.00  0.00    +0.086 A 
ATOM     19  C   UNL     1      13.403  23.486  16.725  0.00  0.00    +0.273 A 
ATOM     20  C   UNL     1      14.659  24.041  16.997  0.00  0.00    +0.086 A 
ATOM     21  C   UNL     1      15.312  23.718  18.192  0.00  0.00    +0.034 A 
BRANCH  19  22
ATOM     22  N   UNL     1      12.728  23.785  15.456  0.00  0.00    +0.080 N 
ATOM     23  O   UNL     1      13.022  24.844  14.884  0.00  0.00    +0.041 OA
ATOM     24  O   UNL     1      11.900  22.965  15.036  0.00  0.00    -0.576 OA
ENDBRANCH  19  22
ENDBRANCH  14  16
ENDBRANCH  10  12
ENDBRANCH   9  10
ENDBRANCH   5   9
ENDBRANCH   4   7
ENDBRANCH   1   4
BRANCH   1  25
ATOM     25  C   UNL     1      11.308  24.621  24.587  0.00  0.00    +0.175 C 
BRANCH  25  26
ATOM     26  C   UNL     1      10.974  25.266  23.234  0.00  0.00    +0.176 C 
ATOM     27  O   UNL     1      11.709  26.518  23.142  0.00  0.00    -0.332 OA
ATOM     28  C   UNL     1      11.596  27.228  21.865  0.00  0.00    +0.277 C 
ATOM     29  C   UNL     1      10.108  27.467  21.509  0.00  0.00    +0.110 C 
ATOM     30  C   UNL     1       9.279  26.171  21.623  0.00  0.00    +0.143 C 
ATOM     31  C   UNL     1       9.474  25.513  22.990  0.00  0.00    +0.133 C 
BRANCH  31  32
ATOM     32  N   UNL     1       8.748  24.235  23.055  0.00  0.00    -0.308 N 
ATOM     33  H   UNL     1       9.074  23.478  22.471  0.00  0.00    +0.149 HD
ATOM     34  C   UNL     1       7.689  24.010  23.837  0.00  0.00    +0.210 C 
ATOM     35  C   UNL     1       7.202  25.192  24.696  0.00  0.00    +0.109 C 
ATOM     36  O   UNL     1       7.110  22.924  23.881  0.00  0.00    -0.276 OA
ENDBRANCH  31  32
BRANCH  28  37
ATOM     37  C   UNL     1      12.274  26.428  20.733  0.00  0.00    +0.414 C 
ATOM     38  O   UNL     1      11.887  26.548  19.571  0.00  0.00    -0.240 OA
ATOM     39  O   UNL     1      13.208  25.664  20.981  0.00  0.00    -0.240 OA
ENDBRANCH  28  37
BRANCH  30  40
ATOM     40  O   UNL     1       7.895  26.466  21.436  0.00  0.00    -0.390 OA
ATOM     41  H   UNL     1       7.367  25.709  21.701  0.00  0.00    +0.210 HD
ENDBRANCH  30  40
BRANCH  28  42
ATOM     42  O   UNL     1      12.245  28.517  22.008  0.00  0.00    -0.343 OA
ATOM     43  C   UNL     1      13.030  28.676  23.218  0.00  0.00    +0.198 C 
ENDBRANCH  28  42
ENDBRANCH  25  26
BRANCH  25  44
ATOM     44  O   UNL     1      10.604  25.298  25.647  0.00  0.00    -0.387 OA
ATOM     45  H   UNL     1      11.088  25.194  26.470  0.00  0.00    +0.210 HD
ENDBRANCH  25  44
ENDBRANCH   1  25
TORSDOF 15
