REMARK VINA RESULT:    -5.421     15.218     17.303
REMARK INTER + INTRA:         -12.668
REMARK INTER:                 -10.228
REMARK INTRA:                  -2.440
REMARK UNBOUND:                -2.810
REMARK  Name = lig_assembled_53.pdb
REMARK  18 active torsions:
REMARK  status: ('A' for Active; 'I' for Inactive)
REMARK    1  A    between atoms: _2  and  _9
REMARK    2  A    between atoms: _4  and  _16
REMARK    3  A    between atoms: _5  and  _9
REMARK    4  A    between atoms: _5  and  _10
REMARK    5  A    between atoms: _6  and  _7
REMARK    6  A    between atoms: _6  and  _16
REMARK    7  A    between atoms: _12  and  _32
REMARK    8  A    between atoms: _14  and  _20
REMARK    9  A    between atoms: _15  and  _19
REMARK   10  A    between atoms: _19  and  _20
REMARK   11  A    between atoms: _22  and  _23
REMARK   12  A    between atoms: _24  and  _25
REMARK   13  A    between atoms: _26  and  _28
REMARK   14  A    between atoms: _28  and  _29
REMARK   15  A    between atoms: _28  and  _30
REMARK   16  A    between atoms: _30  and  _31
REMARK   17  A    between atoms: _30  and  _32
REMARK   18  A    between atoms: _33  and  _35
REMARK                            x       y       z     vdW  Elec       q    Type
REMARK                         _______ _______ _______ _____ _____    ______ ____
ROOT
ATOM      1  C   UNL     1       6.083   4.180  34.396  0.00  0.00    +0.175 C 
ENDROOT
BRANCH   1   2
ATOM      2  C   UNL     1       6.308   5.309  35.412  0.00  0.00    +0.176 C 
ATOM      3  O   UNL     1       7.690   5.239  35.860  0.00  0.00    -0.332 OA
ATOM      4  C   UNL     1       8.119   6.312  36.762  0.00  0.00    +0.277 C 
ATOM      5  C   UNL     1       7.176   6.399  37.987  0.00  0.00    +0.110 C 
ATOM      6  C   UNL     1       5.693   6.444  37.561  0.00  0.00    +0.143 C 
ATOM      7  C   UNL     1       5.356   5.285  36.623  0.00  0.00    +0.133 C 
BRANCH   7   8
ATOM      8  N   UNL     1       3.964   5.388  36.156  0.00  0.00    -0.308 N 
ATOM      9  H   UNL     1       3.736   6.136  35.515  0.00  0.00    +0.149 HD
ATOM     10  C   UNL     1       2.984   4.559  36.522  0.00  0.00    +0.210 C 
ATOM     11  C   UNL     1       3.359   3.446  37.519  0.00  0.00    +0.109 C 
ATOM     12  O   UNL     1       1.830   4.660  36.103  0.00  0.00    -0.276 OA
ENDBRANCH   7   8
BRANCH   4  13
ATOM     13  C   UNL     1       8.138   7.668  36.028  0.00  0.00    +0.414 C 
ATOM     14  O   UNL     1       8.196   8.718  36.666  0.00  0.00    -0.240 OA
ATOM     15  O   UNL     1       8.095   7.713  34.798  0.00  0.00    -0.240 OA
ENDBRANCH   4  13
BRANCH   4  16
ATOM     16  O   UNL     1       9.453   5.994  37.235  0.00  0.00    -0.343 OA
ATOM     17  C   UNL     1       9.557   5.755  38.661  0.00  0.00    +0.198 C 
ENDBRANCH   4  16
BRANCH   6  18
ATOM     18  O   UNL     1       4.857   6.372  38.717  0.00  0.00    -0.390 OA
ATOM     19  H   UNL     1       5.267   5.804  39.374  0.00  0.00    +0.210 HD
ENDBRANCH   6  18
ENDBRANCH   1   2
BRANCH   1  20
ATOM     20  O   UNL     1       5.730   2.960  35.078  0.00  0.00    -0.387 OA
ATOM     21  H   UNL     1       4.775   2.860  35.081  0.00  0.00    +0.210 HD
ENDBRANCH   1  20
BRANCH   1  22
ATOM     22  C   UNL     1       7.315   3.950  33.504  0.00  0.00    +0.163 C 
BRANCH  22  23
ATOM     23  O   UNL     1       7.702   5.164  32.840  0.00  0.00    -0.388 OA
ATOM     24  H   UNL     1       8.591   5.408  33.110  0.00  0.00    +0.210 HD
ENDBRANCH  22  23
BRANCH  22  25
ATOM     25  C   UNL     1       7.004   2.869  32.474  0.00  0.00    +0.141 C 
BRANCH  25  28
ATOM     26  C   UNL     1       4.919   1.815  31.671  0.00  0.00    +0.401 C 
ATOM     27  O   UNL     1       5.405   0.683  31.605  0.00  0.00    -0.226 OA
ATOM     28  N   UNL     1       5.596   2.895  32.061  0.00  0.00    -0.279 N 
ATOM     29  H   UNL     1       5.112   3.783  32.072  0.00  0.00    +0.152 HD
BRANCH  26  30
ATOM     30  O   UNL     1       3.549   2.004  31.307  0.00  0.00    -0.444 OA
BRANCH  30  31
ATOM     31  C   UNL     1       3.112   3.292  31.747  0.00  0.00    +0.292 C 
BRANCH  31  33
ATOM     32  N   UNL     1       1.302   4.879  31.160  0.00  0.00    -0.131 NA
ATOM     33  C   UNL     1       1.771   3.594  31.211  0.00  0.00    +0.120 A 
ATOM     34  C   UNL     1       0.813   2.745  30.705  0.00  0.00    +0.137 A 
ATOM     35  N   UNL     1      -0.240   3.561  30.423  0.00  0.00    -0.241 N 
ATOM     36  N   UNL     1       0.076   4.851  30.656  0.00  0.00    -0.065 NA
BRANCH  35  37
ATOM     37  C   UNL     1      -1.512   3.267  29.796  0.00  0.00    +0.265 C 
BRANCH  37  38
ATOM     38  C   UNL     1      -1.907   4.192  28.676  0.00  0.00    +0.326 C 
ATOM     39  O   UNL     1      -3.043   4.511  28.357  0.00  0.00    -0.249 OA
BRANCH  38  40
ATOM     40  O   UNL     1      -0.833   4.667  27.990  0.00  0.00    -0.479 OA
ATOM     41  H   UNL     1      -0.976   4.837  27.040  0.00  0.00    +0.295 HD
ENDBRANCH  38  40
ENDBRANCH  37  38
ENDBRANCH  35  37
ENDBRANCH  31  33
ENDBRANCH  30  31
ENDBRANCH  26  30
ENDBRANCH  25  28
ENDBRANCH  22  25
ENDBRANCH   1  22
TORSDOF 16
