REMARK VINA RESULT:    -6.564      2.393      4.215
REMARK INTER + INTRA:         -13.189
REMARK INTER:                 -11.444
REMARK INTRA:                  -1.745
REMARK UNBOUND:                -1.828
REMARK  Name = lig_assembled_70.pdb
REMARK  16 active torsions:
REMARK  status: ('A' for Active; 'I' for Inactive)
REMARK    1  A    between atoms: _2  and  _10
REMARK    2  A    between atoms: _5  and  _22
REMARK    3  A    between atoms: _7  and  _8
REMARK    4  A    between atoms: _7  and  _22
REMARK    5  A    between atoms: _18  and  _38
REMARK    6  A    between atoms: _20  and  _26
REMARK    7  A    between atoms: _21  and  _25
REMARK    8  A    between atoms: _25  and  _26
REMARK    9  A    between atoms: _28  and  _29
REMARK   10  A    between atoms: _30  and  _31
REMARK   11  A    between atoms: _32  and  _34
REMARK   12  A    between atoms: _34  and  _35
REMARK   13  A    between atoms: _34  and  _36
REMARK   14  A    between atoms: _36  and  _37
REMARK   15  A    between atoms: _36  and  _38
REMARK   16  A    between atoms: _39  and  _41
REMARK                            x       y       z     vdW  Elec       q    Type
REMARK                         _______ _______ _______ _____ _____    ______ ____
ROOT
ATOM      1  C   UNL     1       2.667   4.839  36.177  0.00  0.00    +0.163 C 
ENDROOT
BRANCH   1   2
ATOM      2  O   UNL     1       1.700   5.414  37.072  0.00  0.00    -0.388 OA
ATOM      3  H   UNL     1       0.926   4.847  37.115  0.00  0.00    +0.210 HD
ENDBRANCH   1   2
BRANCH   1   4
ATOM      4  C   UNL     1       2.092   3.586  35.523  0.00  0.00    +0.141 C 
BRANCH   4   7
ATOM      5  C   UNL     1       3.174   3.038  33.371  0.00  0.00    +0.401 C 
ATOM      6  O   UNL     1       4.091   2.395  33.888  0.00  0.00    -0.226 OA
ATOM      7  N   UNL     1       2.201   3.634  34.060  0.00  0.00    -0.279 N 
ATOM      8  H   UNL     1       1.498   4.147  33.547  0.00  0.00    +0.152 HD
BRANCH   5   9
ATOM      9  O   UNL     1       3.135   3.169  31.948  0.00  0.00    -0.444 OA
BRANCH   9  10
ATOM     10  C   UNL     1       2.116   2.318  31.417  0.00  0.00    +0.292 C 
BRANCH  10  12
ATOM     11  N   UNL     1       0.909   3.758  29.801  0.00  0.00    -0.131 NA
ATOM     12  C   UNL     1       1.767   2.724  30.043  0.00  0.00    +0.121 A 
ATOM     13  C   UNL     1       2.190   2.203  28.843  0.00  0.00    +0.143 A 
ATOM     14  N   UNL     1       1.568   2.967  27.883  0.00  0.00    -0.218 N 
ATOM     15  N   UNL     1       0.788   3.895  28.485  0.00  0.00    -0.060 NA
BRANCH  14  16
ATOM     16  C   UNL     1       1.690   2.881  26.481  0.00  0.00    +0.086 A 
ATOM     17  C   UNL     1       1.808   1.648  25.860  0.00  0.00    +0.139 A 
ATOM     18  N   UNL     1       1.882   1.490  24.513  0.00  0.00    -0.253 NA
ATOM     19  C   UNL     1       1.830   2.588  23.737  0.00  0.00    +0.071 A 
ATOM     20  C   UNL     1       1.727   3.885  24.282  0.00  0.00    +0.002 A 
ATOM     21  C   UNL     1       1.674   5.010  23.439  0.00  0.00    +0.010 A 
ATOM     22  C   UNL     1       1.703   4.854  22.056  0.00  0.00    +0.001 A 
ATOM     23  C   UNL     1       1.796   3.578  21.514  0.00  0.00    +0.002 A 
ATOM     24  C   UNL     1       1.865   2.463  22.355  0.00  0.00    +0.028 A 
ATOM     25  C   UNL     1       1.666   4.019  25.674  0.00  0.00    +0.039 A 
ENDBRANCH  14  16
ENDBRANCH  10  12
ENDBRANCH   9  10
ENDBRANCH   5   9
ENDBRANCH   4   7
ENDBRANCH   1   4
BRANCH   1  26
ATOM     26  C   UNL     1       3.963   4.480  36.924  0.00  0.00    +0.175 C 
BRANCH  26  27
ATOM     27  C   UNL     1       5.104   5.456  36.603  0.00  0.00    +0.176 C 
ATOM     28  O   UNL     1       5.945   4.842  35.588  0.00  0.00    -0.332 OA
ATOM     29  C   UNL     1       7.035   5.679  35.076  0.00  0.00    +0.277 C 
ATOM     30  C   UNL     1       7.914   6.196  36.242  0.00  0.00    +0.110 C 
ATOM     31  C   UNL     1       7.060   6.829  37.361  0.00  0.00    +0.143 C 
ATOM     32  C   UNL     1       5.956   5.874  37.816  0.00  0.00    +0.133 C 
BRANCH  32  33
ATOM     33  N   UNL     1       5.097   6.521  38.820  0.00  0.00    -0.308 N 
ATOM     34  H   UNL     1       4.646   7.389  38.566  0.00  0.00    +0.149 HD
ATOM     35  C   UNL     1       4.874   6.037  40.044  0.00  0.00    +0.210 C 
ATOM     36  C   UNL     1       5.596   4.726  40.410  0.00  0.00    +0.109 C 
ATOM     37  O   UNL     1       4.137   6.593  40.860  0.00  0.00    -0.276 OA
ENDBRANCH  32  33
BRANCH  29  38
ATOM     38  C   UNL     1       6.477   6.878  34.281  0.00  0.00    +0.414 C 
ATOM     39  O   UNL     1       5.265   6.998  34.109  0.00  0.00    -0.240 OA
ATOM     40  O   UNL     1       7.239   7.725  33.812  0.00  0.00    -0.240 OA
ENDBRANCH  29  38
BRANCH  31  41
ATOM     41  O   UNL     1       7.892   7.152  38.476  0.00  0.00    -0.390 OA
ATOM     42  H   UNL     1       8.199   8.058  38.395  0.00  0.00    +0.210 HD
ENDBRANCH  31  41
BRANCH  29  43
ATOM     43  O   UNL     1       7.861   4.860  34.209  0.00  0.00    -0.343 OA
ATOM     44  C   UNL     1       7.154   3.809  33.503  0.00  0.00    +0.198 C 
ENDBRANCH  29  43
ENDBRANCH  26  27
BRANCH  26  45
ATOM     45  O   UNL     1       4.360   3.131  36.609  0.00  0.00    -0.387 OA
ATOM     46  H   UNL     1       4.760   3.110  35.737  0.00  0.00    +0.210 HD
ENDBRANCH  26  45
ENDBRANCH   1  26
TORSDOF 14
