REMARK VINA RESULT:    -6.352      4.527      5.940
REMARK INTER + INTRA:         -14.338
REMARK INTER:                 -12.092
REMARK INTRA:                  -2.246
REMARK UNBOUND:                -2.230
REMARK  Name = lig_assembled_9.pdb
REMARK  20 active torsions:
REMARK  status: ('A' for Active; 'I' for Inactive)
REMARK    1  A    between atoms: _2  and  _9
REMARK    2  A    between atoms: _4  and  _23
REMARK    3  A    between atoms: _6  and  _7
REMARK    4  A    between atoms: _6  and  _23
REMARK    5  A    between atoms: _11  and  _12
REMARK    6  A    between atoms: _12  and  _17
REMARK    7  A    between atoms: _13  and  _14
REMARK    8  A    between atoms: _13  and  _17
REMARK    9  A    between atoms: _19  and  _39
REMARK   10  A    between atoms: _21  and  _27
REMARK   11  A    between atoms: _22  and  _26
REMARK   12  A    between atoms: _26  and  _27
REMARK   13  A    between atoms: _29  and  _30
REMARK   14  A    between atoms: _31  and  _32
REMARK   15  A    between atoms: _33  and  _35
REMARK   16  A    between atoms: _35  and  _36
REMARK   17  A    between atoms: _35  and  _37
REMARK   18  A    between atoms: _37  and  _38
REMARK   19  A    between atoms: _37  and  _39
REMARK   20  A    between atoms: _40  and  _42
REMARK                            x       y       z     vdW  Elec       q    Type
REMARK                         _______ _______ _______ _____ _____    ______ ____
ROOT
ATOM      1  C   UNL     1       7.521   2.384  34.334  0.00  0.00    +0.163 C 
ENDROOT
BRANCH   1   2
ATOM      2  O   UNL     1       8.124   2.388  35.638  0.00  0.00    -0.388 OA
ATOM      3  H   UNL     1       7.588   1.867  36.241  0.00  0.00    +0.210 HD
ENDBRANCH   1   2
BRANCH   1   4
ATOM      4  C   UNL     1       7.782   3.712  33.602  0.00  0.00    +0.175 C 
BRANCH   4   5
ATOM      5  C   UNL     1       7.141   4.906  34.325  0.00  0.00    +0.176 C 
ATOM      6  O   UNL     1       7.874   5.126  35.562  0.00  0.00    -0.332 OA
ATOM      7  C   UNL     1       7.467   6.300  36.340  0.00  0.00    +0.277 C 
ATOM      8  C   UNL     1       5.947   6.254  36.633  0.00  0.00    +0.110 C 
ATOM      9  C   UNL     1       5.127   5.990  35.352  0.00  0.00    +0.143 C 
ATOM     10  C   UNL     1       5.638   4.748  34.621  0.00  0.00    +0.133 C 
BRANCH  10  11
ATOM     11  N   UNL     1       4.906   4.557  33.358  0.00  0.00    -0.308 N 
ATOM     12  H   UNL     1       5.076   5.215  32.611  0.00  0.00    +0.149 HD
ATOM     13  C   UNL     1       4.033   3.571  33.136  0.00  0.00    +0.210 C 
ATOM     14  C   UNL     1       3.777   2.600  34.304  0.00  0.00    +0.109 C 
ATOM     15  O   UNL     1       3.446   3.427  32.063  0.00  0.00    -0.276 OA
ENDBRANCH  10  11
BRANCH   7  16
ATOM     16  C   UNL     1       7.807   7.601  35.584  0.00  0.00    +0.414 C 
ATOM     17  O   UNL     1       8.919   8.114  35.701  0.00  0.00    -0.240 OA
ATOM     18  O   UNL     1       6.969   8.139  34.858  0.00  0.00    -0.240 OA
ENDBRANCH   7  16
BRANCH   7  19
ATOM     19  O   UNL     1       8.178   6.269  37.604  0.00  0.00    -0.343 OA
ATOM     20  C   UNL     1       8.104   5.009  38.317  0.00  0.00    +0.198 C 
ENDBRANCH   7  19
BRANCH   9  21
ATOM     21  O   UNL     1       3.752   5.805  35.690  0.00  0.00    -0.390 OA
ATOM     22  H   UNL     1       3.298   5.373  34.963  0.00  0.00    +0.210 HD
ENDBRANCH   9  21
ENDBRANCH   4   5
BRANCH   4  23
ATOM     23  O   UNL     1       7.300   3.635  32.246  0.00  0.00    -0.387 OA
ATOM     24  H   UNL     1       6.552   4.228  32.138  0.00  0.00    +0.210 HD
ENDBRANCH   4  23
ENDBRANCH   1   4
BRANCH   1  25
ATOM     25  C   UNL     1       8.074   1.229  33.506  0.00  0.00    +0.141 C 
BRANCH  25  28
ATOM     26  C   UNL     1       6.083   0.167  32.499  0.00  0.00    +0.401 C 
ATOM     27  O   UNL     1       5.849   1.110  31.739  0.00  0.00    -0.226 OA
ATOM     28  N   UNL     1       7.099   0.141  33.362  0.00  0.00    -0.279 N 
ATOM     29  H   UNL     1       7.203  -0.673  33.951  0.00  0.00    +0.152 HD
BRANCH  26  30
ATOM     30  O   UNL     1       5.224  -0.976  32.473  0.00  0.00    -0.444 OA
BRANCH  30  31
ATOM     31  C   UNL     1       5.956  -2.113  32.008  0.00  0.00    +0.292 C 
BRANCH  31  33
ATOM     32  N   UNL     1       7.399  -2.052  29.997  0.00  0.00    -0.131 NA
ATOM     33  C   UNL     1       6.151  -2.033  30.548  0.00  0.00    +0.121 A 
ATOM     34  C   UNL     1       5.217  -1.943  29.543  0.00  0.00    +0.143 A 
ATOM     35  N   UNL     1       5.949  -1.949  28.377  0.00  0.00    -0.220 N 
ATOM     36  N   UNL     1       7.269  -1.993  28.679  0.00  0.00    -0.060 NA
BRANCH  35  37
ATOM     37  C   UNL     1       5.483  -1.947  27.037  0.00  0.00    +0.068 A 
ATOM     38  C   UNL     1       6.156  -2.675  26.047  0.00  0.00    +0.042 A 
ATOM     39  C   UNL     1       5.710  -2.644  24.717  0.00  0.00    +0.061 A 
ATOM     40  C   UNL     1       4.583  -1.884  24.382  0.00  0.00    +0.015 A 
ATOM     41  C   UNL     1       3.902  -1.168  25.368  0.00  0.00    +0.003 A 
ATOM     42  C   UNL     1       4.347  -1.199  26.691  0.00  0.00    +0.028 A 
BRANCH  39  43
ATOM     43  C   UNL     1       6.359  -3.449  23.649  0.00  0.00    +0.339 C 
ATOM     44  O   UNL     1       7.520  -3.823  23.694  0.00  0.00    -0.245 OA
BRANCH  43  45
ATOM     45  O   UNL     1       5.505  -3.603  22.608  0.00  0.00    -0.461 OA
BRANCH  45  46
ATOM     46  C   UNL     1       5.772  -4.720  21.750  0.00  0.00    +0.229 C 
ATOM     47  C   UNL     1       4.673  -5.745  21.960  0.00  0.00    +0.048 C 
ENDBRANCH  45  46
ENDBRANCH  43  45
ENDBRANCH  39  43
ENDBRANCH  35  37
ENDBRANCH  31  33
ENDBRANCH  30  31
ENDBRANCH  26  30
ENDBRANCH  25  28
ENDBRANCH   1  25
TORSDOF 17
