REMARK VINA RESULT:    -6.382     14.182     18.234
REMARK INTER + INTRA:         -13.163
REMARK INTER:                 -11.214
REMARK INTRA:                  -1.948
REMARK UNBOUND:                -2.118
REMARK  Name = lig_assembled_7.pdb
REMARK  19 active torsions:
REMARK  status: ('A' for Active; 'I' for Inactive)
REMARK    1  A    between atoms: _2  and  _9
REMARK    2  A    between atoms: _4  and  _21
REMARK    3  A    between atoms: _5  and  _16
REMARK    4  A    between atoms: _6  and  _7
REMARK    5  A    between atoms: _6  and  _21
REMARK    6  A    between atoms: _10  and  _11
REMARK    7  A    between atoms: _13  and  _14
REMARK    8  A    between atoms: _17  and  _37
REMARK    9  A    between atoms: _19  and  _25
REMARK   10  A    between atoms: _20  and  _24
REMARK   11  A    between atoms: _24  and  _25
REMARK   12  A    between atoms: _27  and  _28
REMARK   13  A    between atoms: _29  and  _30
REMARK   14  A    between atoms: _31  and  _33
REMARK   15  A    between atoms: _33  and  _34
REMARK   16  A    between atoms: _33  and  _35
REMARK   17  A    between atoms: _35  and  _36
REMARK   18  A    between atoms: _35  and  _37
REMARK   19  A    between atoms: _38  and  _40
REMARK                            x       y       z     vdW  Elec       q    Type
REMARK                         _______ _______ _______ _____ _____    ______ ____
ROOT
ATOM      1  C   UNL     1      16.593   1.069  26.217  0.00  0.00    +0.163 C 
ENDROOT
BRANCH   1   2
ATOM      2  O   UNL     1      15.599   0.268  26.877  0.00  0.00    -0.388 OA
ATOM      3  H   UNL     1      16.028  -0.341  27.482  0.00  0.00    +0.210 HD
ENDBRANCH   1   2
BRANCH   1   4
ATOM      4  C   UNL     1      16.563   2.492  26.763  0.00  0.00    +0.141 C 
BRANCH   4   7
ATOM      5  C   UNL     1      18.731   3.589  26.311  0.00  0.00    +0.401 C 
ATOM      6  O   UNL     1      18.468   3.834  25.131  0.00  0.00    -0.226 OA
ATOM      7  N   UNL     1      17.901   2.960  27.145  0.00  0.00    -0.279 N 
ATOM      8  H   UNL     1      18.211   2.796  28.092  0.00  0.00    +0.152 HD
BRANCH   5   9
ATOM      9  O   UNL     1      19.998   3.991  26.838  0.00  0.00    -0.444 OA
BRANCH   9  10
ATOM     10  C   UNL     1      20.288   5.327  26.420  0.00  0.00    +0.292 C 
BRANCH  10  12
ATOM     11  N   UNL     1      21.243   6.711  28.223  0.00  0.00    -0.131 NA
ATOM     12  C   UNL     1      20.148   6.259  27.554  0.00  0.00    +0.121 A 
ATOM     13  C   UNL     1      19.019   6.821  28.118  0.00  0.00    +0.143 A 
ATOM     14  N   UNL     1      19.477   7.582  29.173  0.00  0.00    -0.219 N 
ATOM     15  N   UNL     1      20.833   7.529  29.178  0.00  0.00    -0.060 NA
BRANCH  14  16
ATOM     16  C   UNL     1      18.741   8.342  30.139  0.00  0.00    +0.073 A 
ATOM     17  C   UNL     1      18.278   7.700  31.329  0.00  0.00    -0.024 A 
ATOM     18  C   UNL     1      17.553   8.441  32.287  0.00  0.00    +0.008 A 
ATOM     19  C   UNL     1      17.281   9.795  32.108  0.00  0.00    -0.050 A 
ATOM     20  C   UNL     1      16.509  10.552  33.147  0.00  0.00    +0.044 C 
ATOM     21  C   UNL     1      17.735  10.416  30.948  0.00  0.00    +0.008 A 
ATOM     22  C   UNL     1      18.552   6.255  31.686  0.00  0.00    +0.046 C 
ATOM     23  C   UNL     1      18.443   9.715  29.944  0.00  0.00    -0.024 A 
ATOM     24  C   UNL     1      18.732  10.543  28.717  0.00  0.00    +0.046 C 
ENDBRANCH  14  16
ENDBRANCH  10  12
ENDBRANCH   9  10
ENDBRANCH   5   9
ENDBRANCH   4   7
ENDBRANCH   1   4
BRANCH   1  25
ATOM     25  C   UNL     1      16.356   1.096  24.697  0.00  0.00    +0.175 C 
BRANCH  25  26
ATOM     26  C   UNL     1      17.512   0.447  23.921  0.00  0.00    +0.176 C 
ATOM     27  O   UNL     1      17.581   1.078  22.612  0.00  0.00    -0.332 OA
ATOM     28  C   UNL     1      18.700   0.657  21.764  0.00  0.00    +0.277 C 
ATOM     29  C   UNL     1      18.707  -0.883  21.603  0.00  0.00    +0.110 C 
ATOM     30  C   UNL     1      18.603  -1.598  22.967  0.00  0.00    +0.143 C 
ATOM     31  C   UNL     1      17.407  -1.081  23.767  0.00  0.00    +0.133 C 
BRANCH  31  32
ATOM     32  N   UNL     1      17.369  -1.707  25.098  0.00  0.00    -0.308 N 
ATOM     33  H   UNL     1      18.060  -1.418  25.776  0.00  0.00    +0.149 HD
ATOM     34  C   UNL     1      16.480  -2.633  25.469  0.00  0.00    +0.210 C 
ATOM     35  C   UNL     1      15.456  -3.072  24.406  0.00  0.00    +0.109 C 
ATOM     36  O   UNL     1      16.463  -3.130  26.596  0.00  0.00    -0.276 OA
ENDBRANCH  31  32
BRANCH  28  37
ATOM     37  C   UNL     1      20.045   1.119  22.363  0.00  0.00    +0.414 C 
ATOM     38  O   UNL     1      20.995   0.340  22.429  0.00  0.00    -0.240 OA
ATOM     39  O   UNL     1      20.180   2.270  22.779  0.00  0.00    -0.240 OA
ENDBRANCH  28  37
BRANCH  30  40
ATOM     40  O   UNL     1      18.460  -3.005  22.763  0.00  0.00    -0.390 OA
ATOM     41  H   UNL     1      19.232  -3.342  22.303  0.00  0.00    +0.210 HD
ENDBRANCH  30  40
BRANCH  28  42
ATOM     42  O   UNL     1      18.519   1.253  20.453  0.00  0.00    -0.343 OA
ATOM     43  C   UNL     1      17.177   1.729  20.177  0.00  0.00    +0.198 C 
ENDBRANCH  28  42
ENDBRANCH  25  26
BRANCH  25  44
ATOM     44  O   UNL     1      16.157   2.452  24.250  0.00  0.00    -0.387 OA
ATOM     45  H   UNL     1      15.237   2.575  24.002  0.00  0.00    +0.210 HD
ENDBRANCH  25  44
ENDBRANCH   1  25
TORSDOF 14
