REMARK VINA RESULT:    -5.387     10.431     14.234
REMARK INTER + INTRA:         -13.815
REMARK INTER:                 -11.961
REMARK INTRA:                  -1.854
REMARK UNBOUND:                -3.545
REMARK  Name = lig_assembled_55.pdb
REMARK  20 active torsions:
REMARK  status: ('A' for Active; 'I' for Inactive)
REMARK    1  A    between atoms: _2  and  _10
REMARK    2  A    between atoms: _3  and  _11
REMARK    3  A    between atoms: _3  and  _38
REMARK    4  A    between atoms: _5  and  _18
REMARK    5  A    between atoms: _6  and  _38
REMARK    6  A    between atoms: _7  and  _8
REMARK    7  A    between atoms: _7  and  _18
REMARK    8  A    between atoms: _10  and  _11
REMARK    9  A    between atoms: _14  and  _34
REMARK   10  A    between atoms: _16  and  _22
REMARK   11  A    between atoms: _17  and  _21
REMARK   12  A    between atoms: _21  and  _22
REMARK   13  A    between atoms: _24  and  _25
REMARK   14  A    between atoms: _26  and  _27
REMARK   15  A    between atoms: _28  and  _30
REMARK   16  A    between atoms: _30  and  _31
REMARK   17  A    between atoms: _30  and  _32
REMARK   18  A    between atoms: _32  and  _33
REMARK   19  A    between atoms: _32  and  _34
REMARK   20  A    between atoms: _35  and  _37
REMARK                            x       y       z     vdW  Elec       q    Type
REMARK                         _______ _______ _______ _____ _____    ______ ____
ROOT
ATOM      1  C   UNL     1      16.648   1.114  26.226  0.00  0.00    +0.163 C 
ENDROOT
BRANCH   1   2
ATOM      2  O   UNL     1      15.797   0.153  26.872  0.00  0.00    -0.388 OA
ATOM      3  H   UNL     1      14.886   0.304  26.610  0.00  0.00    +0.210 HD
ENDBRANCH   1   2
BRANCH   1   4
ATOM      4  C   UNL     1      16.395   1.142  24.709  0.00  0.00    +0.175 C 
BRANCH   4   5
ATOM      5  C   UNL     1      17.542   0.494  23.920  0.00  0.00    +0.176 C 
ATOM      6  O   UNL     1      17.591   1.120  22.608  0.00  0.00    -0.332 OA
ATOM      7  C   UNL     1      18.700   0.698  21.746  0.00  0.00    +0.277 C 
ATOM      8  C   UNL     1      18.709  -0.842  21.592  0.00  0.00    +0.110 C 
ATOM      9  C   UNL     1      18.626  -1.553  22.959  0.00  0.00    +0.143 C 
ATOM     10  C   UNL     1      17.439  -1.036  23.774  0.00  0.00    +0.133 C 
BRANCH  10  11
ATOM     11  N   UNL     1      17.421  -1.657  25.108  0.00  0.00    -0.308 N 
ATOM     12  H   UNL     1      18.136  -1.380  25.767  0.00  0.00    +0.149 HD
ATOM     13  C   UNL     1      16.523  -2.562  25.505  0.00  0.00    +0.210 C 
ATOM     14  C   UNL     1      15.463  -2.982  24.469  0.00  0.00    +0.109 C 
ATOM     15  O   UNL     1      16.523  -3.054  26.634  0.00  0.00    -0.276 OA
ENDBRANCH  10  11
BRANCH   7  16
ATOM     16  C   UNL     1      20.051   1.167  22.325  0.00  0.00    +0.414 C 
ATOM     17  O   UNL     1      21.008   0.394  22.370  0.00  0.00    -0.240 OA
ATOM     18  O   UNL     1      20.185   2.317  22.746  0.00  0.00    -0.240 OA
ENDBRANCH   7  16
BRANCH   7  19
ATOM     19  O   UNL     1      18.499   1.288  20.436  0.00  0.00    -0.343 OA
ATOM     20  C   UNL     1      17.146   1.734  20.167  0.00  0.00    +0.198 C 
ENDBRANCH   7  19
BRANCH   9  21
ATOM     21  O   UNL     1      18.485  -2.960  22.763  0.00  0.00    -0.390 OA
ATOM     22  H   UNL     1      18.027  -3.344  23.514  0.00  0.00    +0.210 HD
ENDBRANCH   9  21
ENDBRANCH   4   5
BRANCH   4  23
ATOM     23  O   UNL     1      16.190   2.498  24.265  0.00  0.00    -0.387 OA
ATOM     24  H   UNL     1      15.330   2.571  23.845  0.00  0.00    +0.210 HD
ENDBRANCH   4  23
ENDBRANCH   1   4
BRANCH   1  25
ATOM     25  C   UNL     1      16.403   2.502  26.810  0.00  0.00    +0.141 C 
BRANCH  25  28
ATOM     26  C   UNL     1      18.385   3.704  27.666  0.00  0.00    +0.401 C 
ATOM     27  O   UNL     1      18.230   3.323  28.829  0.00  0.00    -0.226 OA
ATOM     28  N   UNL     1      17.575   3.373  26.660  0.00  0.00    -0.279 N 
ATOM     29  H   UNL     1      17.780   3.743  25.742  0.00  0.00    +0.152 HD
BRANCH  26  30
ATOM     30  O   UNL     1      19.491   4.555  27.356  0.00  0.00    -0.444 OA
BRANCH  30  31
ATOM     31  C   UNL     1      19.098   5.507  26.364  0.00  0.00    +0.292 C 
BRANCH  31  33
ATOM     32  N   UNL     1      19.633   7.109  28.170  0.00  0.00    -0.131 NA
ATOM     33  C   UNL     1      19.116   6.871  26.923  0.00  0.00    +0.120 A 
ATOM     34  C   UNL     1      18.672   8.060  26.386  0.00  0.00    +0.137 A 
ATOM     35  N   UNL     1      18.928   8.977  27.360  0.00  0.00    -0.250 N 
ATOM     36  N   UNL     1      19.509   8.402  28.429  0.00  0.00    -0.065 NA
BRANCH  35  37
ATOM     37  C   UNL     1      18.678  10.402  27.335  0.00  0.00    +0.162 C 
BRANCH  37  38
ATOM     38  C   UNL     1      18.597  11.041  28.726  0.00  0.00    +0.129 C 
BRANCH  38  39
ATOM     39  N   UNL     1      17.446  10.557  29.542  0.00  0.00    -0.193 NA
ATOM     40  H   UNL     1      17.003   9.745  29.093  0.00  0.00    +0.148 HD
BRANCH  39  41
ATOM     41  S   UNL     1      17.743  10.318  31.182  0.00  0.00    +0.027 S 
ATOM     42  O   UNL     1      19.116  10.709  31.417  0.00  0.00    -0.158 OA
ATOM     43  O   UNL     1      16.654  10.921  31.917  0.00  0.00    -0.158 OA
ATOM     44  C   UNL     1      17.636   8.548  31.311  0.00  0.00    +0.214 C 
ENDBRANCH  39  41
ENDBRANCH  38  39
ENDBRANCH  37  38
ENDBRANCH  35  37
ENDBRANCH  31  33
ENDBRANCH  30  31
ENDBRANCH  26  30
ENDBRANCH  25  28
ENDBRANCH   1  25
TORSDOF 17
