REMARK VINA RESULT:    -5.308      9.699     14.179
REMARK INTER + INTRA:         -13.662
REMARK INTER:                 -11.200
REMARK INTRA:                  -2.462
REMARK UNBOUND:                -3.545
REMARK  Name = lig_assembled_55.pdb
REMARK  20 active torsions:
REMARK  status: ('A' for Active; 'I' for Inactive)
REMARK    1  A    between atoms: _2  and  _10
REMARK    2  A    between atoms: _3  and  _11
REMARK    3  A    between atoms: _3  and  _38
REMARK    4  A    between atoms: _5  and  _18
REMARK    5  A    between atoms: _6  and  _38
REMARK    6  A    between atoms: _7  and  _8
REMARK    7  A    between atoms: _7  and  _18
REMARK    8  A    between atoms: _10  and  _11
REMARK    9  A    between atoms: _14  and  _34
REMARK   10  A    between atoms: _16  and  _22
REMARK   11  A    between atoms: _17  and  _21
REMARK   12  A    between atoms: _21  and  _22
REMARK   13  A    between atoms: _24  and  _25
REMARK   14  A    between atoms: _26  and  _27
REMARK   15  A    between atoms: _28  and  _30
REMARK   16  A    between atoms: _30  and  _31
REMARK   17  A    between atoms: _30  and  _32
REMARK   18  A    between atoms: _32  and  _33
REMARK   19  A    between atoms: _32  and  _34
REMARK   20  A    between atoms: _35  and  _37
REMARK                            x       y       z     vdW  Elec       q    Type
REMARK                         _______ _______ _______ _____ _____    ______ ____
ROOT
ATOM      1  C   UNL     1      17.075   2.477  22.958  0.00  0.00    +0.163 C 
ENDROOT
BRANCH   1   2
ATOM      2  O   UNL     1      17.685   1.632  21.969  0.00  0.00    -0.388 OA
ATOM      3  H   UNL     1      17.561   2.017  21.098  0.00  0.00    +0.210 HD
ENDBRANCH   1   2
BRANCH   1   4
ATOM      4  C   UNL     1      17.493   2.053  24.377  0.00  0.00    +0.175 C 
BRANCH   4   5
ATOM      5  C   UNL     1      17.881   0.569  24.446  0.00  0.00    +0.176 C 
ATOM      6  O   UNL     1      16.705  -0.217  24.110  0.00  0.00    -0.332 OA
ATOM      7  C   UNL     1      16.914  -1.665  24.021  0.00  0.00    +0.277 C 
ATOM      8  C   UNL     1      17.545  -2.202  25.329  0.00  0.00    +0.110 C 
ATOM      9  C   UNL     1      18.782  -1.377  25.744  0.00  0.00    +0.143 C 
ATOM     10  C   UNL     1      18.453   0.115  25.802  0.00  0.00    +0.133 C 
BRANCH  10  11
ATOM     11  N   UNL     1      19.660   0.897  26.113  0.00  0.00    -0.308 N 
ATOM     12  H   UNL     1      20.455   0.803  25.497  0.00  0.00    +0.149 HD
ATOM     13  C   UNL     1      19.773   1.723  27.157  0.00  0.00    +0.210 C 
ATOM     14  C   UNL     1      18.553   1.824  28.092  0.00  0.00    +0.109 C 
ATOM     15  O   UNL     1      20.791   2.377  27.385  0.00  0.00    -0.276 OA
ENDBRANCH  10  11
BRANCH   7  16
ATOM     16  C   UNL     1      17.826  -2.014  22.827  0.00  0.00    +0.414 C 
ATOM     17  O   UNL     1      18.008  -1.196  21.925  0.00  0.00    -0.240 OA
ATOM     18  O   UNL     1      18.381  -3.112  22.765  0.00  0.00    -0.240 OA
ENDBRANCH   7  16
BRANCH   7  19
ATOM     19  O   UNL     1      15.619  -2.295  23.846  0.00  0.00    -0.343 OA
ATOM     20  C   UNL     1      15.420  -3.510  24.613  0.00  0.00    +0.198 C 
ENDBRANCH   7  19
BRANCH   9  21
ATOM     21  O   UNL     1      19.240  -1.808  27.026  0.00  0.00    -0.390 OA
ATOM     22  H   UNL     1      20.023  -1.310  27.271  0.00  0.00    +0.210 HD
ENDBRANCH   9  21
ENDBRANCH   4   5
BRANCH   4  23
ATOM     23  O   UNL     1      16.432   2.334  25.312  0.00  0.00    -0.387 OA
ATOM     24  H   UNL     1      16.735   2.977  25.957  0.00  0.00    +0.210 HD
ENDBRANCH   4  23
ENDBRANCH   1   4
BRANCH   1  25
ATOM     25  C   UNL     1      17.476   3.930  22.721  0.00  0.00    +0.141 C 
BRANCH  25  28
ATOM     26  C   UNL     1      18.647   5.741  23.927  0.00  0.00    +0.401 C 
ATOM     27  O   UNL     1      18.354   6.608  23.101  0.00  0.00    -0.226 OA
ATOM     28  N   UNL     1      18.283   4.462  23.826  0.00  0.00    -0.279 N 
ATOM     29  H   UNL     1      18.580   3.823  24.551  0.00  0.00    +0.152 HD
BRANCH  26  30
ATOM     30  O   UNL     1      19.426   6.105  25.070  0.00  0.00    -0.444 OA
BRANCH  30  31
ATOM     31  C   UNL     1      19.054   5.287  26.182  0.00  0.00    +0.292 C 
BRANCH  31  33
ATOM     32  N   UNL     1      19.048   7.456  27.371  0.00  0.00    -0.131 NA
ATOM     33  C   UNL     1      19.019   6.086  27.421  0.00  0.00    +0.120 A 
ATOM     34  C   UNL     1      18.961   5.685  28.738  0.00  0.00    +0.137 A 
ATOM     35  N   UNL     1      18.976   6.853  29.439  0.00  0.00    -0.250 N 
ATOM     36  N   UNL     1      19.026   7.915  28.613  0.00  0.00    -0.065 NA
BRANCH  35  37
ATOM     37  C   UNL     1      18.919   7.038  30.873  0.00  0.00    +0.162 C 
BRANCH  37  38
ATOM     38  C   UNL     1      18.041   8.216  31.311  0.00  0.00    +0.129 C 
BRANCH  38  39
ATOM     39  N   UNL     1      16.647   7.823  31.669  0.00  0.00    -0.193 NA
ATOM     40  H   UNL     1      16.442   6.875  31.330  0.00  0.00    +0.148 HD
BRANCH  39  41
ATOM     41  S   UNL     1      16.197   8.057  33.275  0.00  0.00    +0.027 S 
ATOM     42  O   UNL     1      15.164   7.087  33.564  0.00  0.00    -0.158 OA
ATOM     43  O   UNL     1      17.408   8.124  34.063  0.00  0.00    -0.158 OA
ATOM     44  C   UNL     1      15.447   9.667  33.205  0.00  0.00    +0.214 C 
ENDBRANCH  39  41
ENDBRANCH  38  39
ENDBRANCH  37  38
ENDBRANCH  35  37
ENDBRANCH  31  33
ENDBRANCH  30  31
ENDBRANCH  26  30
ENDBRANCH  25  28
ENDBRANCH   1  25
TORSDOF 17
