REMARK VINA RESULT:    -5.856      2.201      3.364
REMARK INTER + INTRA:         -13.172
REMARK INTER:                 -11.407
REMARK INTRA:                  -1.765
REMARK UNBOUND:                -1.667
REMARK  Name = lig_assembled_43.pdb
REMARK  20 active torsions:
REMARK  status: ('A' for Active; 'I' for Inactive)
REMARK    1  A    between atoms: _2  and  _9
REMARK    2  A    between atoms: _4  and  _18
REMARK    3  A    between atoms: _6  and  _7
REMARK    4  A    between atoms: _6  and  _18
REMARK    5  A    between atoms: _9  and  _10
REMARK    6  A    between atoms: _10  and  _11
REMARK    7  A    between atoms: _11  and  _12
REMARK    8  A    between atoms: _12  and  _13
REMARK    9  A    between atoms: _14  and  _34
REMARK   10  A    between atoms: _16  and  _22
REMARK   11  A    between atoms: _17  and  _21
REMARK   12  A    between atoms: _21  and  _22
REMARK   13  A    between atoms: _24  and  _25
REMARK   14  A    between atoms: _26  and  _27
REMARK   15  A    between atoms: _28  and  _30
REMARK   16  A    between atoms: _30  and  _31
REMARK   17  A    between atoms: _30  and  _32
REMARK   18  A    between atoms: _32  and  _33
REMARK   19  A    between atoms: _32  and  _34
REMARK   20  A    between atoms: _35  and  _37
REMARK                            x       y       z     vdW  Elec       q    Type
REMARK                         _______ _______ _______ _____ _____    ______ ____
ROOT
ATOM      1  C   UNL     1       5.987   2.557  32.740  0.00  0.00    +0.163 C 
ENDROOT
BRANCH   1   2
ATOM      2  O   UNL     1       6.280   3.270  31.528  0.00  0.00    -0.388 OA
ATOM      3  H   UNL     1       5.494   3.304  30.978  0.00  0.00    +0.210 HD
ENDBRANCH   1   2
BRANCH   1   4
ATOM      4  C   UNL     1       6.024   3.499  33.956  0.00  0.00    +0.175 C 
BRANCH   4   5
ATOM      5  C   UNL     1       7.413   3.543  34.610  0.00  0.00    +0.176 C 
ATOM      6  O   UNL     1       7.650   2.256  35.244  0.00  0.00    -0.332 OA
ATOM      7  C   UNL     1       8.980   2.075  35.834  0.00  0.00    +0.277 C 
ATOM      8  C   UNL     1       9.288   3.216  36.835  0.00  0.00    +0.110 C 
ATOM      9  C   UNL     1       9.020   4.604  36.216  0.00  0.00    +0.143 C 
ATOM     10  C   UNL     1       7.610   4.680  35.630  0.00  0.00    +0.133 C 
BRANCH  10  11
ATOM     11  N   UNL     1       7.397   5.977  34.967  0.00  0.00    -0.308 N 
ATOM     12  H   UNL     1       8.054   6.254  34.251  0.00  0.00    +0.149 HD
ATOM     13  C   UNL     1       6.392   6.811  35.249  0.00  0.00    +0.210 C 
ATOM     14  C   UNL     1       5.423   6.371  36.362  0.00  0.00    +0.109 C 
ATOM     15  O   UNL     1       6.230   7.884  34.667  0.00  0.00    -0.276 OA
ENDBRANCH  10  11
BRANCH   7  16
ATOM     16  C   UNL     1      10.066   2.045  34.738  0.00  0.00    +0.414 C 
ATOM     17  O   UNL     1       9.860   1.454  33.678  0.00  0.00    -0.240 OA
ATOM     18  O   UNL     1      11.146   2.610  34.913  0.00  0.00    -0.240 OA
ENDBRANCH   7  16
BRANCH   9  19
ATOM     19  O   UNL     1       9.169   5.614  37.215  0.00  0.00    -0.390 OA
ATOM     20  H   UNL     1       9.443   6.436  36.801  0.00  0.00    +0.210 HD
ENDBRANCH   9  19
BRANCH   7  21
ATOM     21  O   UNL     1       8.983   0.818  36.558  0.00  0.00    -0.343 OA
ATOM     22  C   UNL     1       7.672   0.329  36.941  0.00  0.00    +0.198 C 
ENDBRANCH   7  21
ENDBRANCH   4   5
BRANCH   4  23
ATOM     23  O   UNL     1       5.032   3.101  34.923  0.00  0.00    -0.387 OA
ATOM     24  H   UNL     1       5.356   3.286  35.808  0.00  0.00    +0.210 HD
ENDBRANCH   4  23
ENDBRANCH   1   4
BRANCH   1  25
ATOM     25  C   UNL     1       4.611   1.905  32.643  0.00  0.00    +0.141 C 
BRANCH  25  28
ATOM     26  C   UNL     1       2.743   3.496  32.350  0.00  0.00    +0.401 C 
ATOM     27  O   UNL     1       2.546   3.632  33.560  0.00  0.00    -0.226 OA
ATOM     28  N   UNL     1       3.683   2.704  31.833  0.00  0.00    -0.279 N 
ATOM     29  H   UNL     1       3.762   2.651  30.827  0.00  0.00    +0.152 HD
BRANCH  26  30
ATOM     30  O   UNL     1       1.923   4.218  31.427  0.00  0.00    -0.444 OA
BRANCH  30  31
ATOM     31  C   UNL     1       0.997   3.321  30.808  0.00  0.00    +0.292 C 
BRANCH  31  33
ATOM     32  N   UNL     1      -0.094   4.001  28.692  0.00  0.00    -0.131 NA
ATOM     33  C   UNL     1       1.004   3.505  29.345  0.00  0.00    +0.120 A 
ATOM     34  C   UNL     1       1.995   3.244  28.425  0.00  0.00    +0.137 A 
ATOM     35  N   UNL     1       1.434   3.597  27.235  0.00  0.00    -0.251 N 
ATOM     36  N   UNL     1       0.182   4.053  27.396  0.00  0.00    -0.065 NA
BRANCH  35  37
ATOM     37  C   UNL     1       2.014   3.498  25.912  0.00  0.00    +0.145 C 
BRANCH  37  38
ATOM     38  C   UNL     1       1.078   4.061  24.847  0.00  0.00    +0.024 C 
BRANCH  38  39
ATOM     39  C   UNL     1       1.840   4.581  23.627  0.00  0.00    +0.006 C 
BRANCH  39  40
ATOM     40  C   UNL     1       1.827   3.543  22.503  0.00  0.00    +0.026 C 
BRANCH  40  41
ATOM     41  C   UNL     1       1.486   4.154  21.176  0.00  0.00    -0.034 C 
ATOM     42  C   UNL     1       1.860   3.638  19.998  0.00  0.00    +0.004 C 
ENDBRANCH  40  41
ENDBRANCH  39  40
ENDBRANCH  38  39
ENDBRANCH  37  38
ENDBRANCH  35  37
ENDBRANCH  31  33
ENDBRANCH  30  31
ENDBRANCH  26  30
ENDBRANCH  25  28
ENDBRANCH   1  25
TORSDOF 18
