REMARK VINA RESULT:    -6.884     13.768     15.919
REMARK INTER + INTRA:         -13.906
REMARK INTER:                 -11.915
REMARK INTRA:                  -1.992
REMARK UNBOUND:                -1.992
REMARK  Name = lig_assembled_25.pdb
REMARK  16 active torsions:
REMARK  status: ('A' for Active; 'I' for Inactive)
REMARK    1  A    between atoms: _2  and  _9
REMARK    2  A    between atoms: _4  and  _25
REMARK    3  A    between atoms: _6  and  _7
REMARK    4  A    between atoms: _6  and  _25
REMARK    5  A    between atoms: _21  and  _41
REMARK    6  A    between atoms: _23  and  _29
REMARK    7  A    between atoms: _24  and  _28
REMARK    8  A    between atoms: _28  and  _29
REMARK    9  A    between atoms: _31  and  _32
REMARK   10  A    between atoms: _33  and  _34
REMARK   11  A    between atoms: _35  and  _37
REMARK   12  A    between atoms: _37  and  _38
REMARK   13  A    between atoms: _37  and  _39
REMARK   14  A    between atoms: _39  and  _40
REMARK   15  A    between atoms: _39  and  _41
REMARK   16  A    between atoms: _42  and  _44
REMARK                            x       y       z     vdW  Elec       q    Type
REMARK                         _______ _______ _______ _____ _____    ______ ____
ROOT
ATOM      1  C   UNL     1      20.249   6.416  30.336  0.00  0.00    +0.141 C 
ENDROOT
BRANCH   1   4
ATOM      2  C   UNL     1      19.740   3.998  30.353  0.00  0.00    +0.401 C 
ATOM      3  O   UNL     1      20.345   3.782  31.406  0.00  0.00    -0.226 OA
ATOM      4  N   UNL     1      19.649   5.198  29.778  0.00  0.00    -0.279 N 
ATOM      5  H   UNL     1      19.139   5.274  28.909  0.00  0.00    +0.152 HD
BRANCH   2   6
ATOM      6  O   UNL     1      19.092   2.910  29.688  0.00  0.00    -0.444 OA
BRANCH   6   7
ATOM      7  C   UNL     1      18.068   3.418  28.828  0.00  0.00    +0.292 C 
BRANCH   7   9
ATOM      8  N   UNL     1      19.129   2.334  26.878  0.00  0.00    -0.131 NA
ATOM      9  C   UNL     1      17.995   2.620  27.589  0.00  0.00    +0.120 A 
ATOM     10  C   UNL     1      16.908   2.075  26.942  0.00  0.00    +0.138 A 
ATOM     11  N   UNL     1      17.442   1.484  25.831  0.00  0.00    -0.240 N 
ATOM     12  N   UNL     1      18.783   1.636  25.807  0.00  0.00    -0.064 NA
BRANCH  11  13
ATOM     13  C   UNL     1      16.781   0.836  24.710  0.00  0.00    +0.170 C 
ATOM     14  C   UNL     1      17.246  -0.600  24.512  0.00  0.00    -0.011 A 
ATOM     15  C   UNL     1      17.725  -0.775  23.194  0.00  0.00    -0.012 A 
ATOM     16  C   UNL     1      17.626   0.486  22.487  0.00  0.00    -0.012 A 
ATOM     17  C   UNL     1      17.935   0.804  21.174  0.00  0.00    +0.009 A 
ATOM     18  C   UNL     1      17.709   2.112  20.736  0.00  0.00    +0.001 A 
ATOM     19  C   UNL     1      17.186   3.083  21.607  0.00  0.00    +0.000 A 
ATOM     20  C   UNL     1      16.874   2.766  22.931  0.00  0.00    +0.006 A 
ATOM     21  C   UNL     1      18.182  -2.012  22.773  0.00  0.00    +0.009 A 
ATOM     22  C   UNL     1      18.156  -3.076  23.679  0.00  0.00    +0.001 A 
ATOM     23  C   UNL     1      17.675  -2.899  24.987  0.00  0.00    +0.000 A 
ATOM     24  C   UNL     1      17.211  -1.654  25.415  0.00  0.00    +0.006 A 
ATOM     25  C   UNL     1      17.100   1.466  23.360  0.00  0.00    -0.011 A 
ENDBRANCH  11  13
ENDBRANCH   7   9
ENDBRANCH   6   7
ENDBRANCH   2   6
ENDBRANCH   1   4
BRANCH   1  26
ATOM     26  C   UNL     1      19.190   7.407  30.808  0.00  0.00    +0.163 C 
BRANCH  26  27
ATOM     27  O   UNL     1      17.911   6.757  30.891  0.00  0.00    -0.388 OA
ATOM     28  H   UNL     1      17.994   5.847  30.595  0.00  0.00    +0.210 HD
ENDBRANCH  26  27
BRANCH  26  29
ATOM     29  C   UNL     1      19.601   7.987  32.173  0.00  0.00    +0.175 C 
BRANCH  29  30
ATOM     30  C   UNL     1      18.484   8.834  32.800  0.00  0.00    +0.176 C 
ATOM     31  O   UNL     1      17.459   7.928  33.293  0.00  0.00    -0.332 OA
ATOM     32  C   UNL     1      16.355   8.557  34.024  0.00  0.00    +0.277 C 
ATOM     33  C   UNL     1      15.702   9.669  33.166  0.00  0.00    +0.110 C 
ATOM     34  C   UNL     1      16.757  10.639  32.594  0.00  0.00    +0.143 C 
ATOM     35  C   UNL     1      17.860   9.879  31.857  0.00  0.00    +0.133 C 
BRANCH  35  36
ATOM     36  N   UNL     1      18.903  10.807  31.392  0.00  0.00    -0.308 N 
ATOM     37  H   UNL     1      19.472  11.265  32.090  0.00  0.00    +0.149 HD
ATOM     38  C   UNL     1      19.147  11.082  30.108  0.00  0.00    +0.210 C 
ATOM     39  C   UNL     1      18.245  10.388  29.070  0.00  0.00    +0.109 C 
ATOM     40  O   UNL     1      20.037  11.853  29.747  0.00  0.00    -0.276 OA
ENDBRANCH  35  36
BRANCH  32  41
ATOM     41  C   UNL     1      16.852   9.157  35.355  0.00  0.00    +0.414 C 
ATOM     42  O   UNL     1      16.421  10.242  35.746  0.00  0.00    -0.240 OA
ATOM     43  O   UNL     1      17.683   8.558  36.038  0.00  0.00    -0.240 OA
ENDBRANCH  32  41
BRANCH  34  44
ATOM     44  O   UNL     1      16.131  11.553  31.692  0.00  0.00    -0.390 OA
ATOM     45  H   UNL     1      15.424  12.017  32.145  0.00  0.00    +0.210 HD
ENDBRANCH  34  44
BRANCH  32  46
ATOM     46  O   UNL     1      15.356   7.539  34.290  0.00  0.00    -0.343 OA
ATOM     47  C   UNL     1      15.663   6.226  33.759  0.00  0.00    +0.198 C 
ENDBRANCH  32  46
ENDBRANCH  29  30
BRANCH  29  48
ATOM     48  O   UNL     1      20.802   8.772  32.037  0.00  0.00    -0.387 OA
ATOM     49  H   UNL     1      20.922   9.313  32.821  0.00  0.00    +0.210 HD
ENDBRANCH  29  48
ENDBRANCH  26  29
ENDBRANCH   1  26
TORSDOF 14
