REMARK VINA RESULT:    -5.377      7.313     13.044
REMARK INTER + INTRA:         -13.088
REMARK INTER:                 -10.971
REMARK INTRA:                  -2.117
REMARK UNBOUND:                -3.154
REMARK  Name = lig_assembled_67.pdb
REMARK  18 active torsions:
REMARK  status: ('A' for Active; 'I' for Inactive)
REMARK    1  A    between atoms: _2  and  _9
REMARK    2  A    between atoms: _4  and  _19
REMARK    3  A    between atoms: _6  and  _7
REMARK    4  A    between atoms: _6  and  _19
REMARK    5  A    between atoms: _9  and  _10
REMARK    6  A    between atoms: _10  and  _11
REMARK    7  A    between atoms: _15  and  _35
REMARK    8  A    between atoms: _17  and  _23
REMARK    9  A    between atoms: _18  and  _22
REMARK   10  A    between atoms: _22  and  _23
REMARK   11  A    between atoms: _25  and  _26
REMARK   12  A    between atoms: _27  and  _28
REMARK   13  A    between atoms: _29  and  _31
REMARK   14  A    between atoms: _31  and  _32
REMARK   15  A    between atoms: _31  and  _33
REMARK   16  A    between atoms: _33  and  _34
REMARK   17  A    between atoms: _33  and  _35
REMARK   18  A    between atoms: _36  and  _38
REMARK                            x       y       z     vdW  Elec       q    Type
REMARK                         _______ _______ _______ _____ _____    ______ ____
ROOT
ATOM      1  C   UNL     1       9.867   3.013  35.003  0.00  0.00    +0.163 C 
ENDROOT
BRANCH   1   2
ATOM      2  O   UNL     1       9.684   2.136  33.879  0.00  0.00    -0.388 OA
ATOM      3  H   UNL     1      10.056   2.541  33.092  0.00  0.00    +0.210 HD
ENDBRANCH   1   2
BRANCH   1   4
ATOM      4  C   UNL     1       8.563   3.159  35.805  0.00  0.00    +0.175 C 
BRANCH   4   5
ATOM      5  C   UNL     1       7.747   4.384  35.364  0.00  0.00    +0.176 C 
ATOM      6  O   UNL     1       7.440   5.167  36.550  0.00  0.00    -0.332 OA
ATOM      7  C   UNL     1       6.751   6.438  36.309  0.00  0.00    +0.277 C 
ATOM      8  C   UNL     1       5.460   6.207  35.485  0.00  0.00    +0.110 C 
ATOM      9  C   UNL     1       5.731   5.351  34.230  0.00  0.00    +0.143 C 
ATOM     10  C   UNL     1       6.454   4.054  34.596  0.00  0.00    +0.133 C 
BRANCH  10  11
ATOM     11  N   UNL     1       6.784   3.289  33.383  0.00  0.00    -0.308 N 
ATOM     12  H   UNL     1       7.423   3.706  32.721  0.00  0.00    +0.149 HD
ATOM     13  C   UNL     1       6.294   2.079  33.100  0.00  0.00    +0.210 C 
ATOM     14  C   UNL     1       5.302   1.481  34.116  0.00  0.00    +0.109 C 
ATOM     15  O   UNL     1       6.600   1.455  32.083  0.00  0.00    -0.276 OA
ENDBRANCH  10  11
BRANCH   7  16
ATOM     16  C   UNL     1       7.670   7.425  35.560  0.00  0.00    +0.414 C 
ATOM     17  O   UNL     1       8.852   7.538  35.882  0.00  0.00    -0.240 OA
ATOM     18  O   UNL     1       7.230   8.108  34.634  0.00  0.00    -0.240 OA
ENDBRANCH   7  16
BRANCH   9  19
ATOM     19  O   UNL     1       4.496   5.036  33.586  0.00  0.00    -0.390 OA
ATOM     20  H   UNL     1       3.932   5.813  33.577  0.00  0.00    +0.210 HD
ENDBRANCH   9  19
BRANCH   7  21
ATOM     21  O   UNL     1       6.379   6.998  37.595  0.00  0.00    -0.343 OA
ATOM     22  C   UNL     1       7.079   6.435  38.733  0.00  0.00    +0.198 C 
ENDBRANCH   7  21
ENDBRANCH   4   5
BRANCH   4  23
ATOM     23  O   UNL     1       8.852   3.237  37.215  0.00  0.00    -0.387 OA
ATOM     24  H   UNL     1       9.710   2.842  37.388  0.00  0.00    +0.210 HD
ENDBRANCH   4  23
ENDBRANCH   1   4
BRANCH   1  25
ATOM     25  C   UNL     1      10.967   2.474  35.912  0.00  0.00    +0.141 C 
BRANCH  25  28
ATOM     26  C   UNL     1      12.158   4.338  37.012  0.00  0.00    +0.401 C 
ATOM     27  O   UNL     1      11.302   4.495  37.885  0.00  0.00    -0.226 OA
ATOM     28  N   UNL     1      12.080   3.422  36.046  0.00  0.00    -0.279 N 
ATOM     29  H   UNL     1      12.828   3.377  35.369  0.00  0.00    +0.152 HD
BRANCH  26  30
ATOM     30  O   UNL     1      13.313   5.183  37.012  0.00  0.00    -0.444 OA
BRANCH  30  31
ATOM     31  C   UNL     1      14.307   4.633  36.143  0.00  0.00    +0.292 C 
BRANCH  31  33
ATOM     32  N   UNL     1      14.927   5.571  33.938  0.00  0.00    -0.131 NA
ATOM     33  C   UNL     1      14.900   5.691  35.304  0.00  0.00    +0.120 A 
ATOM     34  C   UNL     1      15.486   6.884  35.661  0.00  0.00    +0.137 A 
ATOM     35  N   UNL     1      15.851   7.440  34.472  0.00  0.00    -0.251 N 
ATOM     36  N   UNL     1      15.516   6.649  33.440  0.00  0.00    -0.065 NA
BRANCH  35  37
ATOM     37  C   UNL     1      16.501   8.710  34.240  0.00  0.00    +0.150 C 
BRANCH  37  38
ATOM     38  C   UNL     1      15.608   9.738  33.550  0.00  0.00    +0.084 C 
BRANCH  38  39
ATOM     39  C   UNL     1      16.405  10.770  32.767  0.00  0.00    +0.252 C 
ATOM     40  O   UNL     1      17.525  11.220  33.539  0.00  0.00    -0.349 OA
ATOM     41  C   UNL     1      18.487  11.564  32.545  0.00  0.00    +0.191 C 
ATOM     42  C   UNL     1      18.268  10.526  31.476  0.00  0.00    +0.191 C 
ATOM     43  O   UNL     1      16.876  10.210  31.538  0.00  0.00    -0.349 OA
ENDBRANCH  38  39
ENDBRANCH  37  38
ENDBRANCH  35  37
ENDBRANCH  31  33
ENDBRANCH  30  31
ENDBRANCH  26  30
ENDBRANCH  25  28
ENDBRANCH   1  25
TORSDOF 16
