REMARK VINA RESULT:    -7.364      0.000      0.000
REMARK INTER + INTRA:         -14.881
REMARK INTER:                 -12.683
REMARK INTRA:                  -2.198
REMARK UNBOUND:                -2.135
REMARK  Name = lig_assembled_51.pdb
REMARK  16 active torsions:
REMARK  status: ('A' for Active; 'I' for Inactive)
REMARK    1  A    between atoms: _2  and  _9
REMARK    2  A    between atoms: _4  and  _22
REMARK    3  A    between atoms: _6  and  _7
REMARK    4  A    between atoms: _6  and  _22
REMARK    5  A    between atoms: _18  and  _38
REMARK    6  A    between atoms: _20  and  _26
REMARK    7  A    between atoms: _21  and  _25
REMARK    8  A    between atoms: _25  and  _26
REMARK    9  A    between atoms: _28  and  _29
REMARK   10  A    between atoms: _30  and  _31
REMARK   11  A    between atoms: _32  and  _34
REMARK   12  A    between atoms: _34  and  _35
REMARK   13  A    between atoms: _34  and  _36
REMARK   14  A    between atoms: _36  and  _37
REMARK   15  A    between atoms: _36  and  _38
REMARK   16  A    between atoms: _39  and  _41
REMARK                            x       y       z     vdW  Elec       q    Type
REMARK                         _______ _______ _______ _____ _____    ______ ____
ROOT
ATOM      1  C   UNL     1       4.169   3.660  32.561  0.00  0.00    +0.163 C 
ENDROOT
BRANCH   1   2
ATOM      2  O   UNL     1       3.260   4.034  33.609  0.00  0.00    -0.388 OA
ATOM      3  H   UNL     1       2.374   3.738  33.385  0.00  0.00    +0.210 HD
ENDBRANCH   1   2
BRANCH   1   4
ATOM      4  C   UNL     1       3.528   2.606  31.665  0.00  0.00    +0.141 C 
BRANCH   4   7
ATOM      5  C   UNL     1       1.401   3.602  30.896  0.00  0.00    +0.401 C 
ATOM      6  O   UNL     1       0.845   3.493  31.992  0.00  0.00    -0.226 OA
ATOM      7  N   UNL     1       2.651   3.208  30.652  0.00  0.00    -0.279 N 
ATOM      8  H   UNL     1       3.016   3.330  29.718  0.00  0.00    +0.152 HD
BRANCH   5   9
ATOM      9  O   UNL     1       0.679   4.179  29.806  0.00  0.00    -0.444 OA
BRANCH   9  10
ATOM     10  C   UNL     1       0.223   3.143  28.932  0.00  0.00    +0.292 C 
BRANCH  10  12
ATOM     11  N   UNL     1       2.025   3.691  27.326  0.00  0.00    -0.131 NA
ATOM     12  C   UNL     1       0.717   3.371  27.562  0.00  0.00    +0.120 A 
ATOM     13  C   UNL     1       0.044   3.319  26.362  0.00  0.00    +0.137 A 
ATOM     14  N   UNL     1       0.996   3.623  25.428  0.00  0.00    -0.245 N 
ATOM     15  N   UNL     1       2.185   3.843  26.018  0.00  0.00    -0.065 NA
BRANCH  14  16
ATOM     16  C   UNL     1       0.827   3.724  23.976  0.00  0.00    +0.066 C 
ATOM     17  C   UNL     1       1.145   5.169  23.502  0.00  0.00    +0.034 C 
ATOM     18  C   UNL     1       1.018   5.285  21.973  0.00  0.00    -0.008 C 
ATOM     19  C   UNL     1       1.995   4.301  21.308  0.00  0.00    +0.007 C 
ATOM     20  C   UNL     1       1.663   2.860  21.732  0.00  0.00    -0.008 C 
ATOM     21  C   UNL     1       0.223   2.526  21.315  0.00  0.00    +0.007 C 
ATOM     22  C   UNL     1      -0.756   3.502  21.986  0.00  0.00    -0.008 C 
ATOM     23  C   UNL     1      -0.418   4.937  21.555  0.00  0.00    +0.007 C 
ATOM     24  C   UNL     1       1.792   2.739  23.259  0.00  0.00    +0.034 C 
ATOM     25  C   UNL     1      -0.623   3.385  23.514  0.00  0.00    +0.034 C 
ENDBRANCH  14  16
ENDBRANCH  10  12
ENDBRANCH   9  10
ENDBRANCH   5   9
ENDBRANCH   4   7
ENDBRANCH   1   4
BRANCH   1  26
ATOM     26  C   UNL     1       5.483   3.109  33.142  0.00  0.00    +0.175 C 
BRANCH  26  27
ATOM     27  C   UNL     1       5.923   3.873  34.400  0.00  0.00    +0.176 C 
ATOM     28  O   UNL     1       5.871   5.295  34.101  0.00  0.00    -0.332 OA
ATOM     29  C   UNL     1       6.159   6.190  35.225  0.00  0.00    +0.277 C 
ATOM     30  C   UNL     1       7.527   5.839  35.860  0.00  0.00    +0.110 C 
ATOM     31  C   UNL     1       7.642   4.331  36.167  0.00  0.00    +0.143 C 
ATOM     32  C   UNL     1       7.319   3.493  34.929  0.00  0.00    +0.133 C 
BRANCH  32  33
ATOM     33  N   UNL     1       7.346   2.059  35.256  0.00  0.00    -0.308 N 
ATOM     34  H   UNL     1       6.612   1.696  35.847  0.00  0.00    +0.149 HD
ATOM     35  C   UNL     1       8.279   1.206  34.824  0.00  0.00    +0.210 C 
ATOM     36  C   UNL     1       9.399   1.796  33.947  0.00  0.00    +0.109 C 
ATOM     37  O   UNL     1       8.269   0.007  35.102  0.00  0.00    -0.276 OA
ENDBRANCH  32  33
BRANCH  29  38
ATOM     38  C   UNL     1       5.053   6.095  36.297  0.00  0.00    +0.414 C 
ATOM     39  O   UNL     1       3.909   5.771  35.981  0.00  0.00    -0.240 OA
ATOM     40  O   UNL     1       5.305   6.342  37.477  0.00  0.00    -0.240 OA
ENDBRANCH  29  38
BRANCH  31  41
ATOM     41  O   UNL     1       8.966   4.029  36.607  0.00  0.00    -0.390 OA
ATOM     42  H   UNL     1       9.377   3.418  35.991  0.00  0.00    +0.210 HD
ENDBRANCH  31  41
BRANCH  29  43
ATOM     43  O   UNL     1       6.227   7.546  34.713  0.00  0.00    -0.343 OA
ATOM     44  C   UNL     1       7.552   8.135  34.713  0.00  0.00    +0.198 C 
ENDBRANCH  29  43
ENDBRANCH  26  27
BRANCH  26  45
ATOM     45  O   UNL     1       6.524   3.152  32.146  0.00  0.00    -0.387 OA
ATOM     46  H   UNL     1       6.149   3.414  31.302  0.00  0.00    +0.210 HD
ENDBRANCH  26  45
ENDBRANCH   1  26
TORSDOF 14
