REMARK VINA RESULT:    -6.171      7.532     12.952
REMARK INTER + INTRA:         -13.992
REMARK INTER:                 -11.441
REMARK INTRA:                  -2.551
REMARK UNBOUND:                -2.230
REMARK  Name = lig_assembled_9.pdb
REMARK  20 active torsions:
REMARK  status: ('A' for Active; 'I' for Inactive)
REMARK    1  A    between atoms: _2  and  _9
REMARK    2  A    between atoms: _4  and  _23
REMARK    3  A    between atoms: _6  and  _7
REMARK    4  A    between atoms: _6  and  _23
REMARK    5  A    between atoms: _11  and  _12
REMARK    6  A    between atoms: _12  and  _17
REMARK    7  A    between atoms: _13  and  _14
REMARK    8  A    between atoms: _13  and  _17
REMARK    9  A    between atoms: _19  and  _39
REMARK   10  A    between atoms: _21  and  _27
REMARK   11  A    between atoms: _22  and  _26
REMARK   12  A    between atoms: _26  and  _27
REMARK   13  A    between atoms: _29  and  _30
REMARK   14  A    between atoms: _31  and  _32
REMARK   15  A    between atoms: _33  and  _35
REMARK   16  A    between atoms: _35  and  _36
REMARK   17  A    between atoms: _35  and  _37
REMARK   18  A    between atoms: _37  and  _38
REMARK   19  A    between atoms: _37  and  _39
REMARK   20  A    between atoms: _40  and  _42
REMARK                            x       y       z     vdW  Elec       q    Type
REMARK                         _______ _______ _______ _____ _____    ______ ____
ROOT
ATOM      1  C   UNL     1       8.514   2.536  36.256  0.00  0.00    +0.163 C 
ENDROOT
BRANCH   1   2
ATOM      2  O   UNL     1       8.441   3.089  37.580  0.00  0.00    -0.388 OA
ATOM      3  H   UNL     1       8.897   3.934  37.600  0.00  0.00    +0.210 HD
ENDBRANCH   1   2
BRANCH   1   4
ATOM      4  C   UNL     1       8.879   3.619  35.226  0.00  0.00    +0.175 C 
BRANCH   4   5
ATOM      5  C   UNL     1       7.717   4.591  34.973  0.00  0.00    +0.176 C 
ATOM      6  O   UNL     1       7.542   5.400  36.169  0.00  0.00    -0.332 OA
ATOM      7  C   UNL     1       6.537   6.463  36.073  0.00  0.00    +0.277 C 
ATOM      8  C   UNL     1       5.172   5.881  35.631  0.00  0.00    +0.110 C 
ATOM      9  C   UNL     1       5.313   4.987  34.381  0.00  0.00    +0.143 C 
ATOM     10  C   UNL     1       6.386   3.917  34.589  0.00  0.00    +0.133 C 
BRANCH  10  11
ATOM     11  N   UNL     1       6.571   3.128  33.361  0.00  0.00    -0.308 N 
ATOM     12  H   UNL     1       6.976   3.591  32.559  0.00  0.00    +0.149 HD
ATOM     13  C   UNL     1       6.240   1.840  33.237  0.00  0.00    +0.210 C 
ATOM     14  C   UNL     1       5.602   1.170  34.469  0.00  0.00    +0.109 C 
ATOM     15  O   UNL     1       6.421   1.200  32.200  0.00  0.00    -0.276 OA
ENDBRANCH  10  11
BRANCH   7  16
ATOM     16  C   UNL     1       6.983   7.548  35.071  0.00  0.00    +0.414 C 
ATOM     17  O   UNL     1       8.167   7.876  34.998  0.00  0.00    -0.240 OA
ATOM     18  O   UNL     1       6.160   8.096  34.336  0.00  0.00    -0.240 OA
ENDBRANCH   7  16
BRANCH   7  19
ATOM     19  O   UNL     1       6.379   7.051  37.390  0.00  0.00    -0.343 OA
ATOM     20  C   UNL     1       5.590   6.265  38.320  0.00  0.00    +0.198 C 
ENDBRANCH   7  19
BRANCH   9  21
ATOM     21  O   UNL     1       4.065   4.353  34.099  0.00  0.00    -0.390 OA
ATOM     22  H   UNL     1       3.543   4.914  33.521  0.00  0.00    +0.210 HD
ENDBRANCH   9  21
ENDBRANCH   4   5
BRANCH   4  23
ATOM     23  O   UNL     1       9.294   3.008  33.988  0.00  0.00    -0.387 OA
ATOM     24  H   UNL     1      10.243   3.111  33.883  0.00  0.00    +0.210 HD
ENDBRANCH   4  23
ENDBRANCH   1   4
BRANCH   1  25
ATOM     25  C   UNL     1       9.554   1.421  36.213  0.00  0.00    +0.141 C 
BRANCH  25  28
ATOM     26  C   UNL     1      11.928   1.957  35.785  0.00  0.00    +0.401 C 
ATOM     27  O   UNL     1      11.891   1.609  34.602  0.00  0.00    -0.226 OA
ATOM     28  N   UNL     1      10.884   1.898  36.612  0.00  0.00    -0.279 N 
ATOM     29  H   UNL     1      11.015   2.197  37.568  0.00  0.00    +0.152 HD
BRANCH  26  30
ATOM     30  O   UNL     1      13.155   2.455  36.324  0.00  0.00    -0.444 OA
BRANCH  30  31
ATOM     31  C   UNL     1      12.957   3.782  36.818  0.00  0.00    +0.292 C 
BRANCH  31  33
ATOM     32  N   UNL     1      14.137   4.560  34.785  0.00  0.00    -0.131 NA
ATOM     33  C   UNL     1      13.837   4.728  36.106  0.00  0.00    +0.121 A 
ATOM     34  C   UNL     1      14.462   5.862  36.569  0.00  0.00    +0.143 A 
ATOM     35  N   UNL     1      15.111   6.382  35.471  0.00  0.00    -0.220 N 
ATOM     36  N   UNL     1      14.918   5.563  34.409  0.00  0.00    -0.060 NA
BRANCH  35  37
ATOM     37  C   UNL     1      15.854   7.586  35.369  0.00  0.00    +0.068 A 
ATOM     38  C   UNL     1      15.938   8.270  34.148  0.00  0.00    +0.042 A 
ATOM     39  C   UNL     1      16.700   9.443  34.044  0.00  0.00    +0.061 A 
ATOM     40  C   UNL     1      17.375   9.933  35.168  0.00  0.00    +0.015 A 
ATOM     41  C   UNL     1      17.283   9.261  36.388  0.00  0.00    +0.003 A 
ATOM     42  C   UNL     1      16.525   8.093  36.492  0.00  0.00    +0.028 A 
BRANCH  39  43
ATOM     43  C   UNL     1      16.766  10.229  32.784  0.00  0.00    +0.339 C 
ATOM     44  O   UNL     1      15.797  10.752  32.260  0.00  0.00    -0.245 OA
BRANCH  43  45
ATOM     45  O   UNL     1      18.024  10.182  32.280  0.00  0.00    -0.461 OA
BRANCH  45  46
ATOM     46  C   UNL     1      18.270   9.139  31.328  0.00  0.00    +0.229 C 
ATOM     47  C   UNL     1      18.312   9.764  29.947  0.00  0.00    +0.048 C 
ENDBRANCH  45  46
ENDBRANCH  43  45
ENDBRANCH  39  43
ENDBRANCH  35  37
ENDBRANCH  31  33
ENDBRANCH  30  31
ENDBRANCH  26  30
ENDBRANCH  25  28
ENDBRANCH   1  25
TORSDOF 17
