REMARK VINA RESULT:    -5.542      2.076      3.949
REMARK INTER + INTRA:         -12.999
REMARK INTER:                 -10.841
REMARK INTRA:                  -2.158
REMARK UNBOUND:                -2.111
REMARK  Name = lig_assembled_17.pdb
REMARK  22 active torsions:
REMARK  status: ('A' for Active; 'I' for Inactive)
REMARK    1  A    between atoms: _2  and  _10
REMARK    2  A    between atoms: _3  and  _11
REMARK    3  A    between atoms: _3  and  _12
REMARK    4  A    between atoms: _3  and  _14
REMARK    5  A    between atoms: _5  and  _19
REMARK    6  A    between atoms: _6  and  _14
REMARK    7  A    between atoms: _7  and  _8
REMARK    8  A    between atoms: _7  and  _19
REMARK    9  A    between atoms: _10  and  _11
REMARK   10  A    between atoms: _12  and  _13
REMARK   11  A    between atoms: _15  and  _35
REMARK   12  A    between atoms: _17  and  _23
REMARK   13  A    between atoms: _18  and  _22
REMARK   14  A    between atoms: _22  and  _23
REMARK   15  A    between atoms: _25  and  _26
REMARK   16  A    between atoms: _27  and  _28
REMARK   17  A    between atoms: _29  and  _31
REMARK   18  A    between atoms: _31  and  _32
REMARK   19  A    between atoms: _31  and  _33
REMARK   20  A    between atoms: _33  and  _34
REMARK   21  A    between atoms: _33  and  _35
REMARK   22  A    between atoms: _36  and  _38
REMARK                            x       y       z     vdW  Elec       q    Type
REMARK                         _______ _______ _______ _____ _____    ______ ____
ROOT
ATOM      1  C   UNL     1       6.592   3.772  33.550  0.00  0.00    +0.163 C 
ENDROOT
BRANCH   1   2
ATOM      2  O   UNL     1       7.370   4.887  33.084  0.00  0.00    -0.388 OA
ATOM      3  H   UNL     1       7.574   4.768  32.153  0.00  0.00    +0.210 HD
ENDBRANCH   1   2
BRANCH   1   4
ATOM      4  C   UNL     1       5.408   4.249  34.409  0.00  0.00    +0.175 C 
BRANCH   4   5
ATOM      5  C   UNL     1       5.823   5.330  35.417  0.00  0.00    +0.176 C 
ATOM      6  O   UNL     1       7.209   5.089  35.786  0.00  0.00    -0.332 OA
ATOM      7  C   UNL     1       7.815   6.091  36.668  0.00  0.00    +0.277 C 
ATOM      8  C   UNL     1       6.958   6.276  37.944  0.00  0.00    +0.110 C 
ATOM      9  C   UNL     1       5.470   6.504  37.604  0.00  0.00    +0.143 C 
ATOM     10  C   UNL     1       4.944   5.406  36.680  0.00  0.00    +0.133 C 
BRANCH  10  11
ATOM     11  N   UNL     1       3.552   5.681  36.293  0.00  0.00    -0.308 N 
ATOM     12  H   UNL     1       3.384   6.430  35.635  0.00  0.00    +0.149 HD
ATOM     13  C   UNL     1       2.495   5.007  36.754  0.00  0.00    +0.210 C 
ATOM     14  C   UNL     1       2.782   3.889  37.774  0.00  0.00    +0.109 C 
ATOM     15  O   UNL     1       1.340   5.250  36.401  0.00  0.00    -0.276 OA
ENDBRANCH  10  11
BRANCH   7  16
ATOM     16  C   UNL     1       7.956   7.445  35.941  0.00  0.00    +0.414 C 
ATOM     17  O   UNL     1       7.866   7.503  34.716  0.00  0.00    -0.240 OA
ATOM     18  O   UNL     1       8.161   8.478  36.580  0.00  0.00    -0.240 OA
ENDBRANCH   7  16
BRANCH   9  19
ATOM     19  O   UNL     1       4.698   6.518  38.805  0.00  0.00    -0.390 OA
ATOM     20  H   UNL     1       4.242   7.360  38.884  0.00  0.00    +0.210 HD
ENDBRANCH   9  19
BRANCH   7  21
ATOM     21  O   UNL     1       9.125   5.609  37.062  0.00  0.00    -0.343 OA
ATOM     22  C   UNL     1       9.428   4.252  36.650  0.00  0.00    +0.198 C 
ENDBRANCH   7  21
ENDBRANCH   4   5
BRANCH   4  23
ATOM     23  O   UNL     1       4.811   3.132  35.096  0.00  0.00    -0.387 OA
ATOM     24  H   UNL     1       3.854   3.189  35.030  0.00  0.00    +0.210 HD
ENDBRANCH   4  23
ENDBRANCH   1   4
BRANCH   1  25
ATOM     25  C   UNL     1       6.070   2.968  32.364  0.00  0.00    +0.141 C 
BRANCH  25  28
ATOM     26  C   UNL     1       3.799   2.653  31.442  0.00  0.00    +0.401 C 
ATOM     27  O   UNL     1       3.911   1.430  31.333  0.00  0.00    -0.226 OA
ATOM     28  N   UNL     1       4.761   3.451  31.909  0.00  0.00    -0.279 N 
ATOM     29  H   UNL     1       4.578   4.444  31.951  0.00  0.00    +0.152 HD
BRANCH  26  30
ATOM     30  O   UNL     1       2.575   3.276  31.046  0.00  0.00    -0.444 OA
BRANCH  30  31
ATOM     31  C   UNL     1       1.788   2.349  30.294  0.00  0.00    +0.292 C 
BRANCH  31  33
ATOM     32  N   UNL     1       0.399   3.731  28.786  0.00  0.00    -0.131 NA
ATOM     33  C   UNL     1       1.478   2.906  28.964  0.00  0.00    +0.120 A 
ATOM     34  C   UNL     1       2.132   2.750  27.762  0.00  0.00    +0.137 A 
ATOM     35  N   UNL     1       1.412   3.521  26.900  0.00  0.00    -0.250 N 
ATOM     36  N   UNL     1       0.366   4.100  27.514  0.00  0.00    -0.065 NA
BRANCH  35  37
ATOM     37  C   UNL     1       1.673   3.794  25.501  0.00  0.00    +0.160 C 
BRANCH  37  38
ATOM     38  C   UNL     1       0.577   4.695  24.914  0.00  0.00    +0.107 C 
BRANCH  38  39
ATOM     39  N   UNL     1       0.137   4.369  23.535  0.00  0.00    -0.301 NA
BRANCH  39  40
ATOM     40  C   UNL     1      -1.324   4.446  23.354  0.00  0.00    +0.081 C 
ATOM     41  C   UNL     1      -2.009   3.194  22.814  0.00  0.00    +0.020 C 
ENDBRANCH  39  40
BRANCH  39  42
ATOM     42  C   UNL     1       0.890   5.214  22.583  0.00  0.00    +0.081 C 
ATOM     43  C   UNL     1       1.870   4.459  21.692  0.00  0.00    +0.020 C 
ENDBRANCH  39  42
ENDBRANCH  38  39
ENDBRANCH  37  38
ENDBRANCH  35  37
ENDBRANCH  31  33
ENDBRANCH  30  31
ENDBRANCH  26  30
ENDBRANCH  25  28
ENDBRANCH   1  25
TORSDOF 18
