REMARK VINA RESULT:    -5.673      4.867      8.221
REMARK INTER + INTRA:         -13.594
REMARK INTER:                 -11.125
REMARK INTRA:                  -2.469
REMARK UNBOUND:                -2.450
REMARK  Name = lig_assembled_10.pdb
REMARK  21 active torsions:
REMARK  status: ('A' for Active; 'I' for Inactive)
REMARK    1  A    between atoms: _2  and  _9
REMARK    2  A    between atoms: _4  and  _20
REMARK    3  A    between atoms: _5  and  _9
REMARK    4  A    between atoms: _5  and  _12
REMARK    5  A    between atoms: _6  and  _7
REMARK    6  A    between atoms: _6  and  _20
REMARK    7  A    between atoms: _9  and  _10
REMARK    8  A    between atoms: _10  and  _11
REMARK    9  A    between atoms: _11  and  _14
REMARK   10  A    between atoms: _16  and  _36
REMARK   11  A    between atoms: _18  and  _24
REMARK   12  A    between atoms: _19  and  _23
REMARK   13  A    between atoms: _23  and  _24
REMARK   14  A    between atoms: _26  and  _27
REMARK   15  A    between atoms: _28  and  _29
REMARK   16  A    between atoms: _30  and  _32
REMARK   17  A    between atoms: _32  and  _33
REMARK   18  A    between atoms: _32  and  _34
REMARK   19  A    between atoms: _34  and  _35
REMARK   20  A    between atoms: _34  and  _36
REMARK   21  A    between atoms: _37  and  _39
REMARK                            x       y       z     vdW  Elec       q    Type
REMARK                         _______ _______ _______ _____ _____    ______ ____
ROOT
ATOM      1  C   UNL     1      18.898   5.735  31.551  0.00  0.00    +0.163 C 
ENDROOT
BRANCH   1   2
ATOM      2  O   UNL     1      19.498   5.533  32.841  0.00  0.00    -0.388 OA
ATOM      3  H   UNL     1      18.817   5.300  33.478  0.00  0.00    +0.210 HD
ENDBRANCH   1   2
BRANCH   1   4
ATOM      4  C   UNL     1      18.965   7.215  31.138  0.00  0.00    +0.175 C 
BRANCH   4   5
ATOM      5  C   UNL     1      18.250   8.128  32.145  0.00  0.00    +0.176 C 
ATOM      6  O   UNL     1      17.087   7.415  32.649  0.00  0.00    -0.332 OA
ATOM      7  C   UNL     1      16.335   8.095  33.708  0.00  0.00    +0.277 C 
ATOM      8  C   UNL     1      15.920   9.515  33.249  0.00  0.00    +0.110 C 
ATOM      9  C   UNL     1      17.117  10.301  32.676  0.00  0.00    +0.143 C 
ATOM     10  C   UNL     1      17.828   9.500  31.585  0.00  0.00    +0.133 C 
BRANCH  10  11
ATOM     11  N   UNL     1      19.018  10.222  31.108  0.00  0.00    -0.308 N 
ATOM     12  H   UNL     1      19.806  10.299  31.735  0.00  0.00    +0.149 HD
ATOM     13  C   UNL     1      19.124  10.783  29.900  0.00  0.00    +0.210 C 
ATOM     14  C   UNL     1      17.895  10.671  28.978  0.00  0.00    +0.109 C 
ATOM     15  O   UNL     1      20.138  11.369  29.522  0.00  0.00    -0.276 OA
ENDBRANCH  10  11
BRANCH   7  16
ATOM     16  C   UNL     1      17.176   8.195  34.998  0.00  0.00    +0.414 C 
ATOM     17  O   UNL     1      18.024   7.342  35.253  0.00  0.00    -0.240 OA
ATOM     18  O   UNL     1      17.005   9.129  35.783  0.00  0.00    -0.240 OA
ENDBRANCH   7  16
BRANCH   7  19
ATOM     19  O   UNL     1      15.132   7.328  33.968  0.00  0.00    -0.343 OA
ATOM     20  C   UNL     1      15.258   5.899  33.753  0.00  0.00    +0.198 C 
ENDBRANCH   7  19
BRANCH   9  21
ATOM     21  O   UNL     1      16.662  11.540  32.129  0.00  0.00    -0.390 OA
ATOM     22  H   UNL     1      16.075  11.367  31.389  0.00  0.00    +0.210 HD
ENDBRANCH   9  21
ENDBRANCH   4   5
BRANCH   4  23
ATOM     23  O   UNL     1      18.402   7.390  29.823  0.00  0.00    -0.387 OA
ATOM     24  H   UNL     1      17.539   7.805  29.895  0.00  0.00    +0.210 HD
ENDBRANCH   4  23
ENDBRANCH   1   4
BRANCH   1  25
ATOM     25  C   UNL     1      19.610   4.882  30.506  0.00  0.00    +0.141 C 
BRANCH  25  28
ATOM     26  C   UNL     1      18.841   4.756  28.161  0.00  0.00    +0.401 C 
ATOM     27  O   UNL     1      19.749   5.468  27.726  0.00  0.00    -0.226 OA
ATOM     28  N   UNL     1      18.696   4.436  29.448  0.00  0.00    -0.279 N 
ATOM     29  H   UNL     1      17.912   3.854  29.709  0.00  0.00    +0.152 HD
BRANCH  26  30
ATOM     30  O   UNL     1      17.870   4.235  27.250  0.00  0.00    -0.444 OA
BRANCH  30  31
ATOM     31  C   UNL     1      17.600   2.868  27.571  0.00  0.00    +0.292 C 
BRANCH  31  33
ATOM     32  N   UNL     1      16.099   1.432  26.221  0.00  0.00    -0.131 NA
ATOM     33  C   UNL     1      17.281   2.109  26.346  0.00  0.00    +0.120 A 
ATOM     34  C   UNL     1      18.018   1.946  25.195  0.00  0.00    +0.138 A 
ATOM     35  N   UNL     1      17.216   1.198  24.389  0.00  0.00    -0.237 N 
ATOM     36  N   UNL     1      16.072   0.870  25.022  0.00  0.00    -0.065 NA
BRANCH  35  37
ATOM     37  C   UNL     1      17.406   0.731  23.025  0.00  0.00    +0.227 C 
BRANCH  37  38
ATOM     38  C   UNL     1      17.840  -0.715  22.909  0.00  0.00    +0.330 C 
ATOM     39  O   UNL     1      18.386  -1.144  21.899  0.00  0.00    -0.249 OA
BRANCH  38  40
ATOM     40  O   UNL     1      17.644  -1.510  23.981  0.00  0.00    -0.479 OA
ATOM     41  H   UNL     1      18.214  -2.320  24.045  0.00  0.00    +0.295 HD
ENDBRANCH  38  40
ENDBRANCH  37  38
BRANCH  37  42
ATOM     42  C   UNL     1      18.251   1.666  22.150  0.00  0.00    +0.158 C 
BRANCH  42  43
ATOM     43  C   UNL     1      17.515   2.105  20.915  0.00  0.00    +0.307 C 
ATOM     44  O   UNL     1      16.370   2.541  20.926  0.00  0.00    -0.251 OA
BRANCH  43  45
ATOM     45  O   UNL     1      18.260   2.053  19.795  0.00  0.00    -0.481 OA
ATOM     46  H   UNL     1      17.989   2.669  19.086  0.00  0.00    +0.295 HD
ENDBRANCH  43  45
ENDBRANCH  42  43
ENDBRANCH  37  42
ENDBRANCH  35  37
ENDBRANCH  31  33
ENDBRANCH  30  31
ENDBRANCH  26  30
ENDBRANCH  25  28
ENDBRANCH   1  25
TORSDOF 19
