REMARK VINA RESULT:    -6.247     23.765     26.047
REMARK INTER + INTRA:         -13.110
REMARK INTER:                 -11.176
REMARK INTRA:                  -1.933
REMARK UNBOUND:                -1.933
REMARK  Name = lig_assembled_39.pdb
REMARK  17 active torsions:
REMARK  status: ('A' for Active; 'I' for Inactive)
REMARK    1  A    between atoms: _2  and  _9
REMARK    2  A    between atoms: _4  and  _19
REMARK    3  A    between atoms: _6  and  _7
REMARK    4  A    between atoms: _6  and  _19
REMARK    5  A    between atoms: _9  and  _10
REMARK    6  A    between atoms: _15  and  _35
REMARK    7  A    between atoms: _17  and  _23
REMARK    8  A    between atoms: _18  and  _22
REMARK    9  A    between atoms: _22  and  _23
REMARK   10  A    between atoms: _25  and  _26
REMARK   11  A    between atoms: _27  and  _28
REMARK   12  A    between atoms: _29  and  _31
REMARK   13  A    between atoms: _31  and  _32
REMARK   14  A    between atoms: _31  and  _33
REMARK   15  A    between atoms: _33  and  _34
REMARK   16  A    between atoms: _33  and  _35
REMARK   17  A    between atoms: _36  and  _38
REMARK                            x       y       z     vdW  Elec       q    Type
REMARK                         _______ _______ _______ _____ _____    ______ ____
ROOT
ATOM      1  C   UNL     1       3.186  19.907  13.021  0.00  0.00    +0.163 C 
ENDROOT
BRANCH   1   2
ATOM      2  O   UNL     1       3.392  19.458  11.671  0.00  0.00    -0.388 OA
ATOM      3  H   UNL     1       4.219  19.814  11.338  0.00  0.00    +0.210 HD
ENDBRANCH   1   2
BRANCH   1   4
ATOM      4  C   UNL     1       2.029  20.901  13.069  0.00  0.00    +0.141 C 
BRANCH   4   7
ATOM      5  C   UNL     1       0.722  21.782  14.972  0.00  0.00    +0.401 C 
ATOM      6  O   UNL     1       0.876  22.963  14.652  0.00  0.00    -0.226 OA
ATOM      7  N   UNL     1       1.232  20.753  14.293  0.00  0.00    -0.279 N 
ATOM      8  H   UNL     1       1.060  19.820  14.640  0.00  0.00    +0.152 HD
BRANCH   5   9
ATOM      9  O   UNL     1      -0.041  21.472  16.141  0.00  0.00    -0.444 OA
BRANCH   9  10
ATOM     10  C   UNL     1       0.114  22.518  17.104  0.00  0.00    +0.292 C 
BRANCH  10  12
ATOM     11  N   UNL     1       0.793  22.346  19.478  0.00  0.00    -0.131 NA
ATOM     12  C   UNL     1      -0.064  21.992  18.469  0.00  0.00    +0.120 A 
ATOM     13  C   UNL     1      -1.030  21.149  18.973  0.00  0.00    +0.137 A 
ATOM     14  N   UNL     1      -0.752  21.097  20.307  0.00  0.00    -0.247 N 
ATOM     15  N   UNL     1       0.379  21.767  20.596  0.00  0.00    -0.065 NA
BRANCH  14  16
ATOM     16  C   UNL     1      -1.550  20.493  21.364  0.00  0.00    +0.181 C 
BRANCH  16  17
ATOM     17  C   UNL     1      -1.520  18.975  21.346  0.00  0.00    -0.012 A 
ATOM     18  C   UNL     1      -0.380  18.277  20.898  0.00  0.00    +0.006 A 
ATOM     19  C   UNL     1      -0.340  16.881  20.871  0.00  0.00    +0.000 A 
ATOM     20  C   UNL     1      -1.450  16.147  21.268  0.00  0.00    +0.001 A 
ATOM     21  C   UNL     1      -2.606  16.809  21.674  0.00  0.00    +0.015 A 
ATOM     22  C   UNL     1      -2.647  18.211  21.702  0.00  0.00    +0.023 A 
ATOM     23 BR   UNL     1      -4.297  19.004  22.218  0.00  0.00    -0.050 Br
ENDBRANCH  16  17
ENDBRANCH  14  16
ENDBRANCH  10  12
ENDBRANCH   9  10
ENDBRANCH   5   9
ENDBRANCH   4   7
ENDBRANCH   1   4
BRANCH   1  24
ATOM     24  C   UNL     1       4.456  20.571  13.580  0.00  0.00    +0.175 C 
BRANCH  24  25
ATOM     25  C   UNL     1       4.817  21.858  12.824  0.00  0.00    +0.176 C 
ATOM     26  O   UNL     1       5.889  21.545  11.893  0.00  0.00    -0.332 OA
ATOM     27  C   UNL     1       6.295  22.638  11.004  0.00  0.00    +0.277 C 
ATOM     28  C   UNL     1       6.667  23.895  11.827  0.00  0.00    +0.110 C 
ATOM     29  C   UNL     1       5.570  24.249  12.853  0.00  0.00    +0.143 C 
ATOM     30  C   UNL     1       5.223  23.041  13.723  0.00  0.00    +0.133 C 
BRANCH  30  31
ATOM     31  N   UNL     1       4.117  23.365  14.638  0.00  0.00    -0.308 N 
ATOM     32  H   UNL     1       3.201  23.510  14.238  0.00  0.00    +0.149 HD
ATOM     33  C   UNL     1       4.245  23.481  15.962  0.00  0.00    +0.210 C 
ATOM     34  C   UNL     1       5.659  23.281  16.539  0.00  0.00    +0.109 C 
ATOM     35  O   UNL     1       3.298  23.740  16.706  0.00  0.00    -0.276 OA
ENDBRANCH  30  31
BRANCH  27  36
ATOM     36  C   UNL     1       5.165  22.985  10.013  0.00  0.00    +0.414 C 
ATOM     37  O   UNL     1       4.773  24.146   9.902  0.00  0.00    -0.240 OA
ATOM     38  O   UNL     1       4.645  22.105   9.325  0.00  0.00    -0.240 OA
ENDBRANCH  27  36
BRANCH  27  39
ATOM     39  O   UNL     1       7.471  22.206  10.272  0.00  0.00    -0.343 OA
ATOM     40  C   UNL     1       8.340  23.277   9.824  0.00  0.00    +0.198 C 
ENDBRANCH  27  39
BRANCH  29  41
ATOM     41  O   UNL     1       6.019  25.317  13.688  0.00  0.00    -0.390 OA
ATOM     42  H   UNL     1       6.975  25.285  13.765  0.00  0.00    +0.210 HD
ENDBRANCH  29  41
ENDBRANCH  24  25
BRANCH  24  43
ATOM     43  O   UNL     1       5.560  19.644  13.537  0.00  0.00    -0.387 OA
ATOM     44  H   UNL     1       6.347  20.067  13.888  0.00  0.00    +0.210 HD
ENDBRANCH  24  43
ENDBRANCH   1  24
TORSDOF 15
