REMARK VINA RESULT:    -5.636      4.663     10.469
REMARK INTER + INTRA:         -13.523
REMARK INTER:                 -11.073
REMARK INTRA:                  -2.450
REMARK UNBOUND:                -2.450
REMARK  Name = lig_assembled_10.pdb
REMARK  21 active torsions:
REMARK  status: ('A' for Active; 'I' for Inactive)
REMARK    1  A    between atoms: _2  and  _9
REMARK    2  A    between atoms: _4  and  _20
REMARK    3  A    between atoms: _5  and  _9
REMARK    4  A    between atoms: _5  and  _12
REMARK    5  A    between atoms: _6  and  _7
REMARK    6  A    between atoms: _6  and  _20
REMARK    7  A    between atoms: _9  and  _10
REMARK    8  A    between atoms: _10  and  _11
REMARK    9  A    between atoms: _11  and  _14
REMARK   10  A    between atoms: _16  and  _36
REMARK   11  A    between atoms: _18  and  _24
REMARK   12  A    between atoms: _19  and  _23
REMARK   13  A    between atoms: _23  and  _24
REMARK   14  A    between atoms: _26  and  _27
REMARK   15  A    between atoms: _28  and  _29
REMARK   16  A    between atoms: _30  and  _32
REMARK   17  A    between atoms: _32  and  _33
REMARK   18  A    between atoms: _32  and  _34
REMARK   19  A    between atoms: _34  and  _35
REMARK   20  A    between atoms: _34  and  _36
REMARK   21  A    between atoms: _37  and  _39
REMARK                            x       y       z     vdW  Elec       q    Type
REMARK                         _______ _______ _______ _____ _____    ______ ____
ROOT
ATOM      1  C   UNL     1      20.545   5.083  24.343  0.00  0.00    +0.163 C 
ENDROOT
BRANCH   1   2
ATOM      2  O   UNL     1      21.540   4.165  23.862  0.00  0.00    -0.388 OA
ATOM      3  H   UNL     1      22.325   4.651  23.600  0.00  0.00    +0.210 HD
ENDBRANCH   1   2
BRANCH   1   4
ATOM      4  C   UNL     1      19.484   4.353  25.185  0.00  0.00    +0.175 C 
BRANCH   4   5
ATOM      5  C   UNL     1      19.246   2.917  24.697  0.00  0.00    +0.176 C 
ATOM      6  O   UNL     1      18.521   2.987  23.438  0.00  0.00    -0.332 OA
ATOM      7  C   UNL     1      18.295   1.705  22.764  0.00  0.00    +0.277 C 
ATOM      8  C   UNL     1      17.591   0.709  23.719  0.00  0.00    +0.110 C 
ATOM      9  C   UNL     1      18.308   0.624  25.082  0.00  0.00    +0.143 C 
ATOM     10  C   UNL     1      18.494   2.014  25.692  0.00  0.00    +0.133 C 
BRANCH  10  11
ATOM     11  N   UNL     1      19.255   1.928  26.949  0.00  0.00    -0.308 N 
ATOM     12  H   UNL     1      20.141   1.443  26.931  0.00  0.00    +0.149 HD
ATOM     13  C   UNL     1      18.850   2.448  28.111  0.00  0.00    +0.210 C 
ATOM     14  C   UNL     1      17.483   3.157  28.110  0.00  0.00    +0.109 C 
ATOM     15  O   UNL     1      19.515   2.373  29.144  0.00  0.00    -0.276 OA
ENDBRANCH  10  11
BRANCH   7  16
ATOM     16  C   UNL     1      19.628   1.099  22.279  0.00  0.00    +0.414 C 
ATOM     17  O   UNL     1      19.702  -0.098  22.003  0.00  0.00    -0.240 OA
ATOM     18  O   UNL     1      20.630   1.807  22.163  0.00  0.00    -0.240 OA
ENDBRANCH   7  16
BRANCH   7  19
ATOM     19  O   UNL     1      17.424   1.942  21.628  0.00  0.00    -0.343 OA
ATOM     20  C   UNL     1      16.771   3.236  21.618  0.00  0.00    +0.198 C 
ENDBRANCH   7  19
BRANCH   9  21
ATOM     21  O   UNL     1      17.545  -0.185  25.978  0.00  0.00    -0.390 OA
ATOM     22  H   UNL     1      18.066  -0.945  26.247  0.00  0.00    +0.210 HD
ENDBRANCH   9  21
ENDBRANCH   4   5
BRANCH   4  23
ATOM     23  O   UNL     1      18.247   5.093  25.176  0.00  0.00    -0.387 OA
ATOM     24  H   UNL     1      18.434   6.028  25.064  0.00  0.00    +0.210 HD
ENDBRANCH   4  23
ENDBRANCH   1   4
BRANCH   1  25
ATOM     25  C   UNL     1      21.202   6.172  25.183  0.00  0.00    +0.141 C 
BRANCH  25  28
ATOM     26  C   UNL     1      19.995   7.918  26.448  0.00  0.00    +0.401 C 
ATOM     27  O   UNL     1      20.406   8.844  25.745  0.00  0.00    -0.226 OA
ATOM     28  N   UNL     1      20.321   6.639  26.261  0.00  0.00    -0.279 N 
ATOM     29  H   UNL     1      19.941   5.951  26.896  0.00  0.00    +0.152 HD
BRANCH  26  30
ATOM     30  O   UNL     1      19.118   8.211  27.538  0.00  0.00    -0.444 OA
BRANCH  30  31
ATOM     31  C   UNL     1      19.859   8.820  28.598  0.00  0.00    +0.292 C 
BRANCH  31  33
ATOM     32  N   UNL     1      18.000  10.229  29.433  0.00  0.00    -0.131 NA
ATOM     33  C   UNL     1      18.947   9.269  29.667  0.00  0.00    +0.120 A 
ATOM     34  C   UNL     1      18.856   8.857  30.978  0.00  0.00    +0.138 A 
ATOM     35  N   UNL     1      17.811   9.570  31.480  0.00  0.00    -0.237 N 
ATOM     36  N   UNL     1      17.315  10.412  30.551  0.00  0.00    -0.065 NA
BRANCH  35  37
ATOM     37  C   UNL     1      17.188   9.551  32.794  0.00  0.00    +0.227 C 
BRANCH  37  38
ATOM     38  C   UNL     1      15.697   9.808  32.787  0.00  0.00    +0.330 C 
ATOM     39  O   UNL     1      14.886   8.898  32.922  0.00  0.00    -0.249 OA
BRANCH  38  40
ATOM     40  O   UNL     1      15.287  11.088  32.671  0.00  0.00    -0.479 OA
ATOM     41  H   UNL     1      15.979  11.758  32.433  0.00  0.00    +0.295 HD
ENDBRANCH  38  40
ENDBRANCH  37  38
BRANCH  37  42
ATOM     42  C   UNL     1      17.920  10.392  33.850  0.00  0.00    +0.158 C 
BRANCH  42  43
ATOM     43  C   UNL     1      18.664  11.546  33.238  0.00  0.00    +0.307 C 
ATOM     44  O   UNL     1      19.873  11.548  33.044  0.00  0.00    -0.251 OA
BRANCH  43  45
ATOM     45  O   UNL     1      17.865  12.556  32.845  0.00  0.00    -0.481 OA
ATOM     46  H   UNL     1      17.972  12.833  31.914  0.00  0.00    +0.295 HD
ENDBRANCH  43  45
ENDBRANCH  42  43
ENDBRANCH  37  42
ENDBRANCH  35  37
ENDBRANCH  31  33
ENDBRANCH  30  31
ENDBRANCH  26  30
ENDBRANCH  25  28
ENDBRANCH   1  25
TORSDOF 19
