REMARK VINA RESULT:    -5.654      5.810     10.484
REMARK INTER + INTRA:         -14.169
REMARK INTER:                 -10.526
REMARK INTRA:                  -3.643
REMARK UNBOUND:                -2.564
REMARK  Name = lig_assembled_74.pdb
REMARK  24 active torsions:
REMARK  status: ('A' for Active; 'I' for Inactive)
REMARK    1  A    between atoms: _2  and  _9
REMARK    2  A    between atoms: _4  and  _22
REMARK    3  A    between atoms: _5  and  _14
REMARK    4  A    between atoms: _6  and  _7
REMARK    5  A    between atoms: _6  and  _22
REMARK    6  A    between atoms: _9  and  _10
REMARK    7  A    between atoms: _10  and  _11
REMARK    8  A    between atoms: _10  and  _13
REMARK    9  A    between atoms: _11  and  _12
REMARK   10  A    between atoms: _12  and  _16
REMARK   11  A    between atoms: _13  and  _14
REMARK   12  A    between atoms: _14  and  _15
REMARK   13  A    between atoms: _18  and  _38
REMARK   14  A    between atoms: _20  and  _26
REMARK   15  A    between atoms: _21  and  _25
REMARK   16  A    between atoms: _25  and  _26
REMARK   17  A    between atoms: _28  and  _29
REMARK   18  A    between atoms: _30  and  _31
REMARK   19  A    between atoms: _32  and  _34
REMARK   20  A    between atoms: _34  and  _35
REMARK   21  A    between atoms: _34  and  _36
REMARK   22  A    between atoms: _36  and  _37
REMARK   23  A    between atoms: _36  and  _38
REMARK   24  A    between atoms: _39  and  _41
REMARK                            x       y       z     vdW  Elec       q    Type
REMARK                         _______ _______ _______ _____ _____    ______ ____
ROOT
ATOM      1  C   UNL     1      15.972   1.494  25.409  0.00  0.00    +0.163 C 
ENDROOT
BRANCH   1   2
ATOM      2  O   UNL     1      16.189   2.440  26.470  0.00  0.00    -0.388 OA
ATOM      3  H   UNL     1      16.569   1.989  27.228  0.00  0.00    +0.210 HD
ENDBRANCH   1   2
BRANCH   1   4
ATOM      4  C   UNL     1      16.749   1.899  24.144  0.00  0.00    +0.175 C 
BRANCH   4   5
ATOM      5  C   UNL     1      18.243   2.113  24.428  0.00  0.00    +0.176 C 
ATOM      6  O   UNL     1      18.390   3.388  25.110  0.00  0.00    -0.332 OA
ATOM      7  C   UNL     1      19.748   3.715  25.557  0.00  0.00    +0.277 C 
ATOM      8  C   UNL     1      20.741   3.638  24.372  0.00  0.00    +0.110 C 
ATOM      9  C   UNL     1      20.599   2.311  23.596  0.00  0.00    +0.143 C 
ATOM     10  C   UNL     1      19.147   2.070  23.182  0.00  0.00    +0.133 C 
BRANCH  10  11
ATOM     11  N   UNL     1      19.011   0.763  22.520  0.00  0.00    -0.308 N 
ATOM     12  H   UNL     1      19.353  -0.052  23.010  0.00  0.00    +0.149 HD
ATOM     13  C   UNL     1      18.463   0.583  21.315  0.00  0.00    +0.210 C 
ATOM     14  C   UNL     1      17.974   1.848  20.584  0.00  0.00    +0.109 C 
ATOM     15  O   UNL     1      18.349  -0.526  20.791  0.00  0.00    -0.276 OA
ENDBRANCH  10  11
BRANCH   7  16
ATOM     16  C   UNL     1      20.202   2.753  26.674  0.00  0.00    +0.414 C 
ATOM     17  O   UNL     1      21.400   2.554  26.872  0.00  0.00    -0.240 OA
ATOM     18  O   UNL     1      19.371   2.175  27.377  0.00  0.00    -0.240 OA
ENDBRANCH   7  16
BRANCH   9  19
ATOM     19  O   UNL     1      21.422   2.346  22.429  0.00  0.00    -0.390 OA
ATOM     20  H   UNL     1      20.978   1.890  21.710  0.00  0.00    +0.210 HD
ENDBRANCH   9  19
BRANCH   7  21
ATOM     21  O   UNL     1      19.740   5.076  26.059  0.00  0.00    -0.343 OA
ATOM     22  C   UNL     1      20.810   5.919  25.562  0.00  0.00    +0.198 C 
ENDBRANCH   7  21
ENDBRANCH   4   5
BRANCH   4  23
ATOM     23  O   UNL     1      16.176   3.090  23.570  0.00  0.00    -0.387 OA
ATOM     24  H   UNL     1      16.196   3.026  22.612  0.00  0.00    +0.210 HD
ENDBRANCH   4  23
ENDBRANCH   1   4
BRANCH   1  25
ATOM     25  C   UNL     1      16.410   0.103  25.853  0.00  0.00    +0.141 C 
BRANCH  25  28
ATOM     26  C   UNL     1      16.189  -1.708  24.187  0.00  0.00    +0.401 C 
ATOM     27  O   UNL     1      17.343  -1.592  23.768  0.00  0.00    -0.226 OA
ATOM     28  N   UNL     1      15.667  -0.954  25.154  0.00  0.00    -0.279 N 
ATOM     29  H   UNL     1      14.707  -1.118  25.422  0.00  0.00    +0.152 HD
BRANCH  26  30
ATOM     30  O   UNL     1      15.338  -2.703  23.610  0.00  0.00    -0.444 OA
BRANCH  30  31
ATOM     31  C   UNL     1      16.137  -3.710  22.984  0.00  0.00    +0.292 C 
BRANCH  31  33
ATOM     32  N   UNL     1      17.561  -5.395  24.123  0.00  0.00    -0.131 NA
ATOM     33  C   UNL     1      16.321  -4.866  23.885  0.00  0.00    +0.120 A 
ATOM     34  C   UNL     1      15.394  -5.525  24.663  0.00  0.00    +0.137 A 
ATOM     35  N   UNL     1      16.160  -6.310  25.478  0.00  0.00    -0.251 N 
ATOM     36  N   UNL     1      17.447  -6.301  25.086  0.00  0.00    -0.065 NA
BRANCH  35  37
ATOM     37  C   UNL     1      15.803  -6.809  26.791  0.00  0.00    +0.149 C 
BRANCH  37  38
ATOM     38  C   UNL     1      14.916  -5.874  27.641  0.00  0.00    +0.021 C 
BRANCH  38  39
ATOM     39  C   UNL     1      15.713  -4.794  28.401  0.00  0.00    +0.125 C 
BRANCH  39  40
ATOM     40  C   UNL     1      16.016  -3.546  27.597  0.00  0.00    +0.305 C 
ATOM     41  O   UNL     1      17.083  -3.306  27.055  0.00  0.00    -0.251 OA
BRANCH  40  42
ATOM     42  O   UNL     1      14.953  -2.730  27.473  0.00  0.00    -0.481 OA
ATOM     43  H   UNL     1      15.093  -1.942  26.918  0.00  0.00    +0.295 HD
ENDBRANCH  40  42
ENDBRANCH  39  40
ENDBRANCH  38  39
BRANCH  38  44
ATOM     44  C   UNL     1      14.016  -6.736  28.575  0.00  0.00    +0.009 C 
BRANCH  44  45
ATOM     45  C   UNL     1      14.399  -6.735  30.070  0.00  0.00    -0.017 C 
ATOM     46  C   UNL     1      13.219  -6.362  30.970  0.00  0.00    +0.007 C 
ATOM     47  C   UNL     1      14.933  -8.109  30.490  0.00  0.00    +0.007 C 
ENDBRANCH  44  45
ENDBRANCH  38  44
ENDBRANCH  37  38
ENDBRANCH  35  37
ENDBRANCH  31  33
ENDBRANCH  30  31
ENDBRANCH  26  30
ENDBRANCH  25  28
ENDBRANCH   1  25
TORSDOF 20
