REMARK VINA RESULT:    -6.384     13.733     18.353
REMARK INTER + INTRA:         -13.080
REMARK INTER:                 -11.060
REMARK INTRA:                  -2.020
REMARK UNBOUND:                -2.031
REMARK  Name = lig_assembled_42.pdb
REMARK  16 active torsions:
REMARK  status: ('A' for Active; 'I' for Inactive)
REMARK    1  A    between atoms: _2  and  _9
REMARK    2  A    between atoms: _4  and  _21
REMARK    3  A    between atoms: _6  and  _7
REMARK    4  A    between atoms: _6  and  _21
REMARK    5  A    between atoms: _17  and  _37
REMARK    6  A    between atoms: _19  and  _25
REMARK    7  A    between atoms: _20  and  _24
REMARK    8  A    between atoms: _24  and  _25
REMARK    9  A    between atoms: _27  and  _28
REMARK   10  A    between atoms: _29  and  _30
REMARK   11  A    between atoms: _31  and  _33
REMARK   12  A    between atoms: _33  and  _34
REMARK   13  A    between atoms: _33  and  _35
REMARK   14  A    between atoms: _35  and  _36
REMARK   15  A    between atoms: _35  and  _37
REMARK   16  A    between atoms: _38  and  _40
REMARK                            x       y       z     vdW  Elec       q    Type
REMARK                         _______ _______ _______ _____ _____    ______ ____
ROOT
ATOM      1  C   UNL     1      19.403   6.483  24.637  0.00  0.00    +0.163 C 
ENDROOT
BRANCH   1   2
ATOM      2  O   UNL     1      18.646   6.946  23.507  0.00  0.00    -0.388 OA
ATOM      3  H   UNL     1      18.168   6.209  23.118  0.00  0.00    +0.210 HD
ENDBRANCH   1   2
BRANCH   1   4
ATOM      4  C   UNL     1      20.255   7.619  25.195  0.00  0.00    +0.141 C 
BRANCH   4   7
ATOM      5  C   UNL     1      19.933   9.784  26.341  0.00  0.00    +0.401 C 
ATOM      6  O   UNL     1      21.140   9.999  26.476  0.00  0.00    -0.226 OA
ATOM      7  N   UNL     1      19.430   8.694  25.760  0.00  0.00    -0.279 N 
ATOM      8  H   UNL     1      18.426   8.604  25.705  0.00  0.00    +0.152 HD
BRANCH   5   9
ATOM      9  O   UNL     1      18.998  10.747  26.834  0.00  0.00    -0.444 OA
BRANCH   9  10
ATOM     10  C   UNL     1      19.627  11.559  27.829  0.00  0.00    +0.292 C 
BRANCH  10  12
ATOM     11  N   UNL     1      19.870  11.561  30.298  0.00  0.00    -0.131 NA
ATOM     12  C   UNL     1      19.213  11.136  29.180  0.00  0.00    +0.121 A 
ATOM     13  C   UNL     1      18.184  10.306  29.555  0.00  0.00    +0.143 A 
ATOM     14  N   UNL     1      18.247  10.252  30.926  0.00  0.00    -0.220 N 
ATOM     15  N   UNL     1      19.277  11.021  31.357  0.00  0.00    -0.060 NA
BRANCH  14  16
ATOM     16  C   UNL     1      17.411   9.530  31.816  0.00  0.00    +0.071 A 
ATOM     17  C   UNL     1      17.490   8.131  31.874  0.00  0.00    +0.077 A 
ATOM     18  C   UNL     1      16.657   7.475  32.755  0.00  0.00    +0.168 A 
ATOM     19  O   UNL     1      16.612   6.129  32.935  0.00  0.00    -0.453 OA
ATOM     20  C   UNL     1      15.595   6.028  33.953  0.00  0.00    +0.466 C 
ATOM     21  O   UNL     1      15.053   7.306  34.350  0.00  0.00    -0.453 OA
ATOM     22  C   UNL     1      15.771   8.148  33.560  0.00  0.00    +0.166 A 
ATOM     23  C   UNL     1      15.665   9.522  33.529  0.00  0.00    +0.051 A 
ATOM     24  C   UNL     1      16.496  10.223  32.645  0.00  0.00    +0.031 A 
ENDBRANCH  14  16
ENDBRANCH  10  12
ENDBRANCH   9  10
ENDBRANCH   5   9
ENDBRANCH   4   7
ENDBRANCH   1   4
BRANCH   1  25
ATOM     25  C   UNL     1      20.311   5.304  24.246  0.00  0.00    +0.175 C 
BRANCH  25  26
ATOM     26  C   UNL     1      19.613   3.950  24.435  0.00  0.00    +0.176 C 
ATOM     27  O   UNL     1      18.579   3.833  23.420  0.00  0.00    -0.332 OA
ATOM     28  C   UNL     1      17.872   2.550  23.379  0.00  0.00    +0.277 C 
ATOM     29  C   UNL     1      17.280   2.214  24.770  0.00  0.00    +0.110 C 
ATOM     30  C   UNL     1      18.335   2.354  25.887  0.00  0.00    +0.143 C 
ATOM     31  C   UNL     1      19.010   3.725  25.835  0.00  0.00    +0.133 C 
BRANCH  31  32
ATOM     32  N   UNL     1      20.073   3.815  26.848  0.00  0.00    -0.308 N 
ATOM     33  H   UNL     1      20.890   3.232  26.728  0.00  0.00    +0.149 HD
ATOM     34  C   UNL     1      20.030   4.617  27.915  0.00  0.00    +0.210 C 
ATOM     35  C   UNL     1      18.761   5.475  28.083  0.00  0.00    +0.109 C 
ATOM     36  O   UNL     1      20.942   4.683  28.740  0.00  0.00    -0.276 OA
ENDBRANCH  31  32
BRANCH  28  37
ATOM     37  C   UNL     1      18.820   1.417  22.935  0.00  0.00    +0.414 C 
ATOM     38  O   UNL     1      19.689   1.631  22.090  0.00  0.00    -0.240 OA
ATOM     39  O   UNL     1      18.717   0.290  23.421  0.00  0.00    -0.240 OA
ENDBRANCH  28  37
BRANCH  30  40
ATOM     40  O   UNL     1      17.713   2.185  27.161  0.00  0.00    -0.390 OA
ATOM     41  H   UNL     1      16.767   2.321  27.077  0.00  0.00    +0.210 HD
ENDBRANCH  30  40
BRANCH  28  42
ATOM     42  O   UNL     1      16.778   2.670  22.433  0.00  0.00    -0.343 OA
ATOM     43  C   UNL     1      16.755   3.907  21.677  0.00  0.00    +0.198 C 
ENDBRANCH  28  42
ENDBRANCH  25  26
BRANCH  25  44
ATOM     44  O   UNL     1      21.534   5.345  25.009  0.00  0.00    -0.387 OA
ATOM     45  H   UNL     1      21.817   6.256  25.113  0.00  0.00    +0.210 HD
ENDBRANCH  25  44
ENDBRANCH   1  25
TORSDOF 14
