REMARK VINA RESULT:    -6.637     10.901     19.021
REMARK INTER + INTRA:         -13.687
REMARK INTER:                 -11.430
REMARK INTRA:                  -2.257
REMARK UNBOUND:                -1.813
REMARK  Name = lig_assembled_41.pdb
REMARK  18 active torsions:
REMARK  status: ('A' for Active; 'I' for Inactive)
REMARK    1  A    between atoms: _2  and  _9
REMARK    2  A    between atoms: _4  and  _21
REMARK    3  A    between atoms: _6  and  _7
REMARK    4  A    between atoms: _6  and  _21
REMARK    5  A    between atoms: _10  and  _11
REMARK    6  A    between atoms: _11  and  _12
REMARK    7  A    between atoms: _17  and  _37
REMARK    8  A    between atoms: _19  and  _25
REMARK    9  A    between atoms: _20  and  _24
REMARK   10  A    between atoms: _24  and  _25
REMARK   11  A    between atoms: _27  and  _28
REMARK   12  A    between atoms: _29  and  _30
REMARK   13  A    between atoms: _31  and  _33
REMARK   14  A    between atoms: _33  and  _34
REMARK   15  A    between atoms: _33  and  _35
REMARK   16  A    between atoms: _35  and  _36
REMARK   17  A    between atoms: _35  and  _37
REMARK   18  A    between atoms: _38  and  _40
REMARK                            x       y       z     vdW  Elec       q    Type
REMARK                         _______ _______ _______ _____ _____    ______ ____
ROOT
ATOM      1  C   UNL     1      -2.029   8.315  13.365  0.00  0.00    +0.163 C 
ENDROOT
BRANCH   1   2
ATOM      2  O   UNL     1      -2.309   8.332  11.956  0.00  0.00    -0.388 OA
ATOM      3  H   UNL     1      -3.222   8.592  11.814  0.00  0.00    +0.210 HD
ENDBRANCH   1   2
BRANCH   1   4
ATOM      4  C   UNL     1      -2.359   6.944  13.947  0.00  0.00    +0.141 C 
BRANCH   4   7
ATOM      5  C   UNL     1      -2.121   6.407  16.347  0.00  0.00    +0.401 C 
ATOM      6  O   UNL     1      -3.336   6.398  16.562  0.00  0.00    -0.226 OA
ATOM      7  N   UNL     1      -1.577   6.659  15.156  0.00  0.00    -0.279 N 
ATOM      8  H   UNL     1      -0.569   6.653  15.081  0.00  0.00    +0.152 HD
BRANCH   5   9
ATOM      9  O   UNL     1      -1.223   6.138  17.426  0.00  0.00    -0.444 OA
BRANCH   9  10
ATOM     10  C   UNL     1      -0.721   4.804  17.309  0.00  0.00    +0.292 C 
BRANCH  10  12
ATOM     11  N   UNL     1       1.324   3.881  18.334  0.00  0.00    -0.131 NA
ATOM     12  C   UNL     1       0.099   4.459  18.484  0.00  0.00    +0.121 A 
ATOM     13  C   UNL     1      -0.150   4.641  19.827  0.00  0.00    +0.143 A 
ATOM     14  N   UNL     1       0.915   4.056  20.473  0.00  0.00    -0.219 N 
ATOM     15  N   UNL     1       1.837   3.688  19.540  0.00  0.00    -0.060 NA
BRANCH  14  16
ATOM     16  C   UNL     1       1.194   3.909  21.862  0.00  0.00    +0.077 A 
ATOM     17  C   UNL     1       0.978   2.730  22.606  0.00  0.00    +0.043 A 
ATOM     18  C   UNL     1       1.253   2.741  23.989  0.00  0.00    +0.013 A 
ATOM     19  C   UNL     1       1.723   3.891  24.628  0.00  0.00    +0.001 A 
ATOM     20  C   UNL     1       1.958   5.043  23.892  0.00  0.00    +0.002 A 
ATOM     21  C   UNL     1       1.708   5.050  22.521  0.00  0.00    +0.028 A 
BRANCH  17  22
ATOM     22  C   UNL     1       0.676   1.402  21.991  0.00  0.00    +0.162 C 
ATOM     23  O   UNL     1       1.530   0.848  21.303  0.00  0.00    -0.292 OA
ATOM     24  C   UNL     1      -0.666   0.746  22.217  0.00  0.00    +0.091 C 
ENDBRANCH  17  22
ENDBRANCH  14  16
ENDBRANCH  10  12
ENDBRANCH   9  10
ENDBRANCH   5   9
ENDBRANCH   4   7
ENDBRANCH   1   4
BRANCH   1  25
ATOM     25  C   UNL     1      -2.842   9.394  14.101  0.00  0.00    +0.175 C 
BRANCH  25  26
ATOM     26  C   UNL     1      -3.159  10.594  13.197  0.00  0.00    +0.176 C 
ATOM     27  O   UNL     1      -1.921  11.016  12.562  0.00  0.00    -0.332 OA
ATOM     28  C   UNL     1      -2.049  12.092  11.575  0.00  0.00    +0.277 C 
ATOM     29  C   UNL     1      -2.760  13.317  12.200  0.00  0.00    +0.110 C 
ATOM     30  C   UNL     1      -4.067  12.914  12.915  0.00  0.00    +0.143 C 
ATOM     31  C   UNL     1      -3.819  11.786  13.916  0.00  0.00    +0.133 C 
BRANCH  31  32
ATOM     32  N   UNL     1      -5.085  11.351  14.527  0.00  0.00    -0.308 N 
ATOM     33  H   UNL     1      -5.765  10.900  13.932  0.00  0.00    +0.149 HD
ATOM     34  C   UNL     1      -5.393  11.515  15.817  0.00  0.00    +0.210 C 
ATOM     35  C   UNL     1      -4.346  12.229  16.691  0.00  0.00    +0.109 C 
ATOM     36  O   UNL     1      -6.456  11.127  16.304  0.00  0.00    -0.276 OA
ENDBRANCH  31  32
BRANCH  28  37
ATOM     37  C   UNL     1      -2.840  11.611  10.341  0.00  0.00    +0.414 C 
ATOM     38  O   UNL     1      -2.641  10.490   9.875  0.00  0.00    -0.240 OA
ATOM     39  O   UNL     1      -3.677  12.343   9.812  0.00  0.00    -0.240 OA
ENDBRANCH  28  37
BRANCH  30  40
ATOM     40  O   UNL     1      -4.608  14.043  13.602  0.00  0.00    -0.390 OA
ATOM     41  H   UNL     1      -4.519  14.826  13.053  0.00  0.00    +0.210 HD
ENDBRANCH  30  40
BRANCH  28  42
ATOM     42  O   UNL     1      -0.714  12.494  11.173  0.00  0.00    -0.343 OA
ATOM     43  C   UNL     1      -0.361  13.861  11.502  0.00  0.00    +0.198 C 
ENDBRANCH  28  42
ENDBRANCH  25  26
BRANCH  25  44
ATOM     44  O   UNL     1      -2.134   9.832  15.278  0.00  0.00    -0.387 OA
ATOM     45  H   UNL     1      -1.199   9.636  15.182  0.00  0.00    +0.210 HD
ENDBRANCH  25  44
ENDBRANCH   1  25
TORSDOF 15
