REMARK VINA RESULT:    -5.915     15.585     18.831
REMARK INTER + INTRA:         -13.119
REMARK INTER:                 -11.269
REMARK INTRA:                  -1.851
REMARK UNBOUND:                -2.536
REMARK  Name = lig_assembled_44.pdb
REMARK  17 active torsions:
REMARK  status: ('A' for Active; 'I' for Inactive)
REMARK    1  A    between atoms: _2  and  _9
REMARK    2  A    between atoms: _4  and  _19
REMARK    3  A    between atoms: _6  and  _7
REMARK    4  A    between atoms: _6  and  _19
REMARK    5  A    between atoms: _9  and  _10
REMARK    6  A    between atoms: _15  and  _35
REMARK    7  A    between atoms: _17  and  _23
REMARK    8  A    between atoms: _18  and  _22
REMARK    9  A    between atoms: _22  and  _23
REMARK   10  A    between atoms: _25  and  _26
REMARK   11  A    between atoms: _27  and  _28
REMARK   12  A    between atoms: _29  and  _31
REMARK   13  A    between atoms: _31  and  _32
REMARK   14  A    between atoms: _31  and  _33
REMARK   15  A    between atoms: _33  and  _34
REMARK   16  A    between atoms: _33  and  _35
REMARK   17  A    between atoms: _36  and  _38
REMARK                            x       y       z     vdW  Elec       q    Type
REMARK                         _______ _______ _______ _____ _____    ______ ____
ROOT
ATOM      1  C   UNL     1      17.447   1.533  26.296  0.00  0.00    +0.163 C 
ENDROOT
BRANCH   1   2
ATOM      2  O   UNL     1      17.141   0.463  27.205  0.00  0.00    -0.388 OA
ATOM      3  H   UNL     1      17.895   0.303  27.778  0.00  0.00    +0.210 HD
ENDBRANCH   1   2
BRANCH   1   4
ATOM      4  C   UNL     1      16.929   2.855  26.854  0.00  0.00    +0.141 C 
BRANCH   4   7
ATOM      5  C   UNL     1      18.726   4.403  26.161  0.00  0.00    +0.401 C 
ATOM      6  O   UNL     1      18.548   4.219  24.954  0.00  0.00    -0.226 OA
ATOM      7  N   UNL     1      18.019   3.802  27.119  0.00  0.00    -0.279 N 
ATOM      8  H   UNL     1      18.247   4.009  28.081  0.00  0.00    +0.152 HD
BRANCH   5   9
ATOM      9  O   UNL     1      19.751   5.307  26.581  0.00  0.00    -0.444 OA
BRANCH   9  10
ATOM     10  C   UNL     1      20.081   6.189  25.505  0.00  0.00    +0.292 C 
BRANCH  10  12
ATOM     11  N   UNL     1      20.892   8.529  25.598  0.00  0.00    -0.131 NA
ATOM     12  C   UNL     1      19.948   7.595  25.933  0.00  0.00    +0.120 A 
ATOM     13  C   UNL     1      18.951   8.203  26.659  0.00  0.00    +0.137 A 
ATOM     14  N   UNL     1      19.306   9.520  26.666  0.00  0.00    -0.247 N 
ATOM     15  N   UNL     1      20.494   9.707  26.063  0.00  0.00    -0.065 NA
BRANCH  14  16
ATOM     16  C   UNL     1      18.575  10.644  27.218  0.00  0.00    +0.180 C 
BRANCH  16  17
ATOM     17  C   UNL     1      18.922  10.869  28.671  0.00  0.00    -0.026 A 
ATOM     18  C   UNL     1      18.111  10.344  29.690  0.00  0.00    +0.006 A 
ATOM     19  C   UNL     1      18.425  10.567  31.032  0.00  0.00    +0.015 A 
ATOM     20  C   UNL     1      19.552  11.317  31.363  0.00  0.00    +0.018 A 
ATOM     21 BR   UNL     1      19.984  11.603  33.181  0.00  0.00    -0.050 Br
ATOM     22  C   UNL     1      20.361  11.856  30.366  0.00  0.00    +0.015 A 
ATOM     23  C   UNL     1      20.044  11.637  29.022  0.00  0.00    +0.006 A 
ENDBRANCH  16  17
ENDBRANCH  14  16
ENDBRANCH  10  12
ENDBRANCH   9  10
ENDBRANCH   5   9
ENDBRANCH   4   7
ENDBRANCH   1   4
BRANCH   1  24
ATOM     24  C   UNL     1      16.820   1.278  24.915  0.00  0.00    +0.175 C 
BRANCH  24  25
ATOM     25  C   UNL     1      17.831   0.685  23.922  0.00  0.00    +0.176 C 
ATOM     26  O   UNL     1      17.747   1.449  22.688  0.00  0.00    -0.332 OA
ATOM     27  C   UNL     1      18.722   1.091  21.653  0.00  0.00    +0.277 C 
ATOM     28  C   UNL     1      18.643  -0.423  21.337  0.00  0.00    +0.110 C 
ATOM     29  C   UNL     1      18.697  -1.276  22.622  0.00  0.00    +0.143 C 
ATOM     30  C   UNL     1      17.644  -0.816  23.630  0.00  0.00    +0.133 C 
BRANCH  30  31
ATOM     31  N   UNL     1      17.762  -1.579  24.883  0.00  0.00    -0.308 N 
ATOM     32  H   UNL     1      18.587  -1.434  25.447  0.00  0.00    +0.149 HD
ATOM     33  C   UNL     1      16.849  -2.449  25.323  0.00  0.00    +0.210 C 
ATOM     34  C   UNL     1      15.615  -2.666  24.427  0.00  0.00    +0.109 C 
ATOM     35  O   UNL     1      16.968  -3.063  26.384  0.00  0.00    -0.276 OA
ENDBRANCH  30  31
BRANCH  27  36
ATOM     36  C   UNL     1      20.154   1.451  22.102  0.00  0.00    +0.414 C 
ATOM     37  O   UNL     1      21.121   1.095  21.430  0.00  0.00    -0.240 OA
ATOM     38  O   UNL     1      20.341   2.096  23.134  0.00  0.00    -0.240 OA
ENDBRANCH  27  36
BRANCH  27  39
ATOM     39  O   UNL     1      18.388   1.827  20.448  0.00  0.00    -0.343 OA
ATOM     40  C   UNL     1      16.983   1.811  20.090  0.00  0.00    +0.198 C 
ENDBRANCH  27  39
BRANCH  29  41
ATOM     41  O   UNL     1      18.470  -2.649  22.298  0.00  0.00    -0.390 OA
ATOM     42  H   UNL     1      17.759  -2.713  21.656  0.00  0.00    +0.210 HD
ENDBRANCH  29  41
ENDBRANCH  24  25
BRANCH  24  43
ATOM     43  O   UNL     1      16.265   2.499  24.388  0.00  0.00    -0.387 OA
ATOM     44  H   UNL     1      15.522   2.293  23.816  0.00  0.00    +0.210 HD
ENDBRANCH  24  43
ENDBRANCH   1  24
TORSDOF 15
