REMARK VINA RESULT:    -6.333      1.958      3.172
REMARK INTER + INTRA:         -14.645
REMARK INTER:                 -12.524
REMARK INTRA:                  -2.121
REMARK UNBOUND:                -3.313
REMARK  Name = lig_assembled_71.pdb
REMARK  17 active torsions:
REMARK  status: ('A' for Active; 'I' for Inactive)
REMARK    1  A    between atoms: _2  and  _12
REMARK    2  A    between atoms: _7  and  _22
REMARK    3  A    between atoms: _9  and  _10
REMARK    4  A    between atoms: _9  and  _22
REMARK    5  A    between atoms: _12  and  _13
REMARK    6  A    between atoms: _18  and  _38
REMARK    7  A    between atoms: _20  and  _26
REMARK    8  A    between atoms: _21  and  _25
REMARK    9  A    between atoms: _25  and  _26
REMARK   10  A    between atoms: _28  and  _29
REMARK   11  A    between atoms: _30  and  _31
REMARK   12  A    between atoms: _32  and  _34
REMARK   13  A    between atoms: _34  and  _35
REMARK   14  A    between atoms: _34  and  _36
REMARK   15  A    between atoms: _36  and  _37
REMARK   16  A    between atoms: _36  and  _38
REMARK   17  A    between atoms: _39  and  _41
REMARK                            x       y       z     vdW  Elec       q    Type
REMARK                         _______ _______ _______ _____ _____    ______ ____
ROOT
ATOM      1  C   UNL     1       7.228   3.946  33.624  0.00  0.00    +0.163 C 
ENDROOT
BRANCH   1   2
ATOM      2  O   UNL     1       7.763   5.040  32.862  0.00  0.00    -0.388 OA
ATOM      3  H   UNL     1       8.545   5.384  33.300  0.00  0.00    +0.210 HD
ENDBRANCH   1   2
BRANCH   1   4
ATOM      4  C   UNL     1       6.893   2.780  32.700  0.00  0.00    +0.141 C 
BRANCH   4   7
ATOM      5  C   UNL     1       4.597   2.404  31.868  0.00  0.00    +0.401 C 
ATOM      6  O   UNL     1       4.380   1.452  32.620  0.00  0.00    -0.226 OA
ATOM      7  N   UNL     1       5.747   3.080  31.834  0.00  0.00    -0.279 N 
ATOM      8  H   UNL     1       5.833   3.841  31.175  0.00  0.00    +0.152 HD
BRANCH   5   9
ATOM      9  O   UNL     1       3.571   2.825  30.966  0.00  0.00    -0.444 OA
BRANCH   9  10
ATOM     10  C   UNL     1       2.439   3.283  31.710  0.00  0.00    +0.292 C 
BRANCH  10  12
ATOM     11  N   UNL     1       0.637   4.787  30.899  0.00  0.00    -0.131 NA
ATOM     12  C   UNL     1       1.322   3.603  30.801  0.00  0.00    +0.120 A 
ATOM     13  C   UNL     1       0.792   2.865  29.769  0.00  0.00    +0.137 A 
ATOM     14  N   UNL     1      -0.222   3.641  29.288  0.00  0.00    -0.242 N 
ATOM     15  N   UNL     1      -0.302   4.804  29.962  0.00  0.00    -0.065 NA
BRANCH  14  16
ATOM     16  C   UNL     1      -1.072   3.410  28.138  0.00  0.00    +0.241 C 
BRANCH  16  17
ATOM     17  C   UNL     1      -0.544   4.096  26.905  0.00  0.00    +0.241 C 
ATOM     18  O   UNL     1      -0.834   5.270  26.682  0.00  0.00    -0.273 OA
ATOM     19  N   UNL     1       0.191   3.284  26.067  0.00  0.00    -0.253 N 
ATOM     20  H   UNL     1       0.232   2.284  26.189  0.00  0.00    +0.158 HD
ATOM     21  C   UNL     1       0.788   3.722  24.891  0.00  0.00    +0.221 A 
ATOM     22  N   UNL     1       1.207   2.752  24.064  0.00  0.00    -0.223 NA
ATOM     23  C   UNL     1       1.722   3.159  22.883  0.00  0.00    +0.116 A 
ATOM     24  C   UNL     1       1.855   4.478  22.521  0.00  0.00    +0.039 A 
ATOM     25  C   UNL     1       1.439   5.386  23.457  0.00  0.00    +0.116 A 
ATOM     26  N   UNL     1       0.908   5.029  24.637  0.00  0.00    -0.223 NA
ENDBRANCH  16  17
ENDBRANCH  14  16
ENDBRANCH  10  12
ENDBRANCH   9  10
ENDBRANCH   5   9
ENDBRANCH   4   7
ENDBRANCH   1   4
BRANCH   1  27
ATOM     27  C   UNL     1       5.964   4.374  34.390  0.00  0.00    +0.175 C 
BRANCH  27  28
ATOM     28  C   UNL     1       6.264   5.447  35.447  0.00  0.00    +0.176 C 
ATOM     29  O   UNL     1       7.649   5.291  35.861  0.00  0.00    -0.332 OA
ATOM     30  C   UNL     1       8.149   6.303  36.797  0.00  0.00    +0.277 C 
ATOM     31  C   UNL     1       7.235   6.385  38.044  0.00  0.00    +0.110 C 
ATOM     32  C   UNL     1       5.748   6.519  37.653  0.00  0.00    +0.143 C 
ATOM     33  C   UNL     1       5.336   5.418  36.675  0.00  0.00    +0.133 C 
BRANCH  33  34
ATOM     34  N   UNL     1       3.943   5.607  36.243  0.00  0.00    -0.308 N 
ATOM     35  H   UNL     1       3.746   6.362  35.601  0.00  0.00    +0.149 HD
ATOM     36  C   UNL     1       2.920   4.848  36.645  0.00  0.00    +0.210 C 
ATOM     37  C   UNL     1       3.248   3.723  37.645  0.00  0.00    +0.109 C 
ATOM     38  O   UNL     1       1.765   5.021  36.255  0.00  0.00    -0.276 OA
ENDBRANCH  33  34
BRANCH  30  39
ATOM     39  C   UNL     1       8.220   7.687  36.119  0.00  0.00    +0.414 C 
ATOM     40  O   UNL     1       8.264   8.710  36.801  0.00  0.00    -0.240 OA
ATOM     41  O   UNL     1       8.232   7.781  34.891  0.00  0.00    -0.240 OA
ENDBRANCH  30  39
BRANCH  30  42
ATOM     42  O   UNL     1       9.475   5.902  37.227  0.00  0.00    -0.343 OA
ATOM     43  C   UNL     1       9.650   5.807  38.663  0.00  0.00    +0.198 C 
ENDBRANCH  30  42
BRANCH  32  44
ATOM     44  O   UNL     1       4.933   6.438  38.824  0.00  0.00    -0.390 OA
ATOM     45  H   UNL     1       4.751   7.322  39.149  0.00  0.00    +0.210 HD
ENDBRANCH  32  44
ENDBRANCH  27  28
BRANCH  27  46
ATOM     46  O   UNL     1       5.345   3.228  35.007  0.00  0.00    -0.387 OA
ATOM     47  H   UNL     1       6.019   2.583  35.233  0.00  0.00    +0.210 HD
ENDBRANCH  27  46
ENDBRANCH   1  27
TORSDOF 15
