REMARK VINA RESULT:    -7.013     14.959     18.810
REMARK INTER + INTRA:         -14.105
REMARK INTER:                 -12.461
REMARK INTRA:                  -1.644
REMARK UNBOUND:                -1.557
REMARK  Name = lig_assembled_28.pdb
REMARK  17 active torsions:
REMARK  status: ('A' for Active; 'I' for Inactive)
REMARK    1  A    between atoms: _2  and  _9
REMARK    2  A    between atoms: _4  and  _22
REMARK    3  A    between atoms: _6  and  _7
REMARK    4  A    between atoms: _6  and  _22
REMARK    5  A    between atoms: _9  and  _10
REMARK    6  A    between atoms: _18  and  _38
REMARK    7  A    between atoms: _20  and  _26
REMARK    8  A    between atoms: _21  and  _25
REMARK    9  A    between atoms: _25  and  _26
REMARK   10  A    between atoms: _28  and  _29
REMARK   11  A    between atoms: _30  and  _31
REMARK   12  A    between atoms: _32  and  _34
REMARK   13  A    between atoms: _34  and  _35
REMARK   14  A    between atoms: _34  and  _36
REMARK   15  A    between atoms: _36  and  _37
REMARK   16  A    between atoms: _36  and  _38
REMARK   17  A    between atoms: _39  and  _41
REMARK                            x       y       z     vdW  Elec       q    Type
REMARK                         _______ _______ _______ _____ _____    ______ ____
ROOT
ATOM      1  C   UNL     1      17.139   1.892  26.172  0.00  0.00    +0.163 C 
ENDROOT
BRANCH   1   2
ATOM      2  O   UNL     1      16.154   2.668  26.874  0.00  0.00    -0.388 OA
ATOM      3  H   UNL     1      15.454   2.090  27.187  0.00  0.00    +0.210 HD
ENDBRANCH   1   2
BRANCH   1   4
ATOM      4  C   UNL     1      18.441   2.679  26.062  0.00  0.00    +0.141 C 
BRANCH   4   7
ATOM      5  C   UNL     1      18.983   5.007  25.435  0.00  0.00    +0.401 C 
ATOM      6  O   UNL     1      19.982   4.698  24.782  0.00  0.00    -0.226 OA
ATOM      7  N   UNL     1      18.207   4.128  26.072  0.00  0.00    -0.279 N 
ATOM      8  H   UNL     1      17.414   4.480  26.590  0.00  0.00    +0.152 HD
BRANCH   5   9
ATOM      9  O   UNL     1      18.616   6.386  25.533  0.00  0.00    -0.444 OA
BRANCH   9  10
ATOM     10  C   UNL     1      19.796   7.189  25.614  0.00  0.00    +0.292 C 
BRANCH  10  12
ATOM     11  N   UNL     1      18.578   9.067  26.679  0.00  0.00    -0.131 NA
ATOM     12  C   UNL     1      19.649   8.215  26.664  0.00  0.00    +0.120 A 
ATOM     13  C   UNL     1      20.449   8.479  27.751  0.00  0.00    +0.137 A 
ATOM     14  N   UNL     1      19.763   9.435  28.445  0.00  0.00    -0.247 N 
ATOM     15  N   UNL     1      18.664   9.820  27.768  0.00  0.00    -0.065 NA
BRANCH  14  16
ATOM     16  C   UNL     1      19.996   9.986  29.774  0.00  0.00    +0.180 C 
BRANCH  16  17
ATOM     17  C   UNL     1      18.918   9.637  30.773  0.00  0.00    -0.022 A 
ATOM     18  C   UNL     1      18.219  10.657  31.444  0.00  0.00    +0.055 A 
ATOM     19  C   UNL     1      17.168  10.293  32.258  0.00  0.00    +0.167 A 
ATOM     20  O   UNL     1      16.355  11.151  32.933  0.00  0.00    -0.453 OA
ATOM     21  C   UNL     1      15.394  10.228  33.487  0.00  0.00    +0.466 C 
ATOM     22  O   UNL     1      15.733   8.843  33.261  0.00  0.00    -0.453 OA
ATOM     23  C   UNL     1      16.815   8.980  32.447  0.00  0.00    +0.166 A 
ATOM     24  C   UNL     1      17.498   7.951  31.835  0.00  0.00    +0.050 A 
ATOM     25  C   UNL     1      18.556   8.286  30.984  0.00  0.00    +0.009 A 
ENDBRANCH  16  17
ENDBRANCH  14  16
ENDBRANCH  10  12
ENDBRANCH   9  10
ENDBRANCH   5   9
ENDBRANCH   4   7
ENDBRANCH   1   4
BRANCH   1  26
ATOM     26  C   UNL     1      16.644   1.518  24.765  0.00  0.00    +0.175 C 
BRANCH  26  27
ATOM     27  C   UNL     1      17.717   0.778  23.952  0.00  0.00    +0.176 C 
ATOM     28  O   UNL     1      17.781   1.390  22.635  0.00  0.00    -0.332 OA
ATOM     29  C   UNL     1      18.831   0.878  21.749  0.00  0.00    +0.277 C 
ATOM     30  C   UNL     1      18.718  -0.659  21.607  0.00  0.00    +0.110 C 
ATOM     31  C   UNL     1      18.616  -1.352  22.983  0.00  0.00    +0.143 C 
ATOM     32  C   UNL     1      17.494  -0.740  23.822  0.00  0.00    +0.133 C 
BRANCH  32  33
ATOM     33  N   UNL     1      17.462  -1.349  25.162  0.00  0.00    -0.308 N 
ATOM     34  H   UNL     1      18.197  -1.101  25.810  0.00  0.00    +0.149 HD
ATOM     35  C   UNL     1      16.527  -2.207  25.577  0.00  0.00    +0.210 C 
ATOM     36  C   UNL     1      15.436  -2.585  24.557  0.00  0.00    +0.109 C 
ATOM     37  O   UNL     1      16.517  -2.690  26.710  0.00  0.00    -0.276 OA
ENDBRANCH  32  33
BRANCH  29  38
ATOM     38  C   UNL     1      20.229   1.245  22.289  0.00  0.00    +0.414 C 
ATOM     39  O   UNL     1      21.128   0.405  22.306  0.00  0.00    -0.240 OA
ATOM     40  O   UNL     1      20.458   2.381  22.708  0.00  0.00    -0.240 OA
ENDBRANCH  29  38
BRANCH  29  41
ATOM     41  O   UNL     1      18.642   1.473  20.439  0.00  0.00    -0.343 OA
ATOM     42  C   UNL     1      17.267   1.783  20.099  0.00  0.00    +0.198 C 
ENDBRANCH  29  41
BRANCH  31  43
ATOM     43  O   UNL     1      18.362  -2.746  22.802  0.00  0.00    -0.390 OA
ATOM     44  H   UNL     1      17.936  -3.098  23.587  0.00  0.00    +0.210 HD
ENDBRANCH  31  43
ENDBRANCH  26  27
BRANCH  26  45
ATOM     45  O   UNL     1      16.214   2.699  24.059  0.00  0.00    -0.387 OA
ATOM     46  H   UNL     1      16.814   3.423  24.251  0.00  0.00    +0.210 HD
ENDBRANCH  26  45
ENDBRANCH   1  26
TORSDOF 15
