REMARK VINA RESULT:    -5.780     14.187     16.524
REMARK INTER + INTRA:         -13.655
REMARK INTER:                 -11.436
REMARK INTRA:                  -2.219
REMARK UNBOUND:                -3.313
REMARK  Name = lig_assembled_71.pdb
REMARK  17 active torsions:
REMARK  status: ('A' for Active; 'I' for Inactive)
REMARK    1  A    between atoms: _2  and  _12
REMARK    2  A    between atoms: _7  and  _22
REMARK    3  A    between atoms: _9  and  _10
REMARK    4  A    between atoms: _9  and  _22
REMARK    5  A    between atoms: _12  and  _13
REMARK    6  A    between atoms: _18  and  _38
REMARK    7  A    between atoms: _20  and  _26
REMARK    8  A    between atoms: _21  and  _25
REMARK    9  A    between atoms: _25  and  _26
REMARK   10  A    between atoms: _28  and  _29
REMARK   11  A    between atoms: _30  and  _31
REMARK   12  A    between atoms: _32  and  _34
REMARK   13  A    between atoms: _34  and  _35
REMARK   14  A    between atoms: _34  and  _36
REMARK   15  A    between atoms: _36  and  _37
REMARK   16  A    between atoms: _36  and  _38
REMARK   17  A    between atoms: _39  and  _41
REMARK                            x       y       z     vdW  Elec       q    Type
REMARK                         _______ _______ _______ _____ _____    ______ ____
ROOT
ATOM      1  C   UNL     1      16.061   1.737  25.610  0.00  0.00    +0.163 C 
ENDROOT
BRANCH   1   2
ATOM      2  O   UNL     1      16.557   2.610  26.638  0.00  0.00    -0.388 OA
ATOM      3  H   UNL     1      15.854   3.196  26.928  0.00  0.00    +0.210 HD
ENDBRANCH   1   2
BRANCH   1   4
ATOM      4  C   UNL     1      16.272   0.282  26.015  0.00  0.00    +0.141 C 
BRANCH   4   7
ATOM      5  C   UNL     1      16.167  -1.736  24.592  0.00  0.00    +0.401 C 
ATOM      6  O   UNL     1      17.329  -2.076  24.827  0.00  0.00    -0.226 OA
ATOM      7  N   UNL     1      15.593  -0.644  25.100  0.00  0.00    -0.279 N 
ATOM      8  H   UNL     1      14.637  -0.444  24.841  0.00  0.00    +0.152 HD
BRANCH   5   9
ATOM      9  O   UNL     1      15.369  -2.543  23.723  0.00  0.00    -0.444 OA
BRANCH   9  10
ATOM     10  C   UNL     1      16.153  -3.632  23.229  0.00  0.00    +0.292 C 
BRANCH  10  12
ATOM     11  N   UNL     1      15.123  -5.419  24.610  0.00  0.00    -0.131 NA
ATOM     12  C   UNL     1      15.417  -4.902  23.375  0.00  0.00    +0.120 A 
ATOM     13  C   UNL     1      14.919  -5.743  22.409  0.00  0.00    +0.137 A 
ATOM     14  N   UNL     1      14.347  -6.762  23.114  0.00  0.00    -0.242 N 
ATOM     15  N   UNL     1      14.460  -6.555  24.438  0.00  0.00    -0.065 NA
BRANCH  14  16
ATOM     16  C   UNL     1      13.586  -7.891  22.617  0.00  0.00    +0.241 C 
BRANCH  16  17
ATOM     17  C   UNL     1      12.142  -7.530  22.383  0.00  0.00    +0.241 C 
ATOM     18  O   UNL     1      11.278  -7.903  23.174  0.00  0.00    -0.273 OA
ATOM     19  N   UNL     1      11.906  -6.847  21.209  0.00  0.00    -0.253 N 
ATOM     20  H   UNL     1      12.612  -6.741  20.497  0.00  0.00    +0.158 HD
ATOM     21  C   UNL     1      10.651  -6.399  20.812  0.00  0.00    +0.221 A 
ATOM     22  N   UNL     1      10.556  -6.019  19.529  0.00  0.00    -0.223 NA
ATOM     23  C   UNL     1       9.327  -5.652  19.106  0.00  0.00    +0.116 A 
ATOM     24  C   UNL     1       8.217  -5.626  19.915  0.00  0.00    +0.039 A 
ATOM     25  C   UNL     1       8.434  -5.988  21.217  0.00  0.00    +0.116 A 
ATOM     26  N   UNL     1       9.634  -6.374  21.678  0.00  0.00    -0.223 NA
ENDBRANCH  16  17
ENDBRANCH  14  16
ENDBRANCH  10  12
ENDBRANCH   9  10
ENDBRANCH   5   9
ENDBRANCH   4   7
ENDBRANCH   1   4
BRANCH   1  27
ATOM     27  C   UNL     1      16.770   2.006  24.271  0.00  0.00    +0.175 C 
BRANCH  27  28
ATOM     28  C   UNL     1      18.262   2.314  24.459  0.00  0.00    +0.176 C 
ATOM     29  O   UNL     1      18.394   3.736  24.736  0.00  0.00    -0.332 OA
ATOM     30  C   UNL     1      19.749   4.198  25.049  0.00  0.00    +0.277 C 
ATOM     31  C   UNL     1      20.733   3.791  23.925  0.00  0.00    +0.110 C 
ATOM     32  C   UNL     1      20.608   2.293  23.574  0.00  0.00    +0.143 C 
ATOM     33  C   UNL     1      19.157   1.921  23.268  0.00  0.00    +0.133 C 
BRANCH  33  34
ATOM     34  N   UNL     1      19.037   0.476  23.020  0.00  0.00    -0.308 N 
ATOM     35  H   UNL     1      19.376  -0.155  23.733  0.00  0.00    +0.149 HD
ATOM     36  C   UNL     1      18.509  -0.057  21.915  0.00  0.00    +0.210 C 
ATOM     37  C   UNL     1      18.025   0.931  20.837  0.00  0.00    +0.109 C 
ATOM     38  O   UNL     1      18.408  -1.272  21.741  0.00  0.00    -0.276 OA
ENDBRANCH  33  34
BRANCH  30  39
ATOM     39  C   UNL     1      20.230   3.612  26.393  0.00  0.00    +0.414 C 
ATOM     40  O   UNL     1      19.415   3.295  27.258  0.00  0.00    -0.240 OA
ATOM     41  O   UNL     1      21.432   3.456  26.611  0.00  0.00    -0.240 OA
ENDBRANCH  30  39
BRANCH  30  42
ATOM     42  O   UNL     1      19.722   5.647  25.130  0.00  0.00    -0.343 OA
ATOM     43  C   UNL     1      18.868   6.298  24.156  0.00  0.00    +0.198 C 
ENDBRANCH  30  42
BRANCH  32  44
ATOM     44  O   UNL     1      21.419   1.996  22.437  0.00  0.00    -0.390 OA
ATOM     45  H   UNL     1      20.859   1.723  21.706  0.00  0.00    +0.210 HD
ENDBRANCH  32  44
ENDBRANCH  27  28
BRANCH  27  46
ATOM     46  O   UNL     1      16.122   3.090  23.575  0.00  0.00    -0.387 OA
ATOM     47  H   UNL     1      15.729   2.760  22.764  0.00  0.00    +0.210 HD
ENDBRANCH  27  46
ENDBRANCH   1  27
TORSDOF 15
