REMARK VINA RESULT:    -6.043      4.603      5.836
REMARK INTER + INTRA:         -13.027
REMARK INTER:                 -12.051
REMARK INTRA:                  -0.976
REMARK UNBOUND:                -2.568
REMARK  Name = lig_assembled_27.pdb
REMARK  16 active torsions:
REMARK  status: ('A' for Active; 'I' for Inactive)
REMARK    1  A    between atoms: _2  and  _9
REMARK    2  A    between atoms: _4  and  _18
REMARK    3  A    between atoms: _6  and  _7
REMARK    4  A    between atoms: _6  and  _18
REMARK    5  A    between atoms: _14  and  _34
REMARK    6  A    between atoms: _16  and  _22
REMARK    7  A    between atoms: _17  and  _21
REMARK    8  A    between atoms: _21  and  _22
REMARK    9  A    between atoms: _24  and  _25
REMARK   10  A    between atoms: _26  and  _27
REMARK   11  A    between atoms: _28  and  _30
REMARK   12  A    between atoms: _30  and  _31
REMARK   13  A    between atoms: _30  and  _32
REMARK   14  A    between atoms: _32  and  _33
REMARK   15  A    between atoms: _32  and  _34
REMARK   16  A    between atoms: _35  and  _37
REMARK                            x       y       z     vdW  Elec       q    Type
REMARK                         _______ _______ _______ _____ _____    ______ ____
ROOT
ATOM      1  C   UNL     1       4.535   2.851  32.765  0.00  0.00    +0.163 C 
ENDROOT
BRANCH   1   2
ATOM      2  O   UNL     1       5.698   3.268  32.032  0.00  0.00    -0.388 OA
ATOM      3  H   UNL     1       6.468   3.233  32.605  0.00  0.00    +0.210 HD
ENDBRANCH   1   2
BRANCH   1   4
ATOM      4  C   UNL     1       3.375   3.803  32.488  0.00  0.00    +0.141 C 
BRANCH   4   7
ATOM      5  C   UNL     1       1.450   3.901  30.942  0.00  0.00    +0.401 C 
ATOM      6  O   UNL     1       1.336   5.127  31.012  0.00  0.00    -0.226 OA
ATOM      7  N   UNL     1       2.371   3.199  31.603  0.00  0.00    -0.279 N 
ATOM      8  H   UNL     1       2.379   2.195  31.488  0.00  0.00    +0.152 HD
BRANCH   5   9
ATOM      9  O   UNL     1       0.548   3.167  30.111  0.00  0.00    -0.444 OA
BRANCH   9  10
ATOM     10  C   UNL     1       1.284   2.480  29.096  0.00  0.00    +0.292 C 
BRANCH  10  12
ATOM     11  N   UNL     1       0.058   4.029  27.604  0.00  0.00    -0.131 NA
ATOM     12  C   UNL     1       1.042   3.098  27.779  0.00  0.00    +0.121 A 
ATOM     13  C   UNL     1       1.684   2.894  26.580  0.00  0.00    +0.143 A 
ATOM     14  N   UNL     1       1.059   3.738  25.691  0.00  0.00    -0.220 N 
ATOM     15  N   UNL     1       0.074   4.412  26.335  0.00  0.00    -0.060 NA
BRANCH  14  16
ATOM     16  C   UNL     1       1.331   3.939  24.314  0.00  0.00    +0.068 A 
ATOM     17  C   UNL     1       1.469   5.243  23.814  0.00  0.00    +0.028 A 
ATOM     18  C   UNL     1       1.733   5.453  22.458  0.00  0.00    +0.003 A 
ATOM     19  C   UNL     1       1.862   4.367  21.595  0.00  0.00    +0.020 A 
ATOM     20  C   UNL     1       1.728   3.072  22.090  0.00  0.00    +0.043 A 
ATOM     21 CL   UNL     1       1.888   1.730  21.024  0.00  0.00    -0.083 Cl
ATOM     22  C   UNL     1       1.464   2.848  23.443  0.00  0.00    +0.047 A 
ENDBRANCH  14  16
ENDBRANCH  10  12
ENDBRANCH   9  10
ENDBRANCH   5   9
ENDBRANCH   4   7
ENDBRANCH   1   4
BRANCH   1  23
ATOM     23  C   UNL     1       4.820   2.815  34.276  0.00  0.00    +0.175 C 
BRANCH  23  24
ATOM     24  C   UNL     1       5.014   4.221  34.861  0.00  0.00    +0.176 C 
ATOM     25  O   UNL     1       6.443   4.455  34.999  0.00  0.00    -0.332 OA
ATOM     26  C   UNL     1       6.825   5.797  35.448  0.00  0.00    +0.277 C 
ATOM     27  C   UNL     1       6.107   6.149  36.774  0.00  0.00    +0.110 C 
ATOM     28  C   UNL     1       4.589   5.886  36.687  0.00  0.00    +0.143 C 
ATOM     29  C   UNL     1       4.305   4.462  36.207  0.00  0.00    +0.133 C 
BRANCH  29  30
ATOM     30  N   UNL     1       2.858   4.252  36.045  0.00  0.00    -0.308 N 
ATOM     31  H   UNL     1       2.375   4.808  35.355  0.00  0.00    +0.149 HD
ATOM     32  C   UNL     1       2.142   3.373  36.751  0.00  0.00    +0.210 C 
ATOM     33  C   UNL     1       2.902   2.558  37.814  0.00  0.00    +0.109 C 
ATOM     34  O   UNL     1       0.933   3.207  36.584  0.00  0.00    -0.276 OA
ENDBRANCH  29  30
BRANCH  26  35
ATOM     35  C   UNL     1       6.476   6.852  34.377  0.00  0.00    +0.414 C 
ATOM     36  O   UNL     1       7.371   7.452  33.782  0.00  0.00    -0.240 OA
ATOM     37  O   UNL     1       5.300   7.104  34.109  0.00  0.00    -0.240 OA
ENDBRANCH  26  35
BRANCH  28  38
ATOM     38  O   UNL     1       3.993   6.078  37.970  0.00  0.00    -0.390 OA
ATOM     39  H   UNL     1       4.399   5.483  38.605  0.00  0.00    +0.210 HD
ENDBRANCH  28  38
BRANCH  26  40
ATOM     40  O   UNL     1       8.256   5.800  35.687  0.00  0.00    -0.343 OA
ATOM     41  C   UNL     1       8.661   6.350  36.966  0.00  0.00    +0.198 C 
ENDBRANCH  26  40
ENDBRANCH  23  24
BRANCH  23  42
ATOM     42  O   UNL     1       5.980   2.001  34.543  0.00  0.00    -0.387 OA
ATOM     43  H   UNL     1       6.608   2.092  33.822  0.00  0.00    +0.210 HD
ENDBRANCH  23  42
ENDBRANCH   1  23
TORSDOF 14
