REMARK VINA RESULT:    -6.522      2.039      3.350
REMARK INTER + INTRA:         -15.457
REMARK INTER:                 -13.085
REMARK INTRA:                  -2.372
REMARK UNBOUND:                -2.643
REMARK  Name = lig_assembled_37.pdb
REMARK  21 active torsions:
REMARK  status: ('A' for Active; 'I' for Inactive)
REMARK    1  A    between atoms: _2  and  _9
REMARK    2  A    between atoms: _4  and  _24
REMARK    3  A    between atoms: _6  and  _7
REMARK    4  A    between atoms: _6  and  _24
REMARK    5  A    between atoms: _9  and  _10
REMARK    6  A    between atoms: _9  and  _11
REMARK    7  A    between atoms: _11  and  _18
REMARK    8  A    between atoms: _12  and  _13
REMARK    9  A    between atoms: _12  and  _18
REMARK   10  A    between atoms: _20  and  _40
REMARK   11  A    between atoms: _22  and  _28
REMARK   12  A    between atoms: _23  and  _27
REMARK   13  A    between atoms: _27  and  _28
REMARK   14  A    between atoms: _30  and  _31
REMARK   15  A    between atoms: _32  and  _33
REMARK   16  A    between atoms: _34  and  _36
REMARK   17  A    between atoms: _36  and  _37
REMARK   18  A    between atoms: _36  and  _38
REMARK   19  A    between atoms: _38  and  _39
REMARK   20  A    between atoms: _38  and  _40
REMARK   21  A    between atoms: _41  and  _43
REMARK                            x       y       z     vdW  Elec       q    Type
REMARK                         _______ _______ _______ _____ _____    ______ ____
ROOT
ATOM      1  C   UNL     1       1.585   3.334  33.126  0.00  0.00    +0.141 C 
ENDROOT
BRANCH   1   4
ATOM      2  C   UNL     1       0.814   3.930  30.855  0.00  0.00    +0.401 C 
ATOM      3  O   UNL     1       1.091   5.126  30.973  0.00  0.00    -0.226 OA
ATOM      4  N   UNL     1       1.006   3.022  31.813  0.00  0.00    -0.279 N 
ATOM      5  H   UNL     1       0.738   2.067  31.625  0.00  0.00    +0.152 HD
BRANCH   2   6
ATOM      6  O   UNL     1       0.248   3.467  29.627  0.00  0.00    -0.444 OA
BRANCH   6   7
ATOM      7  C   UNL     1       1.054   2.410  29.098  0.00  0.00    +0.292 C 
BRANCH   7   9
ATOM      8  N   UNL     1       2.222   3.885  27.484  0.00  0.00    -0.131 NA
ATOM      9  C   UNL     1       1.510   2.742  27.735  0.00  0.00    +0.120 A 
ATOM     10  C   UNL     1       1.340   2.051  26.557  0.00  0.00    +0.138 A 
ATOM     11  N   UNL     1       1.945   2.835  25.621  0.00  0.00    -0.238 N 
ATOM     12  N   UNL     1       2.490   3.928  26.187  0.00  0.00    -0.065 NA
BRANCH  11  13
ATOM     13  C   UNL     1       2.116   2.605  24.199  0.00  0.00    +0.214 C 
ATOM     14  C   UNL     1       2.851   1.293  23.930  0.00  0.00    +0.045 C 
BRANCH  13  15
ATOM     15  C   UNL     1       0.785   2.617  23.480  0.00  0.00    +0.332 C 
ATOM     16  O   UNL     1       0.087   1.624  23.314  0.00  0.00    -0.248 OA
BRANCH  15  17
ATOM     17  O   UNL     1       0.474   3.867  23.045  0.00  0.00    -0.458 OA
BRANCH  17  18
ATOM     18  C   UNL     1       1.458   4.513  22.222  0.00  0.00    +0.267 C 
BRANCH  18  19
ATOM     19  C   UNL     1       1.125   4.311  20.766  0.00  0.00    -0.010 A 
ATOM     20  C   UNL     1       2.023   3.650  19.916  0.00  0.00    +0.007 A 
ATOM     21  C   UNL     1       1.704   3.438  18.574  0.00  0.00    +0.000 A 
ATOM     22  C   UNL     1       0.485   3.885  18.067  0.00  0.00    +0.000 A 
ATOM     23  C   UNL     1      -0.413   4.549  18.900  0.00  0.00    +0.000 A 
ATOM     24  C   UNL     1      -0.094   4.764  20.243  0.00  0.00    +0.007 A 
ENDBRANCH  18  19
ENDBRANCH  17  18
ENDBRANCH  15  17
ENDBRANCH  13  15
ENDBRANCH  11  13
ENDBRANCH   7   9
ENDBRANCH   6   7
ENDBRANCH   2   6
ENDBRANCH   1   4
BRANCH   1  25
ATOM     25  C   UNL     1       3.109   3.305  33.096  0.00  0.00    +0.163 C 
BRANCH  25  26
ATOM     26  O   UNL     1       3.611   4.500  32.475  0.00  0.00    -0.388 OA
ATOM     27  H   UNL     1       4.556   4.412  32.329  0.00  0.00    +0.210 HD
ENDBRANCH  25  26
BRANCH  25  28
ATOM     28  C   UNL     1       3.649   3.163  34.530  0.00  0.00    +0.175 C 
BRANCH  28  29
ATOM     29  C   UNL     1       5.180   3.269  34.585  0.00  0.00    +0.176 C 
ATOM     30  O   UNL     1       5.539   4.661  34.364  0.00  0.00    -0.332 OA
ATOM     31  C   UNL     1       6.966   4.975  34.487  0.00  0.00    +0.277 C 
ATOM     32  C   UNL     1       7.802   4.064  33.554  0.00  0.00    +0.110 C 
ATOM     33  C   UNL     1       7.433   2.576  33.730  0.00  0.00    +0.143 C 
ATOM     34  C   UNL     1       5.925   2.365  33.586  0.00  0.00    +0.133 C 
BRANCH  34  35
ATOM     35  N   UNL     1       5.576   0.958  33.842  0.00  0.00    -0.308 N 
ATOM     36  H   UNL     1       5.692   0.607  34.782  0.00  0.00    +0.149 HD
ATOM     37  C   UNL     1       5.115   0.116  32.913  0.00  0.00    +0.210 C 
ATOM     38  C   UNL     1       4.974   0.675  31.484  0.00  0.00    +0.109 C 
ATOM     39  O   UNL     1       4.816  -1.053  33.159  0.00  0.00    -0.276 OA
ENDBRANCH  34  35
BRANCH  31  40
ATOM     40  C   UNL     1       7.442   4.797  35.944  0.00  0.00    +0.414 C 
ATOM     41  O   UNL     1       6.669   5.005  36.878  0.00  0.00    -0.240 OA
ATOM     42  O   UNL     1       8.597   4.445  36.184  0.00  0.00    -0.240 OA
ENDBRANCH  31  40
BRANCH  31  43
ATOM     43  O   UNL     1       7.160   6.352  34.075  0.00  0.00    -0.343 OA
ATOM     44  C   UNL     1       6.027   7.226  34.308  0.00  0.00    +0.198 C 
ENDBRANCH  31  43
BRANCH  33  45
ATOM     45  O   UNL     1       8.114   1.792  32.751  0.00  0.00    -0.390 OA
ATOM     46  H   UNL     1       9.059   1.816  32.921  0.00  0.00    +0.210 HD
ENDBRANCH  33  45
ENDBRANCH  28  29
BRANCH  28  47
ATOM     47  O   UNL     1       3.218   1.911  35.100  0.00  0.00    -0.387 OA
ATOM     48  H   UNL     1       3.980   1.429  35.429  0.00  0.00    +0.210 HD
ENDBRANCH  28  47
ENDBRANCH  25  28
ENDBRANCH   1  25
TORSDOF 18
