REMARK VINA RESULT:    -5.820     13.833     17.787
REMARK INTER + INTRA:         -13.663
REMARK INTER:                 -11.903
REMARK INTRA:                  -1.760
REMARK UNBOUND:                -2.569
REMARK  Name = lig_assembled_18.pdb
REMARK  19 active torsions:
REMARK  status: ('A' for Active; 'I' for Inactive)
REMARK    1  A    between atoms: _2  and  _10
REMARK    2  A    between atoms: _3  and  _12
REMARK    3  A    between atoms: _5  and  _21
REMARK    4  A    between atoms: _7  and  _8
REMARK    5  A    between atoms: _7  and  _21
REMARK    6  A    between atoms: _10  and  _11
REMARK    7  A    between atoms: _12  and  _13
REMARK    8  A    between atoms: _17  and  _37
REMARK    9  A    between atoms: _19  and  _25
REMARK   10  A    between atoms: _20  and  _24
REMARK   11  A    between atoms: _24  and  _25
REMARK   12  A    between atoms: _27  and  _28
REMARK   13  A    between atoms: _29  and  _30
REMARK   14  A    between atoms: _31  and  _33
REMARK   15  A    between atoms: _33  and  _34
REMARK   16  A    between atoms: _33  and  _35
REMARK   17  A    between atoms: _35  and  _36
REMARK   18  A    between atoms: _35  and  _37
REMARK   19  A    between atoms: _38  and  _40
REMARK                            x       y       z     vdW  Elec       q    Type
REMARK                         _______ _______ _______ _____ _____    ______ ____
ROOT
ATOM      1  C   UNL     1      17.109   1.653  26.079  0.00  0.00    +0.163 C 
ENDROOT
BRANCH   1   2
ATOM      2  O   UNL     1      15.858   2.263  26.437  0.00  0.00    -0.388 OA
ATOM      3  H   UNL     1      15.983   3.208  26.553  0.00  0.00    +0.210 HD
ENDBRANCH   1   2
BRANCH   1   4
ATOM      4  C   UNL     1      17.220   1.476  24.555  0.00  0.00    +0.175 C 
BRANCH   4   5
ATOM      5  C   UNL     1      17.269  -0.004  24.148  0.00  0.00    +0.176 C 
ATOM      6  O   UNL     1      17.529  -0.789  25.344  0.00  0.00    -0.332 OA
ATOM      7  C   UNL     1      17.507  -2.244  25.165  0.00  0.00    +0.277 C 
ATOM      8  C   UNL     1      18.483  -2.666  24.039  0.00  0.00    +0.110 C 
ATOM      9  C   UNL     1      18.265  -1.836  22.756  0.00  0.00    +0.143 C 
ATOM     10  C   UNL     1      18.305  -0.338  23.058  0.00  0.00    +0.133 C 
BRANCH  10  11
ATOM     11  N   UNL     1      18.011   0.440  21.845  0.00  0.00    -0.308 N 
ATOM     12  H   UNL     1      17.052   0.476  21.528  0.00  0.00    +0.149 HD
ATOM     13  C   UNL     1      18.927   1.103  21.134  0.00  0.00    +0.210 C 
ATOM     14  C   UNL     1      20.383   1.009  21.628  0.00  0.00    +0.109 C 
ATOM     15  O   UNL     1      18.649   1.759  20.130  0.00  0.00    -0.276 OA
ENDBRANCH  10  11
BRANCH   7  16
ATOM     16  C   UNL     1      16.083  -2.730  24.822  0.00  0.00    +0.414 C 
ATOM     17  O   UNL     1      15.730  -3.872  25.116  0.00  0.00    -0.240 OA
ATOM     18  O   UNL     1      15.288  -1.982  24.252  0.00  0.00    -0.240 OA
ENDBRANCH   7  16
BRANCH   7  19
ATOM     19  O   UNL     1      17.946  -2.855  26.405  0.00  0.00    -0.343 OA
ATOM     20  C   UNL     1      17.568  -2.140  27.608  0.00  0.00    +0.198 C 
ENDBRANCH   7  19
BRANCH   9  21
ATOM     21  O   UNL     1      19.279  -2.151  21.801  0.00  0.00    -0.390 OA
ATOM     22  H   UNL     1      20.054  -2.489  22.256  0.00  0.00    +0.210 HD
ENDBRANCH   9  21
ENDBRANCH   4   5
BRANCH   4  23
ATOM     23  O   UNL     1      18.383   2.167  24.058  0.00  0.00    -0.387 OA
ATOM     24  H   UNL     1      19.114   1.550  23.981  0.00  0.00    +0.210 HD
ENDBRANCH   4  23
ENDBRANCH   1   4
BRANCH   1  25
ATOM     25  C   UNL     1      18.268   2.510  26.578  0.00  0.00    +0.141 C 
BRANCH  25  28
ATOM     26  C   UNL     1      18.755   4.831  25.884  0.00  0.00    +0.401 C 
ATOM     27  O   UNL     1      19.826   4.545  25.343  0.00  0.00    -0.226 OA
ATOM     28  N   UNL     1      17.966   3.944  26.491  0.00  0.00    -0.279 N 
ATOM     29  H   UNL     1      17.111   4.277  26.914  0.00  0.00    +0.152 HD
BRANCH  26  30
ATOM     30  O   UNL     1      18.316   6.192  25.876  0.00  0.00    -0.444 OA
BRANCH  30  31
ATOM     31  C   UNL     1      19.451   7.061  25.834  0.00  0.00    +0.292 C 
BRANCH  31  33
ATOM     32  N   UNL     1      19.298   7.650  28.237  0.00  0.00    -0.131 NA
ATOM     33  C   UNL     1      19.384   8.047  26.929  0.00  0.00    +0.120 A 
ATOM     34  C   UNL     1      19.392   9.422  26.877  0.00  0.00    +0.137 A 
ATOM     35  N   UNL     1      19.338   9.804  28.185  0.00  0.00    -0.242 N 
ATOM     36  N   UNL     1      19.259   8.735  28.999  0.00  0.00    -0.065 NA
BRANCH  35  37
ATOM     37  C   UNL     1      19.237  11.136  28.732  0.00  0.00    +0.240 C 
BRANCH  37  38
ATOM     38  C   UNL     1      19.218  11.134  30.244  0.00  0.00    +0.235 C 
ATOM     39  O   UNL     1      20.196  11.468  30.910  0.00  0.00    -0.274 OA
ATOM     40  N   UNL     1      18.010  10.788  30.815  0.00  0.00    -0.309 N 
ATOM     41  H   UNL     1      17.286  10.364  30.255  0.00  0.00    +0.149 HD
BRANCH  40  42
ATOM     42  C   UNL     1      17.836  10.758  32.253  0.00  0.00    +0.146 C 
BRANCH  42  43
ATOM     43  C   UNL     1      17.012   9.571  32.634  0.00  0.00    +0.007 A 
ATOM     44  S   UNL     1      17.486   7.991  32.168  0.00  0.00    -0.100 S 
ATOM     45  C   UNL     1      16.094   7.295  32.877  0.00  0.00    +0.045 A 
ATOM     46  C   UNL     1      15.288   8.239  33.473  0.00  0.00    +0.008 A 
ATOM     47  C   UNL     1      15.823   9.553  33.339  0.00  0.00    +0.013 A 
ENDBRANCH  42  43
ENDBRANCH  40  42
ENDBRANCH  37  38
ENDBRANCH  35  37
ENDBRANCH  31  33
ENDBRANCH  30  31
ENDBRANCH  26  30
ENDBRANCH  25  28
ENDBRANCH   1  25
TORSDOF 17
