REMARK VINA RESULT:    -6.704     14.361     18.453
REMARK INTER + INTRA:         -14.064
REMARK INTER:                 -11.741
REMARK INTRA:                  -2.323
REMARK UNBOUND:                -1.873
REMARK  Name = lig_assembled_60.pdb
REMARK  18 active torsions:
REMARK  status: ('A' for Active; 'I' for Inactive)
REMARK    1  A    between atoms: _2  and  _10
REMARK    2  A    between atoms: _3  and  _41
REMARK    3  A    between atoms: _5  and  _21
REMARK    4  A    between atoms: _7  and  _8
REMARK    5  A    between atoms: _7  and  _21
REMARK    6  A    between atoms: _13  and  _41
REMARK    7  A    between atoms: _17  and  _37
REMARK    8  A    between atoms: _19  and  _25
REMARK    9  A    between atoms: _20  and  _24
REMARK   10  A    between atoms: _24  and  _25
REMARK   11  A    between atoms: _27  and  _28
REMARK   12  A    between atoms: _29  and  _30
REMARK   13  A    between atoms: _31  and  _33
REMARK   14  A    between atoms: _33  and  _34
REMARK   15  A    between atoms: _33  and  _35
REMARK   16  A    between atoms: _35  and  _36
REMARK   17  A    between atoms: _35  and  _37
REMARK   18  A    between atoms: _38  and  _40
REMARK                            x       y       z     vdW  Elec       q    Type
REMARK                         _______ _______ _______ _____ _____    ______ ____
ROOT
ATOM      1  C   UNL     1      18.589   1.475  27.199  0.00  0.00    +0.141 C 
ENDROOT
BRANCH   1   4
ATOM      2  C   UNL     1      20.433   3.107  27.403  0.00  0.00    +0.401 C 
ATOM      3  O   UNL     1      20.794   2.702  28.511  0.00  0.00    -0.226 OA
ATOM      4  N   UNL     1      19.408   2.596  26.720  0.00  0.00    -0.279 N 
ATOM      5  H   UNL     1      19.183   3.002  25.823  0.00  0.00    +0.152 HD
BRANCH   2   6
ATOM      6  O   UNL     1      21.139   4.192  26.797  0.00  0.00    -0.444 OA
BRANCH   6   7
ATOM      7  C   UNL     1      20.225   5.252  26.503  0.00  0.00    +0.292 C 
BRANCH   7   9
ATOM      8  N   UNL     1      21.247   6.704  28.228  0.00  0.00    -0.131 NA
ATOM      9  C   UNL     1      20.130   6.179  27.646  0.00  0.00    +0.121 A 
ATOM     10  C   UNL     1      19.017   6.669  28.288  0.00  0.00    +0.143 A 
ATOM     11  N   UNL     1      19.507   7.529  29.245  0.00  0.00    -0.220 N 
ATOM     12  N   UNL     1      20.862   7.515  29.204  0.00  0.00    -0.060 NA
BRANCH  11  13
ATOM     13  C   UNL     1      18.786   8.366  30.136  0.00  0.00    +0.067 A 
ATOM     14  C   UNL     1      18.055   7.815  31.200  0.00  0.00    +0.030 A 
ATOM     15  C   UNL     1      17.292   8.642  32.028  0.00  0.00    +0.030 A 
ATOM     16  C   UNL     1      17.272  10.021  31.804  0.00  0.00    +0.105 A 
ATOM     17  C   UNL     1      18.009  10.582  30.757  0.00  0.00    +0.030 A 
ATOM     18  C   UNL     1      18.772   9.755  29.928  0.00  0.00    +0.030 A 
BRANCH  16  19
ATOM     19  S   UNL     1      16.241  11.046  32.810  0.00  0.00    +0.056 S 
ATOM     20  O   UNL     1      15.327  10.216  33.558  0.00  0.00    -0.153 OA
ATOM     21  O   UNL     1      17.055  12.064  33.435  0.00  0.00    -0.153 OA
BRANCH  19  22
ATOM     22  N   UNL     1      15.315  11.835  31.657  0.00  0.00    -0.204 NA
ATOM     23  H   UNL     1      14.457  12.185  32.082  0.00  0.00    +0.144 HD
ATOM     24  H   UNL     1      15.158  11.218  30.859  0.00  0.00    +0.144 HD
ENDBRANCH  19  22
ENDBRANCH  16  19
ENDBRANCH  11  13
ENDBRANCH   7   9
ENDBRANCH   6   7
ENDBRANCH   2   6
ENDBRANCH   1   4
BRANCH   1  25
ATOM     25  C   UNL     1      17.121   1.643  26.822  0.00  0.00    +0.163 C 
BRANCH  25  26
ATOM     26  O   UNL     1      16.934   2.878  26.111  0.00  0.00    -0.388 OA
ATOM     27  H   UNL     1      16.559   2.696  25.246  0.00  0.00    +0.210 HD
ENDBRANCH  25  26
BRANCH  25  28
ATOM     28  C   UNL     1      16.669   0.444  25.970  0.00  0.00    +0.175 C 
BRANCH  28  29
ATOM     29  C   UNL     1      17.520   0.281  24.703  0.00  0.00    +0.176 C 
ATOM     30  O   UNL     1      17.126   1.319  23.763  0.00  0.00    -0.332 OA
ATOM     31  C   UNL     1      17.911   1.386  22.527  0.00  0.00    +0.277 C 
ATOM     32  C   UNL     1      17.919   0.011  21.815  0.00  0.00    +0.110 C 
ATOM     33  C   UNL     1      18.301  -1.129  22.783  0.00  0.00    +0.143 C 
ATOM     34  C   UNL     1      17.424  -1.103  24.035  0.00  0.00    +0.133 C 
BRANCH  34  35
ATOM     35  N   UNL     1      17.855  -2.139  24.987  0.00  0.00    -0.308 N 
ATOM     36  H   UNL     1      18.803  -2.095  25.334  0.00  0.00    +0.149 HD
ATOM     37  C   UNL     1      17.076  -3.132  25.423  0.00  0.00    +0.210 C 
ATOM     38  C   UNL     1      15.645  -3.186  24.855  0.00  0.00    +0.109 C 
ATOM     39  O   UNL     1      17.459  -3.978  26.232  0.00  0.00    -0.276 OA
ENDBRANCH  34  35
BRANCH  31  40
ATOM     40  C   UNL     1      19.362   1.821  22.823  0.00  0.00    +0.414 C 
ATOM     41  O   UNL     1      19.630   2.414  23.867  0.00  0.00    -0.240 OA
ATOM     42  O   UNL     1      20.262   1.579  22.018  0.00  0.00    -0.240 OA
ENDBRANCH  31  40
BRANCH  33  43
ATOM     43  O   UNL     1      18.149  -2.389  22.127  0.00  0.00    -0.390 OA
ATOM     44  H   UNL     1      18.362  -3.097  22.740  0.00  0.00    +0.210 HD
ENDBRANCH  33  43
BRANCH  31  45
ATOM     45  O   UNL     1      17.281   2.353  21.647  0.00  0.00    -0.343 OA
ATOM     46  C   UNL     1      16.827   3.567  22.297  0.00  0.00    +0.198 C 
ENDBRANCH  31  45
ENDBRANCH  28  29
BRANCH  28  47
ATOM     47  O   UNL     1      15.277   0.581  25.620  0.00  0.00    -0.387 OA
ATOM     48  H   UNL     1      14.734   0.423  26.396  0.00  0.00    +0.210 HD
ENDBRANCH  28  47
ENDBRANCH  25  28
ENDBRANCH   1  25
TORSDOF 16
