REMARK VINA RESULT:    -6.246      4.879      6.549
REMARK INTER + INTRA:         -12.657
REMARK INTER:                 -10.093
REMARK INTRA:                  -2.565
REMARK UNBOUND:                -1.847
REMARK  Name = lig_assembled_2.pdb
REMARK  16 active torsions:
REMARK  status: ('A' for Active; 'I' for Inactive)
REMARK    1  A    between atoms: _2  and  _9
REMARK    2  A    between atoms: _4  and  _18
REMARK    3  A    between atoms: _6  and  _7
REMARK    4  A    between atoms: _6  and  _18
REMARK    5  A    between atoms: _14  and  _34
REMARK    6  A    between atoms: _16  and  _22
REMARK    7  A    between atoms: _17  and  _21
REMARK    8  A    between atoms: _21  and  _22
REMARK    9  A    between atoms: _24  and  _25
REMARK   10  A    between atoms: _26  and  _27
REMARK   11  A    between atoms: _28  and  _30
REMARK   12  A    between atoms: _30  and  _31
REMARK   13  A    between atoms: _30  and  _32
REMARK   14  A    between atoms: _32  and  _33
REMARK   15  A    between atoms: _32  and  _34
REMARK   16  A    between atoms: _35  and  _37
REMARK                            x       y       z     vdW  Elec       q    Type
REMARK                         _______ _______ _______ _____ _____    ______ ____
ROOT
ATOM      1  C   UNL     1       7.966   2.157  36.027  0.00  0.00    +0.163 C 
ENDROOT
BRANCH   1   2
ATOM      2  O   UNL     1       7.665   2.507  37.387  0.00  0.00    -0.388 OA
ATOM      3  H   UNL     1       6.956   3.154  37.402  0.00  0.00    +0.210 HD
ENDBRANCH   1   2
BRANCH   1   4
ATOM      4  C   UNL     1       8.826   0.897  35.990  0.00  0.00    +0.141 C 
BRANCH   4   7
ATOM      5  C   UNL     1       7.951  -0.503  34.152  0.00  0.00    +0.401 C 
ATOM      6  O   UNL     1       8.418   0.210  33.261  0.00  0.00    -0.226 OA
ATOM      7  N   UNL     1       8.088  -0.253  35.455  0.00  0.00    -0.279 N 
ATOM      8  H   UNL     1       7.660  -0.892  36.110  0.00  0.00    +0.152 HD
BRANCH   5   9
ATOM      9  O   UNL     1       7.210  -1.671  33.790  0.00  0.00    -0.444 OA
BRANCH   9  10
ATOM     10  C   UNL     1       5.855  -1.310  33.511  0.00  0.00    +0.292 C 
BRANCH  10  12
ATOM     11  N   UNL     1       4.378  -1.042  31.543  0.00  0.00    -0.131 NA
ATOM     12  C   UNL     1       5.587  -1.404  32.063  0.00  0.00    +0.121 A 
ATOM     13  C   UNL     1       6.409  -1.822  31.042  0.00  0.00    +0.143 A 
ATOM     14  N   UNL     1       5.660  -1.667  29.898  0.00  0.00    -0.220 N 
ATOM     15  N   UNL     1       4.428  -1.211  30.229  0.00  0.00    -0.060 NA
BRANCH  14  16
ATOM     16  C   UNL     1       6.042  -1.893  28.549  0.00  0.00    +0.067 A 
ATOM     17  C   UNL     1       7.347  -2.293  28.227  0.00  0.00    +0.029 A 
ATOM     18  C   UNL     1       7.713  -2.473  26.888  0.00  0.00    +0.022 A 
ATOM     19  C   UNL     1       6.782  -2.258  25.874  0.00  0.00    +0.041 A 
ATOM     20 CL   UNL     1       7.248  -2.460  24.232  0.00  0.00    -0.084 Cl
ATOM     21  C   UNL     1       5.480  -1.874  26.185  0.00  0.00    +0.022 A 
ATOM     22  C   UNL     1       5.106  -1.693  27.520  0.00  0.00    +0.029 A 
ENDBRANCH  14  16
ENDBRANCH  10  12
ENDBRANCH   9  10
ENDBRANCH   5   9
ENDBRANCH   4   7
ENDBRANCH   1   4
BRANCH   1  23
ATOM     23  C   UNL     1       8.705   3.303  35.314  0.00  0.00    +0.175 C 
BRANCH  23  24
ATOM     24  C   UNL     1       7.816   4.544  35.141  0.00  0.00    +0.176 C 
ATOM     25  O   UNL     1       7.701   5.196  36.436  0.00  0.00    -0.332 OA
ATOM     26  C   UNL     1       6.970   6.466  36.444  0.00  0.00    +0.277 C 
ATOM     27  C   UNL     1       5.563   6.284  35.823  0.00  0.00    +0.110 C 
ATOM     28  C   UNL     1       5.631   5.566  34.459  0.00  0.00    +0.143 C 
ATOM     29  C   UNL     1       6.416   4.259  34.565  0.00  0.00    +0.133 C 
BRANCH  29  30
ATOM     30  N   UNL     1       6.548   3.628  33.243  0.00  0.00    -0.308 N 
ATOM     31  H   UNL     1       7.189   4.046  32.583  0.00  0.00    +0.149 HD
ATOM     32  C   UNL     1       5.877   2.540  32.857  0.00  0.00    +0.210 C 
ATOM     33  C   UNL     1       4.888   1.942  33.877  0.00  0.00    +0.109 C 
ATOM     34  O   UNL     1       6.018   2.024  31.748  0.00  0.00    -0.276 OA
ENDBRANCH  29  30
BRANCH  26  35
ATOM     35  C   UNL     1       7.743   7.547  35.661  0.00  0.00    +0.414 C 
ATOM     36  O   UNL     1       8.934   7.751  35.896  0.00  0.00    -0.240 OA
ATOM     37  O   UNL     1       7.177   8.215  34.794  0.00  0.00    -0.240 OA
ENDBRANCH  26  35
BRANCH  28  38
ATOM     38  O   UNL     1       4.309   5.285  33.996  0.00  0.00    -0.390 OA
ATOM     39  H   UNL     1       3.709   5.968  34.306  0.00  0.00    +0.210 HD
ENDBRANCH  28  38
BRANCH  26  40
ATOM     40  O   UNL     1       6.811   6.884  37.824  0.00  0.00    -0.343 OA
ATOM     41  C   UNL     1       7.456   6.028  38.801  0.00  0.00    +0.198 C 
ENDBRANCH  26  40
ENDBRANCH  23  24
BRANCH  23  42
ATOM     42  O   UNL     1       9.192   2.859  34.032  0.00  0.00    -0.387 OA
ATOM     43  H   UNL     1      10.151   2.823  34.049  0.00  0.00    +0.210 HD
ENDBRANCH  23  42
ENDBRANCH   1  23
TORSDOF 14
