REMARK VINA RESULT:    -5.367      7.874     12.743
REMARK INTER + INTRA:         -12.399
REMARK INTER:                  -9.790
REMARK INTRA:                  -2.609
REMARK UNBOUND:                -2.326
REMARK  Name = lig_assembled_32.pdb
REMARK  19 active torsions:
REMARK  status: ('A' for Active; 'I' for Inactive)
REMARK    1  A    between atoms: _2  and  _9
REMARK    2  A    between atoms: _4  and  _17
REMARK    3  A    between atoms: _5  and  _10
REMARK    4  A    between atoms: _5  and  _11
REMARK    5  A    between atoms: _6  and  _7
REMARK    6  A    between atoms: _6  and  _17
REMARK    7  A    between atoms: _9  and  _10
REMARK    8  A    between atoms: _13  and  _33
REMARK    9  A    between atoms: _15  and  _21
REMARK   10  A    between atoms: _16  and  _20
REMARK   11  A    between atoms: _20  and  _21
REMARK   12  A    between atoms: _23  and  _24
REMARK   13  A    between atoms: _25  and  _26
REMARK   14  A    between atoms: _27  and  _29
REMARK   15  A    between atoms: _29  and  _30
REMARK   16  A    between atoms: _29  and  _31
REMARK   17  A    between atoms: _31  and  _32
REMARK   18  A    between atoms: _31  and  _33
REMARK   19  A    between atoms: _34  and  _36
REMARK                            x       y       z     vdW  Elec       q    Type
REMARK                         _______ _______ _______ _____ _____    ______ ____
ROOT
ATOM      1  C   UNL     1      -1.936   2.867  26.854  0.00  0.00    +0.163 C 
ENDROOT
BRANCH   1   2
ATOM      2  O   UNL     1      -2.961   2.103  26.196  0.00  0.00    -0.388 OA
ATOM      3  H   UNL     1      -3.046   2.398  25.286  0.00  0.00    +0.210 HD
ENDBRANCH   1   2
BRANCH   1   4
ATOM      4  C   UNL     1      -1.804   4.265  26.225  0.00  0.00    +0.175 C 
BRANCH   4   5
ATOM      5  C   UNL     1      -1.035   4.231  24.896  0.00  0.00    +0.176 C 
ATOM      6  O   UNL     1      -1.915   3.666  23.886  0.00  0.00    -0.332 OA
ATOM      7  C   UNL     1      -1.384   3.651  22.519  0.00  0.00    +0.277 C 
ATOM      8  C   UNL     1      -0.012   2.934  22.479  0.00  0.00    +0.110 C 
ATOM      9  C   UNL     1       0.947   3.479  23.558  0.00  0.00    +0.143 C 
ATOM     10  C   UNL     1       0.292   3.451  24.939  0.00  0.00    +0.133 C 
BRANCH  10  11
ATOM     11  N   UNL     1       1.183   4.053  25.944  0.00  0.00    -0.308 N 
ATOM     12  H   UNL     1       1.334   5.052  25.903  0.00  0.00    +0.149 HD
ATOM     13  C   UNL     1       1.805   3.367  26.906  0.00  0.00    +0.210 C 
ATOM     14  C   UNL     1       1.576   1.844  26.926  0.00  0.00    +0.109 C 
ATOM     15  O   UNL     1       2.534   3.900  27.743  0.00  0.00    -0.276 OA
ENDBRANCH  10  11
BRANCH   7  16
ATOM     16  C   UNL     1      -1.231   5.087  21.977  0.00  0.00    +0.414 C 
ATOM     17  O   UNL     1      -1.997   5.976  22.349  0.00  0.00    -0.240 OA
ATOM     18  O   UNL     1      -0.342   5.358  21.168  0.00  0.00    -0.240 OA
ENDBRANCH   7  16
BRANCH   7  19
ATOM     19  O   UNL     1      -2.312   2.910  21.685  0.00  0.00    -0.343 OA
ATOM     20  C   UNL     1      -3.618   2.685  22.273  0.00  0.00    +0.198 C 
ENDBRANCH   7  19
BRANCH   9  21
ATOM     21  O   UNL     1       2.138   2.692  23.586  0.00  0.00    -0.390 OA
ATOM     22  H   UNL     1       2.304   2.393  24.483  0.00  0.00    +0.210 HD
ENDBRANCH   9  21
ENDBRANCH   4   5
BRANCH   4  23
ATOM     23  O   UNL     1      -1.159   5.165  27.149  0.00  0.00    -0.387 OA
ATOM     24  H   UNL     1      -1.635   5.164  27.982  0.00  0.00    +0.210 HD
ENDBRANCH   4  23
ENDBRANCH   1   4
BRANCH   1  25
ATOM     25  C   UNL     1      -2.260   3.004  28.338  0.00  0.00    +0.141 C 
BRANCH  25  28
ATOM     26  C   UNL     1      -0.305   3.283  29.823  0.00  0.00    +0.401 C 
ATOM     27  O   UNL     1      -0.316   4.515  29.762  0.00  0.00    -0.226 OA
ATOM     28  N   UNL     1      -1.173   2.498  29.184  0.00  0.00    -0.279 N 
ATOM     29  H   UNL     1      -1.077   1.497  29.289  0.00  0.00    +0.152 HD
BRANCH  26  30
ATOM     30  O   UNL     1       0.692   2.636  30.617  0.00  0.00    -0.444 OA
BRANCH  30  31
ATOM     31  C   UNL     1       1.515   3.622  31.248  0.00  0.00    +0.292 C 
BRANCH  31  33
ATOM     32  N   UNL     1       3.269   1.901  30.951  0.00  0.00    -0.131 NA
ATOM     33  C   UNL     1       2.851   3.068  31.536  0.00  0.00    +0.120 A 
ATOM     34  C   UNL     1       3.848   3.540  32.361  0.00  0.00    +0.137 A 
ATOM     35  N   UNL     1       4.836   2.612  32.241  0.00  0.00    -0.251 N 
ATOM     36  N   UNL     1       4.488   1.630  31.393  0.00  0.00    -0.065 NA
BRANCH  35  37
ATOM     37  C   UNL     1       6.129   2.591  32.889  0.00  0.00    +0.156 C 
BRANCH  37  38
ATOM     38  C   UNL     1       6.190   3.548  34.071  0.00  0.00    +0.143 C 
BRANCH  38  39
ATOM     39  C   UNL     1       7.215   4.616  33.821  0.00  0.00    +0.306 C 
ATOM     40  O   UNL     1       7.478   5.525  34.592  0.00  0.00    -0.251 OA
BRANCH  39  41
ATOM     41  O   UNL     1       7.826   4.483  32.622  0.00  0.00    -0.481 OA
ATOM     42  H   UNL     1       7.240   4.631  31.854  0.00  0.00    +0.295 HD
ENDBRANCH  39  41
ENDBRANCH  38  39
ENDBRANCH  37  38
ENDBRANCH  35  37
ENDBRANCH  31  33
ENDBRANCH  30  31
ENDBRANCH  26  30
ENDBRANCH  25  28
ENDBRANCH   1  25
TORSDOF 17
