REMARK VINA RESULT:    -6.277      3.504      6.086
REMARK INTER + INTRA:         -13.953
REMARK INTER:                 -10.864
REMARK INTRA:                  -3.089
REMARK UNBOUND:                -3.089
REMARK  Name = lig_assembled_91.pdb
REMARK  16 active torsions:
REMARK  status: ('A' for Active; 'I' for Inactive)
REMARK    1  A    between atoms: _2  and  _10
REMARK    2  A    between atoms: _5  and  _26
REMARK    3  A    between atoms: _7  and  _8
REMARK    4  A    between atoms: _7  and  _26
REMARK    5  A    between atoms: _22  and  _42
REMARK    6  A    between atoms: _24  and  _30
REMARK    7  A    between atoms: _25  and  _29
REMARK    8  A    between atoms: _29  and  _30
REMARK    9  A    between atoms: _32  and  _33
REMARK   10  A    between atoms: _34  and  _35
REMARK   11  A    between atoms: _36  and  _38
REMARK   12  A    between atoms: _38  and  _39
REMARK   13  A    between atoms: _38  and  _40
REMARK   14  A    between atoms: _40  and  _41
REMARK   15  A    between atoms: _40  and  _42
REMARK   16  A    between atoms: _43  and  _45
REMARK                            x       y       z     vdW  Elec       q    Type
REMARK                         _______ _______ _______ _____ _____    ______ ____
ROOT
ATOM      1  C   UNL     1       8.140  -1.216  35.444  0.00  0.00    +0.401 C 
ATOM      2  O   UNL     1       7.785  -0.966  36.598  0.00  0.00    -0.226 OA
ATOM      3  N   UNL     1       8.963  -0.443  34.734  0.00  0.00    -0.279 N 
ATOM      4  H   UNL     1       9.204  -0.737  33.798  0.00  0.00    +0.152 HD
ENDROOT
BRANCH   3   5
ATOM      5  C   UNL     1       9.539   0.810  35.236  0.00  0.00    +0.141 C 
BRANCH   5   6
ATOM      6  C   UNL     1       8.889   2.032  34.596  0.00  0.00    +0.163 C 
BRANCH   6   7
ATOM      7  O   UNL     1       8.552   1.748  33.228  0.00  0.00    -0.388 OA
ATOM      8  H   UNL     1       7.598   1.680  33.140  0.00  0.00    +0.210 HD
ENDBRANCH   6   7
BRANCH   6   9
ATOM      9  C   UNL     1       7.640   2.430  35.399  0.00  0.00    +0.175 C 
BRANCH   9  10
ATOM     10  C   UNL     1       7.438   3.952  35.438  0.00  0.00    +0.176 C 
ATOM     11  O   UNL     1       7.367   4.358  36.833  0.00  0.00    -0.332 OA
ATOM     12  C   UNL     1       7.281   5.803  37.068  0.00  0.00    +0.277 C 
ATOM     13  C   UNL     1       6.090   6.409  36.286  0.00  0.00    +0.110 C 
ATOM     14  C   UNL     1       6.105   5.978  34.804  0.00  0.00    +0.143 C 
ATOM     15  C   UNL     1       6.200   4.458  34.675  0.00  0.00    +0.133 C 
BRANCH  15  16
ATOM     16  N   UNL     1       6.301   4.066  33.260  0.00  0.00    -0.308 N 
ATOM     17  H   UNL     1       7.048   4.468  32.712  0.00  0.00    +0.149 HD
ATOM     18  C   UNL     1       5.469   3.214  32.654  0.00  0.00    +0.210 C 
ATOM     19  C   UNL     1       4.325   2.639  33.510  0.00  0.00    +0.109 C 
ATOM     20  O   UNL     1       5.587   2.893  31.471  0.00  0.00    -0.276 OA
ENDBRANCH  15  16
BRANCH  12  21
ATOM     21  C   UNL     1       8.588   6.505  36.644  0.00  0.00    +0.414 C 
ATOM     22  O   UNL     1       9.674   6.091  37.048  0.00  0.00    -0.240 OA
ATOM     23  O   UNL     1       8.556   7.485  35.899  0.00  0.00    -0.240 OA
ENDBRANCH  12  21
BRANCH  14  24
ATOM     24  O   UNL     1       4.915   6.432  34.158  0.00  0.00    -0.390 OA
ATOM     25  H   UNL     1       4.187   5.845  34.378  0.00  0.00    +0.210 HD
ENDBRANCH  14  24
BRANCH  12  26
ATOM     26  O   UNL     1       7.051   6.013  38.485  0.00  0.00    -0.343 OA
ATOM     27  C   UNL     1       6.803   7.390  38.868  0.00  0.00    +0.198 C 
ENDBRANCH  12  26
ENDBRANCH   9  10
BRANCH   9  28
ATOM     28  O   UNL     1       7.723   1.906  36.740  0.00  0.00    -0.387 OA
ATOM     29  H   UNL     1       7.270   1.060  36.782  0.00  0.00    +0.210 HD
ENDBRANCH   9  28
ENDBRANCH   6   9
ENDBRANCH   5   6
ENDBRANCH   3   5
BRANCH   1  30
ATOM     30  O   UNL     1       7.655  -2.402  34.809  0.00  0.00    -0.444 OA
BRANCH  30  31
ATOM     31  C   UNL     1       6.277  -2.232  34.468  0.00  0.00    +0.292 C 
BRANCH  31  33
ATOM     32  N   UNL     1       6.612  -0.425  32.819  0.00  0.00    -0.131 NA
ATOM     33  C   UNL     1       6.145  -1.670  33.109  0.00  0.00    +0.121 A 
ATOM     34  C   UNL     1       5.605  -2.220  31.969  0.00  0.00    +0.143 A 
ATOM     35  N   UNL     1       5.722  -1.246  30.997  0.00  0.00    -0.218 N 
ATOM     36  N   UNL     1       6.356  -0.178  31.543  0.00  0.00    -0.060 NA
BRANCH  35  37
ATOM     37  C   UNL     1       5.281  -1.258  29.638  0.00  0.00    +0.085 A 
ATOM     38  C   UNL     1       6.135  -1.783  28.603  0.00  0.00    +0.026 A 
ATOM     39  C   UNL     1       5.614  -1.724  27.296  0.00  0.00    +0.074 A 
ATOM     40  C   UNL     1       6.345  -2.198  26.217  0.00  0.00    +0.028 A 
ATOM     41  C   UNL     1       7.611  -2.756  26.365  0.00  0.00    +0.002 A 
ATOM     42  C   UNL     1       8.147  -2.866  27.632  0.00  0.00    +0.001 A 
ATOM     43  N   UNL     1       4.408  -1.247  26.999  0.00  0.00    -0.247 NA
ATOM     44  C   UNL     1       3.610  -0.788  27.962  0.00  0.00    +0.074 A 
ATOM     45  C   UNL     1       2.373  -0.310  27.540  0.00  0.00    +0.028 A 
ATOM     46  C   UNL     1       1.446   0.234  28.422  0.00  0.00    +0.002 A 
ATOM     47  C   UNL     1       1.766   0.315  29.762  0.00  0.00    +0.001 A 
ATOM     48  C   UNL     1       3.008  -0.156  30.203  0.00  0.00    +0.012 A 
ATOM     49  C   UNL     1       7.415  -2.410  28.734  0.00  0.00    +0.012 A 
ATOM     50  C   UNL     1       3.969  -0.745  29.319  0.00  0.00    +0.026 A 
ENDBRANCH  35  37
ENDBRANCH  31  33
ENDBRANCH  30  31
ENDBRANCH   1  30
TORSDOF 14
