REMARK VINA RESULT:    -6.076      2.261      3.784
REMARK INTER + INTRA:         -12.885
REMARK INTER:                 -10.808
REMARK INTRA:                  -2.077
REMARK UNBOUND:                -2.370
REMARK  Name = lig_assembled_87.pdb
REMARK  17 active torsions:
REMARK  status: ('A' for Active; 'I' for Inactive)
REMARK    1  A    between atoms: _2  and  _10
REMARK    2  A    between atoms: _3  and  _13
REMARK    3  A    between atoms: _5  and  _21
REMARK    4  A    between atoms: _7  and  _8
REMARK    5  A    between atoms: _7  and  _21
REMARK    6  A    between atoms: _17  and  _37
REMARK    7  A    between atoms: _19  and  _25
REMARK    8  A    between atoms: _20  and  _24
REMARK    9  A    between atoms: _24  and  _25
REMARK   10  A    between atoms: _27  and  _28
REMARK   11  A    between atoms: _29  and  _30
REMARK   12  A    between atoms: _31  and  _33
REMARK   13  A    between atoms: _33  and  _34
REMARK   14  A    between atoms: _33  and  _35
REMARK   15  A    between atoms: _35  and  _36
REMARK   16  A    between atoms: _35  and  _37
REMARK   17  A    between atoms: _38  and  _40
REMARK                            x       y       z     vdW  Elec       q    Type
REMARK                         _______ _______ _______ _____ _____    ______ ____
ROOT
ATOM      1  C   UNL     1       3.056   2.385  32.726  0.00  0.00    +0.163 C 
ENDROOT
BRANCH   1   2
ATOM      2  O   UNL     1       3.484   1.046  33.025  0.00  0.00    -0.388 OA
ATOM      3  H   UNL     1       4.089   1.061  33.770  0.00  0.00    +0.210 HD
ENDBRANCH   1   2
BRANCH   1   4
ATOM      4  C   UNL     1       3.038   2.602  31.217  0.00  0.00    +0.141 C 
BRANCH   4   7
ATOM      5  C   UNL     1       0.982   3.876  30.714  0.00  0.00    +0.401 C 
ATOM      6  O   UNL     1       1.413   4.936  31.172  0.00  0.00    -0.226 OA
ATOM      7  N   UNL     1       1.671   2.734  30.699  0.00  0.00    -0.279 N 
ATOM      8  H   UNL     1       1.227   1.914  30.310  0.00  0.00    +0.152 HD
BRANCH   5   9
ATOM      9  O   UNL     1      -0.337   3.844  30.163  0.00  0.00    -0.444 OA
BRANCH   9  10
ATOM     10  C   UNL     1      -0.421   2.805  29.184  0.00  0.00    +0.292 C 
BRANCH  10  12
ATOM     11  N   UNL     1      -0.574   4.566  27.458  0.00  0.00    -0.131 NA
ATOM     12  C   UNL     1      -0.108   3.341  27.847  0.00  0.00    +0.120 A 
ATOM     13  C   UNL     1       0.646   2.802  26.830  0.00  0.00    +0.137 A 
ATOM     14  N   UNL     1       0.708   3.797  25.890  0.00  0.00    -0.248 N 
ATOM     15  N   UNL     1      -0.127   4.799  26.236  0.00  0.00    -0.065 NA
BRANCH  14  16
ATOM     16  C   UNL     1       1.490   3.906  24.645  0.00  0.00    +0.112 C 
ATOM     17  C   UNL     1       1.097   5.098  23.730  0.00  0.00    +0.045 C 
ATOM     18  C   UNL     1       0.622   4.725  22.316  0.00  0.00    +0.059 C 
ATOM     19  C   UNL     1       1.795   4.386  21.385  0.00  0.00    +0.020 C 
ATOM     20  C   UNL     1       1.904   2.863  21.438  0.00  0.00    +0.020 C 
ATOM     21  C   UNL     1       0.908   2.461  22.527  0.00  0.00    +0.059 C 
ATOM     22  N   UNL     1      -0.118   3.470  22.285  0.00  0.00    -0.299 NA
ATOM     23  C   UNL     1      -1.335   3.392  23.064  0.00  0.00    +0.105 C 
ATOM     24  C   UNL     1       1.564   2.534  23.908  0.00  0.00    +0.045 C 
ENDBRANCH  14  16
ENDBRANCH  10  12
ENDBRANCH   9  10
ENDBRANCH   5   9
ENDBRANCH   4   7
ENDBRANCH   1   4
BRANCH   1  25
ATOM     25  C   UNL     1       3.987   3.419  33.383  0.00  0.00    +0.175 C 
BRANCH  25  26
ATOM     26  C   UNL     1       3.568   3.739  34.825  0.00  0.00    +0.176 C 
ATOM     27  O   UNL     1       2.124   3.912  34.844  0.00  0.00    -0.332 OA
ATOM     28  C   UNL     1       1.528   4.121  36.167  0.00  0.00    +0.277 C 
ATOM     29  C   UNL     1       2.206   5.314  36.883  0.00  0.00    +0.110 C 
ATOM     30  C   UNL     1       3.745   5.191  36.861  0.00  0.00    +0.143 C 
ATOM     31  C   UNL     1       4.257   4.973  35.438  0.00  0.00    +0.133 C 
BRANCH  31  32
ATOM     32  N   UNL     1       5.715   4.771  35.440  0.00  0.00    -0.308 N 
ATOM     33  H   UNL     1       6.071   3.913  35.838  0.00  0.00    +0.149 HD
ATOM     34  C   UNL     1       6.597   5.646  34.951  0.00  0.00    +0.210 C 
ATOM     35  C   UNL     1       6.024   6.954  34.375  0.00  0.00    +0.109 C 
ATOM     36  O   UNL     1       7.812   5.443  34.953  0.00  0.00    -0.276 OA
ENDBRANCH  31  32
BRANCH  28  37
ATOM     37  C   UNL     1       1.663   2.853  37.035  0.00  0.00    +0.414 C 
ATOM     38  O   UNL     1       1.765   1.747  36.506  0.00  0.00    -0.240 OA
ATOM     39  O   UNL     1       1.671   2.936  38.264  0.00  0.00    -0.240 OA
ENDBRANCH  28  37
BRANCH  30  40
ATOM     40  O   UNL     1       4.330   6.380  37.395  0.00  0.00    -0.390 OA
ATOM     41  H   UNL     1       3.663   6.880  37.870  0.00  0.00    +0.210 HD
ENDBRANCH  30  40
BRANCH  28  42
ATOM     42  O   UNL     1       0.124   4.438  35.981  0.00  0.00    -0.343 OA
ATOM     43  C   UNL     1      -0.478   3.875  34.788  0.00  0.00    +0.198 C 
ENDBRANCH  28  42
ENDBRANCH  25  26
BRANCH  25  44
ATOM     44  O   UNL     1       4.022   4.626  32.596  0.00  0.00    -0.387 OA
ATOM     45  H   UNL     1       4.160   4.402  31.673  0.00  0.00    +0.210 HD
ENDBRANCH  25  44
ENDBRANCH   1  25
TORSDOF 14
