REMARK VINA RESULT:    -5.442      6.159      9.285
REMARK INTER + INTRA:         -13.605
REMARK INTER:                 -11.057
REMARK INTRA:                  -2.548
REMARK UNBOUND:                -3.868
REMARK  Name = lig_assembled_85.pdb
REMARK  19 active torsions:
REMARK  status: ('A' for Active; 'I' for Inactive)
REMARK    1  A    between atoms: _2  and  _10
REMARK    2  A    between atoms: _3  and  _6
REMARK    3  A    between atoms: _3  and  _17
REMARK    4  A    between atoms: _5  and  _23
REMARK    5  A    between atoms: _7  and  _8
REMARK    6  A    between atoms: _7  and  _23
REMARK    7  A    between atoms: _15  and  _16
REMARK    8  A    between atoms: _19  and  _39
REMARK    9  A    between atoms: _21  and  _27
REMARK   10  A    between atoms: _22  and  _26
REMARK   11  A    between atoms: _26  and  _27
REMARK   12  A    between atoms: _29  and  _30
REMARK   13  A    between atoms: _31  and  _32
REMARK   14  A    between atoms: _33  and  _35
REMARK   15  A    between atoms: _35  and  _36
REMARK   16  A    between atoms: _35  and  _37
REMARK   17  A    between atoms: _37  and  _38
REMARK   18  A    between atoms: _37  and  _39
REMARK   19  A    between atoms: _40  and  _42
REMARK                            x       y       z     vdW  Elec       q    Type
REMARK                         _______ _______ _______ _____ _____    ______ ____
ROOT
ATOM      1  C   UNL     1      18.878   9.863  28.016  0.00  0.00    +0.141 C 
ENDROOT
BRANCH   1   4
ATOM      2  C   UNL     1      19.902   7.957  26.823  0.00  0.00    +0.401 C 
ATOM      3  O   UNL     1      20.167   8.611  25.812  0.00  0.00    -0.226 OA
ATOM      4  N   UNL     1      19.294   8.461  27.898  0.00  0.00    -0.279 N 
ATOM      5  H   UNL     1      19.111   7.842  28.676  0.00  0.00    +0.152 HD
BRANCH   2   6
ATOM      6  O   UNL     1      20.253   6.572  26.867  0.00  0.00    -0.444 OA
BRANCH   6   7
ATOM      7  C   UNL     1      19.138   5.810  27.337  0.00  0.00    +0.292 C 
BRANCH   7   9
ATOM      8  N   UNL     1      20.129   4.085  25.875  0.00  0.00    -0.131 NA
ATOM      9  C   UNL     1      19.096   4.500  26.666  0.00  0.00    +0.121 A 
ATOM     10  C   UNL     1      18.146   3.506  26.732  0.00  0.00    +0.143 A 
ATOM     11  N   UNL     1      18.652   2.489  25.960  0.00  0.00    -0.219 N 
ATOM     12  N   UNL     1      19.863   2.851  25.473  0.00  0.00    -0.060 NA
BRANCH  11  13
ATOM     13  C   UNL     1      18.139   1.195  25.727  0.00  0.00    +0.080 A 
ATOM     14  C   UNL     1      17.437   0.822  24.570  0.00  0.00    +0.062 A 
ATOM     15  C   UNL     1      16.768  -0.425  24.581  0.00  0.00    +0.016 A 
ATOM     16  C   UNL     1      16.815  -1.280  25.687  0.00  0.00    +0.021 A 
ATOM     17  C   UNL     1      17.575  -0.924  26.792  0.00  0.00    +0.043 A 
ATOM     18 CL   UNL     1      17.616  -1.947  28.174  0.00  0.00    -0.083 Cl
ATOM     19  C   UNL     1      18.256   0.289  26.806  0.00  0.00    +0.048 A 
BRANCH  14  20
ATOM     20  C   UNL     1      17.221   1.606  23.318  0.00  0.00    +0.248 C 
ATOM     21  O   UNL     1      16.483   2.587  23.438  0.00  0.00    -0.270 OA
ATOM     22  N   UNL     1      17.745   1.246  22.072  0.00  0.00    -0.304 N 
ATOM     23  C   UNL     1      18.725   0.208  21.780  0.00  0.00    +0.132 C 
ATOM     24  C   UNL     1      17.421   2.127  20.954  0.00  0.00    +0.132 C 
ENDBRANCH  14  20
ENDBRANCH  11  13
ENDBRANCH   7   9
ENDBRANCH   6   7
ENDBRANCH   2   6
ENDBRANCH   1   4
BRANCH   1  25
ATOM     25  C   UNL     1      18.692  10.282  29.471  0.00  0.00    +0.163 C 
BRANCH  25  26
ATOM     26  O   UNL     1      17.360  10.782  29.672  0.00  0.00    -0.388 OA
ATOM     27  H   UNL     1      17.155  11.430  28.993  0.00  0.00    +0.210 HD
ENDBRANCH  25  26
BRANCH  25  28
ATOM     28  C   UNL     1      18.973   9.081  30.390  0.00  0.00    +0.175 C 
BRANCH  28  29
ATOM     29  C   UNL     1      17.996   9.018  31.574  0.00  0.00    +0.176 C 
ATOM     30  O   UNL     1      18.180  10.222  32.369  0.00  0.00    -0.332 OA
ATOM     31  C   UNL     1      17.252  10.388  33.492  0.00  0.00    +0.277 C 
ATOM     32  C   UNL     1      17.287   9.142  34.411  0.00  0.00    +0.110 C 
ATOM     33  C   UNL     1      17.127   7.835  33.606  0.00  0.00    +0.143 C 
ATOM     34  C   UNL     1      18.139   7.768  32.462  0.00  0.00    +0.133 C 
BRANCH  34  35
ATOM     35  N   UNL     1      17.920   6.561  31.650  0.00  0.00    -0.308 N 
ATOM     36  H   UNL     1      17.026   6.457  31.192  0.00  0.00    +0.149 HD
ATOM     37  C   UNL     1      18.825   5.594  31.480  0.00  0.00    +0.210 C 
ATOM     38  C   UNL     1      20.169   5.769  32.213  0.00  0.00    +0.109 C 
ATOM     39  O   UNL     1      18.619   4.600  30.782  0.00  0.00    -0.276 OA
ENDBRANCH  34  35
BRANCH  31  40
ATOM     40  C   UNL     1      15.813  10.613  32.983  0.00  0.00    +0.414 C 
ATOM     41  O   UNL     1      14.862  10.089  33.561  0.00  0.00    -0.240 OA
ATOM     42  O   UNL     1      15.604  11.319  31.996  0.00  0.00    -0.240 OA
ENDBRANCH  31  40
BRANCH  33  43
ATOM     43  O   UNL     1      17.316   6.712  34.468  0.00  0.00    -0.390 OA
ATOM     44  H   UNL     1      16.572   6.642  35.071  0.00  0.00    +0.210 HD
ENDBRANCH  33  43
BRANCH  31  45
ATOM     45  O   UNL     1      17.683  11.538  34.264  0.00  0.00    -0.343 OA
ATOM     46  C   UNL     1      18.529  12.473  33.549  0.00  0.00    +0.198 C 
ENDBRANCH  31  45
ENDBRANCH  28  29
BRANCH  28  47
ATOM     47  O   UNL     1      20.332   9.130  30.869  0.00  0.00    -0.387 OA
ATOM     48  H   UNL     1      20.927   9.275  30.130  0.00  0.00    +0.210 HD
ENDBRANCH  28  47
ENDBRANCH  25  28
ENDBRANCH   1  25
TORSDOF 15
