REMARK VINA RESULT:    -7.298     10.156     15.372
REMARK INTER + INTRA:         -14.622
REMARK INTER:                 -12.003
REMARK INTRA:                  -2.619
REMARK UNBOUND:                -1.992
REMARK  Name = lig_assembled_25.pdb
REMARK  16 active torsions:
REMARK  status: ('A' for Active; 'I' for Inactive)
REMARK    1  A    between atoms: _2  and  _9
REMARK    2  A    between atoms: _4  and  _25
REMARK    3  A    between atoms: _6  and  _7
REMARK    4  A    between atoms: _6  and  _25
REMARK    5  A    between atoms: _21  and  _41
REMARK    6  A    between atoms: _23  and  _29
REMARK    7  A    between atoms: _24  and  _28
REMARK    8  A    between atoms: _28  and  _29
REMARK    9  A    between atoms: _31  and  _32
REMARK   10  A    between atoms: _33  and  _34
REMARK   11  A    between atoms: _35  and  _37
REMARK   12  A    between atoms: _37  and  _38
REMARK   13  A    between atoms: _37  and  _39
REMARK   14  A    between atoms: _39  and  _40
REMARK   15  A    between atoms: _39  and  _41
REMARK   16  A    between atoms: _42  and  _44
REMARK                            x       y       z     vdW  Elec       q    Type
REMARK                         _______ _______ _______ _____ _____    ______ ____
ROOT
ATOM      1  C   UNL     1      -6.631   7.863  19.923  0.00  0.00    +0.141 C 
ENDROOT
BRANCH   1   4
ATOM      2  C   UNL     1      -6.152   5.439  19.884  0.00  0.00    +0.401 C 
ATOM      3  O   UNL     1      -7.332   5.113  19.738  0.00  0.00    -0.226 OA
ATOM      4  N   UNL     1      -5.735   6.701  19.987  0.00  0.00    -0.279 N 
ATOM      5  H   UNL     1      -4.747   6.868  20.115  0.00  0.00    +0.152 HD
BRANCH   2   6
ATOM      6  O   UNL     1      -5.153   4.418  19.956  0.00  0.00    -0.444 OA
BRANCH   6   7
ATOM      7  C   UNL     1      -4.857   4.135  21.326  0.00  0.00    +0.292 C 
BRANCH   7   9
ATOM      8  N   UNL     1      -3.366   5.890  22.220  0.00  0.00    -0.131 NA
ATOM      9  C   UNL     1      -3.517   4.642  21.679  0.00  0.00    +0.120 A 
ATOM     10  C   UNL     1      -2.278   4.058  21.540  0.00  0.00    +0.138 A 
ATOM     11  N   UNL     1      -1.407   5.007  21.997  0.00  0.00    -0.240 N 
ATOM     12  N   UNL     1      -2.073   6.105  22.416  0.00  0.00    -0.064 NA
BRANCH  11  13
ATOM     13  C   UNL     1       0.047   5.015  22.005  0.00  0.00    +0.170 C 
ATOM     14  C   UNL     1       0.639   4.192  20.869  0.00  0.00    -0.011 A 
ATOM     15  C   UNL     1       1.517   3.214  21.388  0.00  0.00    -0.012 A 
ATOM     16  C   UNL     1       1.536   3.319  22.833  0.00  0.00    -0.012 A 
ATOM     17  C   UNL     1       2.265   2.609  23.774  0.00  0.00    +0.009 A 
ATOM     18  C   UNL     1       2.113   2.944  25.123  0.00  0.00    +0.001 A 
ATOM     19  C   UNL     1       1.239   3.971  25.516  0.00  0.00    +0.000 A 
ATOM     20  C   UNL     1       0.502   4.688  24.570  0.00  0.00    +0.006 A 
ATOM     21  C   UNL     1       2.195   2.358  20.538  0.00  0.00    +0.009 A 
ATOM     22  C   UNL     1       1.989   2.486  19.160  0.00  0.00    +0.001 A 
ATOM     23  C   UNL     1       1.118   3.462  18.649  0.00  0.00    +0.000 A 
ATOM     24  C   UNL     1       0.435   4.329  19.503  0.00  0.00    +0.006 A 
ATOM     25  C   UNL     1       0.658   4.353  23.233  0.00  0.00    -0.011 A 
ENDBRANCH  11  13
ENDBRANCH   7   9
ENDBRANCH   6   7
ENDBRANCH   2   6
ENDBRANCH   1   4
BRANCH   1  26
ATOM     26  C   UNL     1      -6.878   8.313  18.487  0.00  0.00    +0.163 C 
BRANCH  26  27
ATOM     27  O   UNL     1      -8.160   8.953  18.386  0.00  0.00    -0.388 OA
ATOM     28  H   UNL     1      -8.746   8.605  19.062  0.00  0.00    +0.210 HD
ENDBRANCH  26  27
BRANCH  26  29
ATOM     29  C   UNL     1      -5.752   9.264  18.046  0.00  0.00    +0.175 C 
BRANCH  29  30
ATOM     30  C   UNL     1      -4.956   8.704  16.857  0.00  0.00    +0.176 C 
ATOM     31  O   UNL     1      -4.011   7.727  17.373  0.00  0.00    -0.332 OA
ATOM     32  C   UNL     1      -3.230   7.006  16.363  0.00  0.00    +0.277 C 
ATOM     33  C   UNL     1      -2.497   8.003  15.432  0.00  0.00    +0.110 C 
ATOM     34  C   UNL     1      -3.455   9.081  14.884  0.00  0.00    +0.143 C 
ATOM     35  C   UNL     1      -4.218   9.765  16.019  0.00  0.00    +0.133 C 
BRANCH  35  36
ATOM     36  N   UNL     1      -5.190  10.729  15.480  0.00  0.00    -0.308 N 
ATOM     37  H   UNL     1      -5.971  10.365  14.952  0.00  0.00    +0.149 HD
ATOM     38  C   UNL     1      -5.108  12.052  15.642  0.00  0.00    +0.210 C 
ATOM     39  C   UNL     1      -3.892  12.576  16.429  0.00  0.00    +0.109 C 
ATOM     40  O   UNL     1      -5.946  12.834  15.191  0.00  0.00    -0.276 OA
ENDBRANCH  35  36
BRANCH  32  41
ATOM     41  C   UNL     1      -4.141   6.088  15.520  0.00  0.00    +0.414 C 
ATOM     42  O   UNL     1      -3.930   5.941  14.317  0.00  0.00    -0.240 OA
ATOM     43  O   UNL     1      -5.086   5.497  16.043  0.00  0.00    -0.240 OA
ENDBRANCH  32  41
BRANCH  34  44
ATOM     44  O   UNL     1      -2.713  10.061  14.158  0.00  0.00    -0.390 OA
ATOM     45  H   UNL     1      -2.887   9.964  13.219  0.00  0.00    +0.210 HD
ENDBRANCH  34  44
BRANCH  32  46
ATOM     46  O   UNL     1      -2.235   6.206  17.051  0.00  0.00    -0.343 OA
ATOM     47  C   UNL     1      -0.894   6.296  16.507  0.00  0.00    +0.198 C 
ENDBRANCH  32  46
ENDBRANCH  29  30
BRANCH  29  48
ATOM     48  O   UNL     1      -4.868   9.535  19.152  0.00  0.00    -0.387 OA
ATOM     49  H   UNL     1      -4.107  10.030  18.840  0.00  0.00    +0.210 HD
ENDBRANCH  29  48
ENDBRANCH  26  29
ENDBRANCH   1  26
TORSDOF 14
