REMARK VINA RESULT:    -6.398     15.007     17.747
REMARK INTER + INTRA:         -15.212
REMARK INTER:                 -11.550
REMARK INTRA:                  -3.662
REMARK UNBOUND:                -2.643
REMARK  Name = lig_assembled_37.pdb
REMARK  21 active torsions:
REMARK  status: ('A' for Active; 'I' for Inactive)
REMARK    1  A    between atoms: _2  and  _9
REMARK    2  A    between atoms: _4  and  _24
REMARK    3  A    between atoms: _6  and  _7
REMARK    4  A    between atoms: _6  and  _24
REMARK    5  A    between atoms: _9  and  _10
REMARK    6  A    between atoms: _9  and  _11
REMARK    7  A    between atoms: _11  and  _18
REMARK    8  A    between atoms: _12  and  _13
REMARK    9  A    between atoms: _12  and  _18
REMARK   10  A    between atoms: _20  and  _40
REMARK   11  A    between atoms: _22  and  _28
REMARK   12  A    between atoms: _23  and  _27
REMARK   13  A    between atoms: _27  and  _28
REMARK   14  A    between atoms: _30  and  _31
REMARK   15  A    between atoms: _32  and  _33
REMARK   16  A    between atoms: _34  and  _36
REMARK   17  A    between atoms: _36  and  _37
REMARK   18  A    between atoms: _36  and  _38
REMARK   19  A    between atoms: _38  and  _39
REMARK   20  A    between atoms: _38  and  _40
REMARK   21  A    between atoms: _41  and  _43
REMARK                            x       y       z     vdW  Elec       q    Type
REMARK                         _______ _______ _______ _____ _____    ______ ____
ROOT
ATOM      1  C   UNL     1      18.514  -0.408  21.230  0.00  0.00    +0.141 C 
ENDROOT
BRANCH   1   4
ATOM      2  C   UNL     1      17.277   1.659  20.679  0.00  0.00    +0.401 C 
ATOM      3  O   UNL     1      17.165   1.384  19.482  0.00  0.00    -0.226 OA
ATOM      4  N   UNL     1      17.898   0.881  21.567  0.00  0.00    -0.279 N 
ATOM      5  H   UNL     1      17.947   1.197  22.525  0.00  0.00    +0.152 HD
BRANCH   2   6
ATOM      6  O   UNL     1      16.719   2.882  21.166  0.00  0.00    -0.444 OA
BRANCH   6   7
ATOM      7  C   UNL     1      16.807   2.912  22.593  0.00  0.00    +0.292 C 
BRANCH   7   9
ATOM      8  N   UNL     1      17.178   5.363  22.566  0.00  0.00    -0.131 NA
ATOM      9  C   UNL     1      17.520   4.123  23.040  0.00  0.00    +0.120 A 
ATOM     10  C   UNL     1      18.561   4.254  23.930  0.00  0.00    +0.138 A 
ATOM     11  N   UNL     1      18.829   5.591  23.936  0.00  0.00    -0.238 N 
ATOM     12  N   UNL     1      17.981   6.255  23.128  0.00  0.00    -0.065 NA
BRANCH  11  13
ATOM     13  C   UNL     1      19.805   6.330  24.713  0.00  0.00    +0.214 C 
ATOM     14  C   UNL     1      20.444   7.447  23.888  0.00  0.00    +0.045 C 
BRANCH  13  15
ATOM     15  C   UNL     1      19.187   6.895  25.972  0.00  0.00    +0.332 C 
ATOM     16  O   UNL     1      18.448   7.873  25.994  0.00  0.00    -0.248 OA
BRANCH  15  17
ATOM     17  O   UNL     1      19.563   6.181  27.066  0.00  0.00    -0.458 OA
BRANCH  17  18
ATOM     18  C   UNL     1      18.663   5.141  27.481  0.00  0.00    +0.267 C 
BRANCH  18  19
ATOM     19  C   UNL     1      19.444   3.949  27.971  0.00  0.00    -0.010 A 
ATOM     20  C   UNL     1      20.603   3.535  27.299  0.00  0.00    +0.007 A 
ATOM     21  C   UNL     1      21.343   2.448  27.768  0.00  0.00    +0.000 A 
ATOM     22  C   UNL     1      20.931   1.763  28.910  0.00  0.00    +0.000 A 
ATOM     23  C   UNL     1      19.777   2.161  29.581  0.00  0.00    +0.000 A 
ATOM     24  C   UNL     1      19.034   3.247  29.113  0.00  0.00    +0.007 A 
ENDBRANCH  18  19
ENDBRANCH  17  18
ENDBRANCH  15  17
ENDBRANCH  13  15
ENDBRANCH  11  13
ENDBRANCH   7   9
ENDBRANCH   6   7
ENDBRANCH   2   6
ENDBRANCH   1   4
BRANCH   1  25
ATOM     25  C   UNL     1      19.338  -0.964  22.387  0.00  0.00    +0.163 C 
BRANCH  25  26
ATOM     26  O   UNL     1      19.609   0.076  23.342  0.00  0.00    -0.388 OA
ATOM     27  H   UNL     1      19.136  -0.107  24.157  0.00  0.00    +0.210 HD
ENDBRANCH  25  26
BRANCH  25  28
ATOM     28  C   UNL     1      18.580  -2.130  23.044  0.00  0.00    +0.175 C 
BRANCH  28  29
ATOM     29  C   UNL     1      17.888  -1.708  24.348  0.00  0.00    +0.176 C 
ATOM     30  O   UNL     1      18.914  -1.540  25.365  0.00  0.00    -0.332 OA
ATOM     31  C   UNL     1      18.448  -1.032  26.659  0.00  0.00    +0.277 C 
ATOM     32  C   UNL     1      17.307  -1.923  27.209  0.00  0.00    +0.110 C 
ATOM     33  C   UNL     1      16.207  -2.156  26.153  0.00  0.00    +0.143 C 
ATOM     34  C   UNL     1      16.803  -2.681  24.846  0.00  0.00    +0.133 C 
BRANCH  34  35
ATOM     35  N   UNL     1      15.757  -2.817  23.820  0.00  0.00    -0.308 N 
ATOM     36  H   UNL     1      15.265  -1.982  23.535  0.00  0.00    +0.149 HD
ATOM     37  C   UNL     1      15.416  -3.971  23.241  0.00  0.00    +0.210 C 
ATOM     38  C   UNL     1      16.167  -5.229  23.717  0.00  0.00    +0.109 C 
ATOM     39  O   UNL     1      14.546  -4.053  22.374  0.00  0.00    -0.276 OA
ENDBRANCH  34  35
BRANCH  31  40
ATOM     40  C   UNL     1      17.950   0.422  26.529  0.00  0.00    +0.414 C 
ATOM     41  O   UNL     1      18.470   1.185  25.716  0.00  0.00    -0.240 OA
ATOM     42  O   UNL     1      17.028   0.832  27.236  0.00  0.00    -0.240 OA
ENDBRANCH  31  40
BRANCH  31  43
ATOM     43  O   UNL     1      19.560  -1.087  27.590  0.00  0.00    -0.343 OA
ATOM     44  C   UNL     1      20.853  -1.336  26.984  0.00  0.00    +0.198 C 
ENDBRANCH  31  43
BRANCH  33  45
ATOM     45  O   UNL     1      15.256  -3.100  26.648  0.00  0.00    -0.390 OA
ATOM     46  H   UNL     1      15.491  -3.353  27.544  0.00  0.00    +0.210 HD
ENDBRANCH  33  45
ENDBRANCH  28  29
BRANCH  28  47
ATOM     47  O   UNL     1      19.479  -3.229  23.292  0.00  0.00    -0.387 OA
ATOM     48  H   UNL     1      19.614  -3.722  22.479  0.00  0.00    +0.210 HD
ENDBRANCH  28  47
ENDBRANCH  25  28
ENDBRANCH   1  25
TORSDOF 18
