REMARK VINA RESULT:    -5.601      8.104     12.709
REMARK INTER + INTRA:         -14.060
REMARK INTER:                 -11.495
REMARK INTRA:                  -2.564
REMARK UNBOUND:                -2.564
REMARK  Name = lig_assembled_74.pdb
REMARK  24 active torsions:
REMARK  status: ('A' for Active; 'I' for Inactive)
REMARK    1  A    between atoms: _2  and  _9
REMARK    2  A    between atoms: _4  and  _22
REMARK    3  A    between atoms: _5  and  _14
REMARK    4  A    between atoms: _6  and  _7
REMARK    5  A    between atoms: _6  and  _22
REMARK    6  A    between atoms: _9  and  _10
REMARK    7  A    between atoms: _10  and  _11
REMARK    8  A    between atoms: _10  and  _13
REMARK    9  A    between atoms: _11  and  _12
REMARK   10  A    between atoms: _12  and  _16
REMARK   11  A    between atoms: _13  and  _14
REMARK   12  A    between atoms: _14  and  _15
REMARK   13  A    between atoms: _18  and  _38
REMARK   14  A    between atoms: _20  and  _26
REMARK   15  A    between atoms: _21  and  _25
REMARK   16  A    between atoms: _25  and  _26
REMARK   17  A    between atoms: _28  and  _29
REMARK   18  A    between atoms: _30  and  _31
REMARK   19  A    between atoms: _32  and  _34
REMARK   20  A    between atoms: _34  and  _35
REMARK   21  A    between atoms: _34  and  _36
REMARK   22  A    between atoms: _36  and  _37
REMARK   23  A    between atoms: _36  and  _38
REMARK   24  A    between atoms: _39  and  _41
REMARK                            x       y       z     vdW  Elec       q    Type
REMARK                         _______ _______ _______ _____ _____    ______ ____
ROOT
ATOM      1  C   UNL     1      10.245   4.038  37.499  0.00  0.00    +0.163 C 
ENDROOT
BRANCH   1   2
ATOM      2  O   UNL     1      10.517   5.370  37.034  0.00  0.00    -0.388 OA
ATOM      3  H   UNL     1      11.159   5.335  36.321  0.00  0.00    +0.210 HD
ENDBRANCH   1   2
BRANCH   1   4
ATOM      4  C   UNL     1       9.136   3.378  36.661  0.00  0.00    +0.175 C 
BRANCH   4   5
ATOM      5  C   UNL     1       8.339   4.406  35.845  0.00  0.00    +0.176 C 
ATOM      6  O   UNL     1       7.591   5.235  36.777  0.00  0.00    -0.332 OA
ATOM      7  C   UNL     1       6.848   6.348  36.180  0.00  0.00    +0.277 C 
ATOM      8  C   UNL     1       5.905   5.833  35.065  0.00  0.00    +0.110 C 
ATOM      9  C   UNL     1       6.649   4.921  34.067  0.00  0.00    +0.143 C 
ATOM     10  C   UNL     1       7.390   3.799  34.795  0.00  0.00    +0.133 C 
BRANCH  10  11
ATOM     11  N   UNL     1       8.164   2.990  33.842  0.00  0.00    -0.308 N 
ATOM     12  H   UNL     1       8.943   3.430  33.373  0.00  0.00    +0.149 HD
ATOM     13  C   UNL     1       7.905   1.711  33.556  0.00  0.00    +0.210 C 
ATOM     14  C   UNL     1       6.695   1.077  34.268  0.00  0.00    +0.109 C 
ATOM     15  O   UNL     1       8.580   1.053  32.764  0.00  0.00    -0.276 OA
ENDBRANCH  10  11
BRANCH   7  16
ATOM     16  C   UNL     1       7.814   7.399  35.594  0.00  0.00    +0.414 C 
ATOM     17  O   UNL     1       7.475   8.083  34.629  0.00  0.00    -0.240 OA
ATOM     18  O   UNL     1       8.932   7.562  36.085  0.00  0.00    -0.240 OA
ENDBRANCH   7  16
BRANCH   9  19
ATOM     19  O   UNL     1       5.715   4.350  33.149  0.00  0.00    -0.390 OA
ATOM     20  H   UNL     1       4.967   3.993  33.633  0.00  0.00    +0.210 HD
ENDBRANCH   9  19
BRANCH   7  21
ATOM     21  O   UNL     1       6.038   6.956  37.219  0.00  0.00    -0.343 OA
ATOM     22  C   UNL     1       6.495   6.710  38.574  0.00  0.00    +0.198 C 
ENDBRANCH   7  21
ENDBRANCH   4   5
BRANCH   4  23
ATOM     23  O   UNL     1       8.249   2.627  37.515  0.00  0.00    -0.387 OA
ATOM     24  H   UNL     1       8.683   1.816  37.793  0.00  0.00    +0.210 HD
ENDBRANCH   4  23
ENDBRANCH   1   4
BRANCH   1  25
ATOM     25  C   UNL     1      11.511   3.190  37.425  0.00  0.00    +0.141 C 
BRANCH  25  28
ATOM     26  C   UNL     1      12.446   3.073  35.141  0.00  0.00    +0.401 C 
ATOM     27  O   UNL     1      11.747   2.116  34.803  0.00  0.00    -0.226 OA
ATOM     28  N   UNL     1      12.406   3.636  36.350  0.00  0.00    -0.279 N 
ATOM     29  H   UNL     1      13.025   4.412  36.536  0.00  0.00    +0.152 HD
BRANCH  26  30
ATOM     30  O   UNL     1      13.367   3.629  34.198  0.00  0.00    -0.444 OA
BRANCH  30  31
ATOM     31  C   UNL     1      14.646   3.789  34.817  0.00  0.00    +0.292 C 
BRANCH  31  33
ATOM     32  N   UNL     1      14.601   6.159  35.555  0.00  0.00    -0.131 NA
ATOM     33  C   UNL     1      15.099   5.191  34.724  0.00  0.00    +0.120 A 
ATOM     34  C   UNL     1      16.081   5.743  33.930  0.00  0.00    +0.137 A 
ATOM     35  N   UNL     1      16.254   6.992  34.455  0.00  0.00    -0.251 N 
ATOM     36  N   UNL     1      15.300   7.270  35.363  0.00  0.00    -0.065 NA
BRANCH  35  37
ATOM     37  C   UNL     1      17.449   7.809  34.382  0.00  0.00    +0.149 C 
BRANCH  37  38
ATOM     38  C   UNL     1      17.534   8.759  33.168  0.00  0.00    +0.021 C 
BRANCH  38  39
ATOM     39  C   UNL     1      16.162   9.295  32.711  0.00  0.00    +0.125 C 
BRANCH  39  40
ATOM     40  C   UNL     1      15.860  10.717  33.139  0.00  0.00    +0.305 C 
ATOM     41  O   UNL     1      16.689  11.607  33.238  0.00  0.00    -0.251 OA
BRANCH  40  42
ATOM     42  O   UNL     1      14.549  10.937  33.345  0.00  0.00    -0.481 OA
ATOM     43  H   UNL     1      14.301  11.177  34.256  0.00  0.00    +0.295 HD
ENDBRANCH  40  42
ENDBRANCH  39  40
ENDBRANCH  38  39
BRANCH  38  44
ATOM     44  C   UNL     1      18.325   8.057  32.026  0.00  0.00    +0.009 C 
BRANCH  44  45
ATOM     45  C   UNL     1      19.241   8.968  31.182  0.00  0.00    -0.017 C 
ATOM     46  C   UNL     1      20.605   8.329  30.913  0.00  0.00    +0.007 C 
ATOM     47  C   UNL     1      18.577   9.308  29.843  0.00  0.00    +0.007 C 
ENDBRANCH  44  45
ENDBRANCH  38  44
ENDBRANCH  37  38
ENDBRANCH  35  37
ENDBRANCH  31  33
ENDBRANCH  30  31
ENDBRANCH  26  30
ENDBRANCH  25  28
ENDBRANCH   1  25
TORSDOF 20
