REMARK VINA RESULT:    -5.885      2.477      4.393
REMARK INTER + INTRA:         -13.066
REMARK INTER:                 -11.246
REMARK INTRA:                  -1.820
REMARK UNBOUND:                -2.536
REMARK  Name = lig_assembled_44.pdb
REMARK  17 active torsions:
REMARK  status: ('A' for Active; 'I' for Inactive)
REMARK    1  A    between atoms: _2  and  _9
REMARK    2  A    between atoms: _4  and  _19
REMARK    3  A    between atoms: _6  and  _7
REMARK    4  A    between atoms: _6  and  _19
REMARK    5  A    between atoms: _9  and  _10
REMARK    6  A    between atoms: _15  and  _35
REMARK    7  A    between atoms: _17  and  _23
REMARK    8  A    between atoms: _18  and  _22
REMARK    9  A    between atoms: _22  and  _23
REMARK   10  A    between atoms: _25  and  _26
REMARK   11  A    between atoms: _27  and  _28
REMARK   12  A    between atoms: _29  and  _31
REMARK   13  A    between atoms: _31  and  _32
REMARK   14  A    between atoms: _31  and  _33
REMARK   15  A    between atoms: _33  and  _34
REMARK   16  A    between atoms: _33  and  _35
REMARK   17  A    between atoms: _36  and  _38
REMARK                            x       y       z     vdW  Elec       q    Type
REMARK                         _______ _______ _______ _____ _____    ______ ____
ROOT
ATOM      1  C   UNL     1       6.991   3.974  33.557  0.00  0.00    +0.163 C 
ENDROOT
BRANCH   1   2
ATOM      2  O   UNL     1       7.676   5.047  32.890  0.00  0.00    -0.388 OA
ATOM      3  H   UNL     1       7.079   5.791  32.784  0.00  0.00    +0.210 HD
ENDBRANCH   1   2
BRANCH   1   4
ATOM      4  C   UNL     1       6.555   2.922  32.542  0.00  0.00    +0.141 C 
BRANCH   4   7
ATOM      5  C   UNL     1       4.375   2.274  31.578  0.00  0.00    +0.401 C 
ATOM      6  O   UNL     1       4.615   1.065  31.608  0.00  0.00    -0.226 OA
ATOM      7  N   UNL     1       5.227   3.214  31.989  0.00  0.00    -0.279 N 
ATOM      8  H   UNL     1       4.943   4.180  31.916  0.00  0.00    +0.152 HD
BRANCH   5   9
ATOM      9  O   UNL     1       3.114   2.719  31.072  0.00  0.00    -0.444 OA
BRANCH   9  10
ATOM     10  C   UNL     1       2.730   1.904  29.961  0.00  0.00    +0.292 C 
BRANCH  10  12
ATOM     11  N   UNL     1       1.116   3.747  29.588  0.00  0.00    -0.131 NA
ATOM     12  C   UNL     1       1.583   2.503  29.254  0.00  0.00    +0.120 A 
ATOM     13  C   UNL     1       0.834   2.006  28.213  0.00  0.00    +0.137 A 
ATOM     14  N   UNL     1      -0.020   3.026  27.907  0.00  0.00    -0.247 N 
ATOM     15  N   UNL     1       0.124   4.054  28.762  0.00  0.00    -0.065 NA
BRANCH  14  16
ATOM     16  C   UNL     1      -0.988   3.093  26.830  0.00  0.00    +0.180 C 
BRANCH  16  17
ATOM     17  C   UNL     1      -0.323   3.387  25.506  0.00  0.00    -0.026 A 
ATOM     18  C   UNL     1      -0.603   2.605  24.375  0.00  0.00    +0.006 A 
ATOM     19  C   UNL     1       0.025   2.869  23.156  0.00  0.00    +0.015 A 
ATOM     20  C   UNL     1       0.938   3.918  23.062  0.00  0.00    +0.018 A 
ATOM     21 BR   UNL     1       1.774   4.285  21.407  0.00  0.00    -0.050 Br
ATOM     22  C   UNL     1       1.237   4.697  24.176  0.00  0.00    +0.015 A 
ATOM     23  C   UNL     1       0.612   4.429  25.398  0.00  0.00    +0.006 A 
ENDBRANCH  16  17
ENDBRANCH  14  16
ENDBRANCH  10  12
ENDBRANCH   9  10
ENDBRANCH   5   9
ENDBRANCH   4   7
ENDBRANCH   1   4
BRANCH   1  24
ATOM     24  C   UNL     1       5.760   4.496  34.318  0.00  0.00    +0.175 C 
BRANCH  24  25
ATOM     25  C   UNL     1       6.139   5.519  35.399  0.00  0.00    +0.176 C 
ATOM     26  O   UNL     1       7.536   5.307  35.745  0.00  0.00    -0.332 OA
ATOM     27  C   UNL     1       8.107   6.268  36.693  0.00  0.00    +0.277 C 
ATOM     28  C   UNL     1       7.252   6.328  37.983  0.00  0.00    +0.110 C 
ATOM     29  C   UNL     1       5.754   6.521  37.664  0.00  0.00    +0.143 C 
ATOM     30  C   UNL     1       5.266   5.470  36.666  0.00  0.00    +0.133 C 
BRANCH  30  31
ATOM     31  N   UNL     1       3.861   5.717  36.305  0.00  0.00    -0.308 N 
ATOM     32  H   UNL     1       3.662   6.489  35.684  0.00  0.00    +0.149 HD
ATOM     33  C   UNL     1       2.832   4.987  36.743  0.00  0.00    +0.210 C 
ATOM     34  C   UNL     1       3.165   3.834  37.709  0.00  0.00    +0.109 C 
ATOM     35  O   UNL     1       1.666   5.208  36.412  0.00  0.00    -0.276 OA
ENDBRANCH  30  31
BRANCH  27  36
ATOM     36  C   UNL     1       8.191   7.674  36.064  0.00  0.00    +0.414 C 
ATOM     37  O   UNL     1       8.259   8.671  36.781  0.00  0.00    -0.240 OA
ATOM     38  O   UNL     1       8.190   7.811  34.840  0.00  0.00    -0.240 OA
ENDBRANCH  27  36
BRANCH  27  39
ATOM     39  O   UNL     1       9.438   5.811  37.048  0.00  0.00    -0.343 OA
ATOM     40  C   UNL     1       9.647   4.381  36.929  0.00  0.00    +0.198 C 
ENDBRANCH  27  39
BRANCH  29  41
ATOM     41  O   UNL     1       4.989   6.419  38.866  0.00  0.00    -0.390 OA
ATOM     42  H   UNL     1       5.217   5.607  39.324  0.00  0.00    +0.210 HD
ENDBRANCH  29  41
ENDBRANCH  24  25
BRANCH  24  43
ATOM     43  O   UNL     1       5.037   3.397  34.906  0.00  0.00    -0.387 OA
ATOM     44  H   UNL     1       5.038   2.652  34.300  0.00  0.00    +0.210 HD
ENDBRANCH  24  43
ENDBRANCH   1  24
TORSDOF 15
