REMARK VINA RESULT:    -5.140      3.325      9.178
REMARK INTER + INTRA:         -13.177
REMARK INTER:                 -10.670
REMARK INTRA:                  -2.506
REMARK UNBOUND:                -3.380
REMARK  Name = lig_assembled_62.pdb
REMARK  20 active torsions:
REMARK  status: ('A' for Active; 'I' for Inactive)
REMARK    1  A    between atoms: _2  and  _10
REMARK    2  A    between atoms: _5  and  _19
REMARK    3  A    between atoms: _6  and  _10
REMARK    4  A    between atoms: _7  and  _8
REMARK    5  A    between atoms: _7  and  _19
REMARK    6  A    between atoms: _10  and  _11
REMARK    7  A    between atoms: _11  and  _14
REMARK    8  A    between atoms: _12  and  _14
REMARK    9  A    between atoms: _15  and  _35
REMARK   10  A    between atoms: _17  and  _23
REMARK   11  A    between atoms: _18  and  _22
REMARK   12  A    between atoms: _22  and  _23
REMARK   13  A    between atoms: _25  and  _26
REMARK   14  A    between atoms: _27  and  _28
REMARK   15  A    between atoms: _29  and  _31
REMARK   16  A    between atoms: _31  and  _32
REMARK   17  A    between atoms: _31  and  _33
REMARK   18  A    between atoms: _33  and  _34
REMARK   19  A    between atoms: _33  and  _35
REMARK   20  A    between atoms: _36  and  _38
REMARK                            x       y       z     vdW  Elec       q    Type
REMARK                         _______ _______ _______ _____ _____    ______ ____
ROOT
ATOM      1  C   UNL     1      16.811   1.791  22.439  0.00  0.00    +0.163 C 
ENDROOT
BRANCH   1   2
ATOM      2  O   UNL     1      17.601   1.197  21.396  0.00  0.00    -0.388 OA
ATOM      3  H   UNL     1      18.149   1.871  20.986  0.00  0.00    +0.210 HD
ENDBRANCH   1   2
BRANCH   1   4
ATOM      4  C   UNL     1      17.537   1.709  23.793  0.00  0.00    +0.175 C 
BRANCH   4   5
ATOM      5  C   UNL     1      17.869   0.262  24.184  0.00  0.00    +0.176 C 
ATOM      6  O   UNL     1      16.714  -0.563  23.867  0.00  0.00    -0.332 OA
ATOM      7  C   UNL     1      16.887  -2.004  24.077  0.00  0.00    +0.277 C 
ATOM      8  C   UNL     1      17.351  -2.288  25.527  0.00  0.00    +0.110 C 
ATOM      9  C   UNL     1      18.558  -1.411  25.921  0.00  0.00    +0.143 C 
ATOM     10  C   UNL     1      18.270   0.068  25.659  0.00  0.00    +0.133 C 
BRANCH  10  11
ATOM     11  N   UNL     1      19.457   0.885  25.956  0.00  0.00    -0.308 N 
ATOM     12  H   UNL     1      20.261   0.786  25.352  0.00  0.00    +0.149 HD
ATOM     13  C   UNL     1      19.542   1.748  26.972  0.00  0.00    +0.210 C 
ATOM     14  C   UNL     1      18.309   1.857  27.889  0.00  0.00    +0.109 C 
ATOM     15  O   UNL     1      20.544   2.430  27.188  0.00  0.00    -0.276 OA
ENDBRANCH  10  11
BRANCH   7  16
ATOM     16  C   UNL     1      17.917  -2.581  23.084  0.00  0.00    +0.414 C 
ATOM     17  O   UNL     1      18.489  -3.642  23.330  0.00  0.00    -0.240 OA
ATOM     18  O   UNL     1      18.176  -1.987  22.036  0.00  0.00    -0.240 OA
ENDBRANCH   7  16
BRANCH   7  19
ATOM     19  O   UNL     1      15.601  -2.645  23.874  0.00  0.00    -0.343 OA
ATOM     20  C   UNL     1      15.314  -3.741  24.778  0.00  0.00    +0.198 C 
ENDBRANCH   7  19
BRANCH   9  21
ATOM     21  O   UNL     1      18.855  -1.594  27.306  0.00  0.00    -0.390 OA
ATOM     22  H   UNL     1      19.651  -2.122  27.395  0.00  0.00    +0.210 HD
ENDBRANCH   9  21
ENDBRANCH   4   5
BRANCH   4  23
ATOM     23  O   UNL     1      16.741   2.332  24.822  0.00  0.00    -0.387 OA
ATOM     24  H   UNL     1      15.824   2.365  24.541  0.00  0.00    +0.210 HD
ENDBRANCH   4  23
ENDBRANCH   1   4
BRANCH   1  25
ATOM     25  C   UNL     1      16.518   3.250  22.106  0.00  0.00    +0.141 C 
BRANCH  25  28
ATOM     26  C   UNL     1      17.489   5.430  22.746  0.00  0.00    +0.401 C 
ATOM     27  O   UNL     1      16.413   6.031  22.696  0.00  0.00    -0.226 OA
ATOM     28  N   UNL     1      17.631   4.131  22.480  0.00  0.00    -0.279 N 
ATOM     29  H   UNL     1      18.557   3.731  22.538  0.00  0.00    +0.152 HD
BRANCH  26  30
ATOM     30  O   UNL     1      18.671   6.151  23.106  0.00  0.00    -0.444 OA
BRANCH  30  31
ATOM     31  C   UNL     1      19.121   5.720  24.393  0.00  0.00    +0.292 C 
BRANCH  31  33
ATOM     32  N   UNL     1      20.581   7.651  24.912  0.00  0.00    -0.131 NA
ATOM     33  C   UNL     1      19.493   6.882  25.222  0.00  0.00    +0.120 A 
ATOM     34  C   UNL     1      18.894   7.387  26.355  0.00  0.00    +0.138 A 
ATOM     35  N   UNL     1      19.673   8.455  26.696  0.00  0.00    -0.237 N 
ATOM     36  N   UNL     1      20.683   8.613  25.819  0.00  0.00    -0.065 NA
BRANCH  35  37
ATOM     37  C   UNL     1      19.528   9.393  27.796  0.00  0.00    +0.219 C 
BRANCH  37  38
ATOM     38  C   UNL     1      18.711  10.598  27.358  0.00  0.00    +0.237 C 
ATOM     39  O   UNL     1      17.900  11.181  28.072  0.00  0.00    -0.274 OA
ATOM     40  N   UNL     1      18.968  11.072  26.099  0.00  0.00    -0.328 N 
ATOM     41  H   UNL     1      19.685  10.698  25.492  0.00  0.00    +0.145 HD
ATOM     42  H   UNL     1      18.444  11.880  25.784  0.00  0.00    +0.145 HD
ENDBRANCH  37  38
BRANCH  37  43
ATOM     43  C   UNL     1      20.895   9.822  28.324  0.00  0.00    +0.195 C 
BRANCH  43  44
ATOM     44  O   UNL     1      21.425   8.789  29.166  0.00  0.00    -0.380 OA
ATOM     45  C   UNL     1      21.553   9.223  30.515  0.00  0.00    +0.194 C 
ENDBRANCH  43  44
ENDBRANCH  37  43
ENDBRANCH  35  37
ENDBRANCH  31  33
ENDBRANCH  30  31
ENDBRANCH  26  30
ENDBRANCH  25  28
ENDBRANCH   1  25
TORSDOF 17
