REMARK VINA RESULT:    -5.779     14.883     17.652
REMARK INTER + INTRA:         -13.727
REMARK INTER:                 -10.476
REMARK INTRA:                  -3.251
REMARK UNBOUND:                -2.036
REMARK  Name = lig_assembled_45.pdb
REMARK  24 active torsions:
REMARK  status: ('A' for Active; 'I' for Inactive)
REMARK    1  A    between atoms: _2  and  _10
REMARK    2  A    between atoms: _3  and  _12
REMARK    3  A    between atoms: _3  and  _13
REMARK    4  A    between atoms: _3  and  _14
REMARK    5  A    between atoms: _3  and  _16
REMARK    6  A    between atoms: _5  and  _21
REMARK    7  A    between atoms: _6  and  _16
REMARK    8  A    between atoms: _7  and  _8
REMARK    9  A    between atoms: _7  and  _21
REMARK   10  A    between atoms: _10  and  _11
REMARK   11  A    between atoms: _11  and  _12
REMARK   12  A    between atoms: _14  and  _15
REMARK   13  A    between atoms: _17  and  _37
REMARK   14  A    between atoms: _19  and  _25
REMARK   15  A    between atoms: _20  and  _24
REMARK   16  A    between atoms: _24  and  _25
REMARK   17  A    between atoms: _27  and  _28
REMARK   18  A    between atoms: _29  and  _30
REMARK   19  A    between atoms: _31  and  _33
REMARK   20  A    between atoms: _33  and  _34
REMARK   21  A    between atoms: _33  and  _35
REMARK   22  A    between atoms: _35  and  _36
REMARK   23  A    between atoms: _35  and  _37
REMARK   24  A    between atoms: _38  and  _40
REMARK                            x       y       z     vdW  Elec       q    Type
REMARK                         _______ _______ _______ _____ _____    ______ ____
ROOT
ATOM      1  C   UNL     1      19.318  -0.703  22.505  0.00  0.00    +0.163 C 
ENDROOT
BRANCH   1   2
ATOM      2  O   UNL     1      19.429   0.370  23.454  0.00  0.00    -0.388 OA
ATOM      3  H   UNL     1      18.552   0.677  23.695  0.00  0.00    +0.210 HD
ENDBRANCH   1   2
BRANCH   1   4
ATOM      4  C   UNL     1      18.630  -1.926  23.136  0.00  0.00    +0.175 C 
BRANCH   4   5
ATOM      5  C   UNL     1      17.783  -1.545  24.359  0.00  0.00    +0.176 C 
ATOM      6  O   UNL     1      18.687  -1.292  25.469  0.00  0.00    -0.332 OA
ATOM      7  C   UNL     1      18.058  -0.810  26.702  0.00  0.00    +0.277 C 
ATOM      8  C   UNL     1      16.936  -1.778  27.152  0.00  0.00    +0.110 C 
ATOM      9  C   UNL     1      15.967  -2.102  25.996  0.00  0.00    +0.143 C 
ATOM     10  C   UNL     1      16.727  -2.591  24.763  0.00  0.00    +0.133 C 
BRANCH  10  11
ATOM     11  N   UNL     1      15.801  -2.814  23.641  0.00  0.00    -0.308 N 
ATOM     12  H   UNL     1      15.308  -2.013  23.271  0.00  0.00    +0.149 HD
ATOM     13  C   UNL     1      15.570  -4.004  23.080  0.00  0.00    +0.210 C 
ATOM     14  C   UNL     1      16.318  -5.207  23.684  0.00  0.00    +0.109 C 
ATOM     15  O   UNL     1      14.800  -4.157  22.132  0.00  0.00    -0.276 OA
ENDBRANCH  10  11
BRANCH   7  16
ATOM     16  C   UNL     1      17.471   0.602  26.501  0.00  0.00    +0.414 C 
ATOM     17  O   UNL     1      16.402   0.910  27.027  0.00  0.00    -0.240 OA
ATOM     18  O   UNL     1      18.065   1.433  25.813  0.00  0.00    -0.240 OA
ENDBRANCH   7  16
BRANCH   9  19
ATOM     19  O   UNL     1      15.043  -3.109  26.410  0.00  0.00    -0.390 OA
ATOM     20  H   UNL     1      15.360  -3.523  27.216  0.00  0.00    +0.210 HD
ENDBRANCH   9  19
BRANCH   7  21
ATOM     21  O   UNL     1      19.073  -0.773  27.739  0.00  0.00    -0.343 OA
ATOM     22  C   UNL     1      20.441  -0.776  27.257  0.00  0.00    +0.198 C 
ENDBRANCH   7  21
ENDBRANCH   4   5
BRANCH   4  23
ATOM     23  O   UNL     1      19.613  -2.915  23.502  0.00  0.00    -0.387 OA
ATOM     24  H   UNL     1      20.089  -3.198  22.718  0.00  0.00    +0.210 HD
ENDBRANCH   4  23
ENDBRANCH   1   4
BRANCH   1  25
ATOM     25  C   UNL     1      18.523  -0.243  21.288  0.00  0.00    +0.141 C 
BRANCH  25  28
ATOM     26  C   UNL     1      17.195   1.722  20.596  0.00  0.00    +0.401 C 
ATOM     27  O   UNL     1      17.178   1.409  19.403  0.00  0.00    -0.226 OA
ATOM     28  N   UNL     1      17.805   1.011  21.545  0.00  0.00    -0.279 N 
ATOM     29  H   UNL     1      17.771   1.355  22.494  0.00  0.00    +0.152 HD
BRANCH  26  30
ATOM     30  O   UNL     1      16.529   2.919  21.009  0.00  0.00    -0.444 OA
BRANCH  30  31
ATOM     31  C   UNL     1      16.509   2.985  22.437  0.00  0.00    +0.292 C 
BRANCH  31  33
ATOM     32  N   UNL     1      18.717   3.403  23.485  0.00  0.00    -0.131 NA
ATOM     33  C   UNL     1      17.568   3.890  22.922  0.00  0.00    +0.120 A 
ATOM     34  C   UNL     1      17.617   5.265  22.917  0.00  0.00    +0.137 A 
ATOM     35  N   UNL     1      18.822   5.540  23.487  0.00  0.00    -0.251 N 
ATOM     36  N   UNL     1      19.480   4.432  23.833  0.00  0.00    -0.065 NA
BRANCH  35  37
ATOM     37  C   UNL     1      19.390   6.847  23.750  0.00  0.00    +0.150 C 
BRANCH  37  38
ATOM     38  C   UNL     1      19.730   7.060  25.220  0.00  0.00    +0.074 C 
BRANCH  38  39
ATOM     39  C   UNL     1      18.665   6.642  26.243  0.00  0.00    +0.134 C 
BRANCH  39  40
ATOM     40  N   UNL     1      19.085   5.639  27.369  0.00  0.00    +0.241 N 
ATOM     41  C   UNL     1      18.988   6.353  28.728  0.00  0.00    +0.192 C 
BRANCH  40  42
ATOM     42  C   UNL     1      20.586   5.289  27.099  0.00  0.00    +0.129 C 
ATOM     43  C   UNL     1      21.508   5.560  28.282  0.00  0.00    +0.060 C 
ENDBRANCH  40  42
BRANCH  40  44
ATOM     44  C   UNL     1      18.252   4.345  27.425  0.00  0.00    +0.129 C 
ATOM     45  C   UNL     1      18.274   3.647  28.775  0.00  0.00    +0.060 C 
ENDBRANCH  40  44
ENDBRANCH  39  40
ENDBRANCH  38  39
ENDBRANCH  37  38
ENDBRANCH  35  37
ENDBRANCH  31  33
ENDBRANCH  30  31
ENDBRANCH  26  30
ENDBRANCH  25  28
ENDBRANCH   1  25
TORSDOF 19
