REMARK VINA RESULT:    -5.483     21.137     24.655
REMARK INTER + INTRA:         -13.816
REMARK INTER:                 -10.931
REMARK INTRA:                  -2.885
REMARK UNBOUND:                -2.564
REMARK  Name = lig_assembled_74.pdb
REMARK  24 active torsions:
REMARK  status: ('A' for Active; 'I' for Inactive)
REMARK    1  A    between atoms: _2  and  _9
REMARK    2  A    between atoms: _4  and  _22
REMARK    3  A    between atoms: _5  and  _14
REMARK    4  A    between atoms: _6  and  _7
REMARK    5  A    between atoms: _6  and  _22
REMARK    6  A    between atoms: _9  and  _10
REMARK    7  A    between atoms: _10  and  _11
REMARK    8  A    between atoms: _10  and  _13
REMARK    9  A    between atoms: _11  and  _12
REMARK   10  A    between atoms: _12  and  _16
REMARK   11  A    between atoms: _13  and  _14
REMARK   12  A    between atoms: _14  and  _15
REMARK   13  A    between atoms: _18  and  _38
REMARK   14  A    between atoms: _20  and  _26
REMARK   15  A    between atoms: _21  and  _25
REMARK   16  A    between atoms: _25  and  _26
REMARK   17  A    between atoms: _28  and  _29
REMARK   18  A    between atoms: _30  and  _31
REMARK   19  A    between atoms: _32  and  _34
REMARK   20  A    between atoms: _34  and  _35
REMARK   21  A    between atoms: _34  and  _36
REMARK   22  A    between atoms: _36  and  _37
REMARK   23  A    between atoms: _36  and  _38
REMARK   24  A    between atoms: _39  and  _41
REMARK                            x       y       z     vdW  Elec       q    Type
REMARK                         _______ _______ _______ _____ _____    ______ ____
ROOT
ATOM      1  C   UNL     1      -6.574   8.218  18.272  0.00  0.00    +0.163 C 
ENDROOT
BRANCH   1   2
ATOM      2  O   UNL     1      -7.638   8.046  17.322  0.00  0.00    -0.388 OA
ATOM      3  H   UNL     1      -8.256   7.387  17.648  0.00  0.00    +0.210 HD
ENDBRANCH   1   2
BRANCH   1   4
ATOM      4  C   UNL     1      -5.567   9.273  17.784  0.00  0.00    +0.175 C 
BRANCH   4   5
ATOM      5  C   UNL     1      -4.752   8.781  16.579  0.00  0.00    +0.176 C 
ATOM      6  O   UNL     1      -3.783   7.810  17.061  0.00  0.00    -0.332 OA
ATOM      7  C   UNL     1      -2.980   7.149  16.027  0.00  0.00    +0.277 C 
ATOM      8  C   UNL     1      -2.271   8.200  15.139  0.00  0.00    +0.110 C 
ATOM      9  C   UNL     1      -3.256   9.273  14.628  0.00  0.00    +0.143 C 
ATOM     10  C   UNL     1      -4.040   9.893  15.786  0.00  0.00    +0.133 C 
BRANCH  10  11
ATOM     11  N   UNL     1      -5.036  10.850  15.279  0.00  0.00    -0.308 N 
ATOM     12  H   UNL     1      -5.765  10.497  14.676  0.00  0.00    +0.149 HD
ATOM     13  C   UNL     1      -5.039  12.155  15.564  0.00  0.00    +0.210 C 
ATOM     14  C   UNL     1      -3.899  12.667  16.465  0.00  0.00    +0.109 C 
ATOM     15  O   UNL     1      -5.894  12.931  15.137  0.00  0.00    -0.276 OA
ENDBRANCH  10  11
BRANCH   7  16
ATOM     16  C   UNL     1      -3.863   6.241  15.146  0.00  0.00    +0.414 C 
ATOM     17  O   UNL     1      -3.611   6.103  13.950  0.00  0.00    -0.240 OA
ATOM     18  O   UNL     1      -4.827   5.648  15.631  0.00  0.00    -0.240 OA
ENDBRANCH   7  16
BRANCH   9  19
ATOM     19  O   UNL     1      -2.537  10.300  13.943  0.00  0.00    -0.390 OA
ATOM     20  H   UNL     1      -2.958  11.148  14.105  0.00  0.00    +0.210 HD
ENDBRANCH   9  19
BRANCH   7  21
ATOM     21  O   UNL     1      -1.966   6.350  16.689  0.00  0.00    -0.343 OA
ATOM     22  C   UNL     1      -0.603   6.636  16.287  0.00  0.00    +0.198 C 
ENDBRANCH   7  21
ENDBRANCH   4   5
BRANCH   4  23
ATOM     23  O   UNL     1      -4.684   9.652  18.859  0.00  0.00    -0.387 OA
ATOM     24  H   UNL     1      -3.883   9.125  18.817  0.00  0.00    +0.210 HD
ENDBRANCH   4  23
ENDBRANCH   1   4
BRANCH   1  25
ATOM     25  C   UNL     1      -7.143   8.642  19.622  0.00  0.00    +0.141 C 
BRANCH  25  28
ATOM     26  C   UNL     1      -6.352   8.678  21.963  0.00  0.00    +0.401 C 
ATOM     27  O   UNL     1      -7.050   9.643  22.283  0.00  0.00    -0.226 OA
ATOM     28  N   UNL     1      -6.328   8.148  20.739  0.00  0.00    -0.279 N 
ATOM     29  H   UNL     1      -5.715   7.363  20.571  0.00  0.00    +0.152 HD
BRANCH  26  30
ATOM     30  O   UNL     1      -5.506   8.077  22.946  0.00  0.00    -0.444 OA
BRANCH  30  31
ATOM     31  C   UNL     1      -5.590   6.653  22.842  0.00  0.00    +0.292 C 
BRANCH  31  33
ATOM     32  N   UNL     1      -3.110   6.768  22.780  0.00  0.00    -0.131 NA
ATOM     33  C   UNL     1      -4.266   6.072  22.543  0.00  0.00    +0.120 A 
ATOM     34  C   UNL     1      -3.946   4.808  22.096  0.00  0.00    +0.137 A 
ATOM     35  N   UNL     1      -2.591   4.743  22.261  0.00  0.00    -0.251 N 
ATOM     36  N   UNL     1      -2.086   5.950  22.579  0.00  0.00    -0.065 NA
BRANCH  35  37
ATOM     37  C   UNL     1      -1.793   3.548  22.450  0.00  0.00    +0.149 C 
BRANCH  37  38
ATOM     38  C   UNL     1      -0.530   3.443  21.568  0.00  0.00    +0.021 C 
BRANCH  38  39
ATOM     39  C   UNL     1      -0.787   2.767  20.206  0.00  0.00    +0.125 C 
BRANCH  39  40
ATOM     40  C   UNL     1      -0.612   3.673  19.004  0.00  0.00    +0.305 C 
ATOM     41  O   UNL     1      -0.106   3.339  17.945  0.00  0.00    -0.251 OA
BRANCH  40  42
ATOM     42  O   UNL     1      -1.136   4.898  19.189  0.00  0.00    -0.481 OA
ATOM     43  H   UNL     1      -2.027   5.034  18.818  0.00  0.00    +0.295 HD
ENDBRANCH  40  42
ENDBRANCH  39  40
ENDBRANCH  38  39
BRANCH  38  44
ATOM     44  C   UNL     1       0.605   2.757  22.384  0.00  0.00    +0.009 C 
BRANCH  44  45
ATOM     45  C   UNL     1       1.795   3.660  22.773  0.00  0.00    -0.017 C 
ATOM     46  C   UNL     1       1.719   5.036  22.109  0.00  0.00    +0.007 C 
ATOM     47  C   UNL     1       1.858   3.841  24.294  0.00  0.00    +0.007 C 
ENDBRANCH  44  45
ENDBRANCH  38  44
ENDBRANCH  37  38
ENDBRANCH  35  37
ENDBRANCH  31  33
ENDBRANCH  30  31
ENDBRANCH  26  30
ENDBRANCH  25  28
ENDBRANCH   1  25
TORSDOF 20
