REMARK VINA RESULT:    -6.049     13.338     15.303
REMARK INTER + INTRA:         -13.431
REMARK INTER:                 -11.142
REMARK INTRA:                  -2.289
REMARK UNBOUND:                -2.608
REMARK  Name = lig_assembled_4.pdb
REMARK  19 active torsions:
REMARK  status: ('A' for Active; 'I' for Inactive)
REMARK    1  A    between atoms: _2  and  _9
REMARK    2  A    between atoms: _4  and  _21
REMARK    3  A    between atoms: _6  and  _7
REMARK    4  A    between atoms: _6  and  _21
REMARK    5  A    between atoms: _10  and  _11
REMARK    6  A    between atoms: _11  and  _12
REMARK    7  A    between atoms: _11  and  _13
REMARK    8  A    between atoms: _17  and  _37
REMARK    9  A    between atoms: _19  and  _25
REMARK   10  A    between atoms: _20  and  _24
REMARK   11  A    between atoms: _24  and  _25
REMARK   12  A    between atoms: _27  and  _28
REMARK   13  A    between atoms: _29  and  _30
REMARK   14  A    between atoms: _31  and  _33
REMARK   15  A    between atoms: _33  and  _34
REMARK   16  A    between atoms: _33  and  _35
REMARK   17  A    between atoms: _35  and  _36
REMARK   18  A    between atoms: _35  and  _37
REMARK   19  A    between atoms: _38  and  _40
REMARK                            x       y       z     vdW  Elec       q    Type
REMARK                         _______ _______ _______ _____ _____    ______ ____
ROOT
ATOM      1  C   UNL     1      19.442   8.597  29.257  0.00  0.00    +0.163 C 
ENDROOT
BRANCH   1   2
ATOM      2  O   UNL     1      18.936   9.859  28.791  0.00  0.00    -0.388 OA
ATOM      3  H   UNL     1      18.859   9.839  27.834  0.00  0.00    +0.210 HD
ENDBRANCH   1   2
BRANCH   1   4
ATOM      4  C   UNL     1      20.139   7.861  28.117  0.00  0.00    +0.141 C 
BRANCH   4   7
ATOM      5  C   UNL     1      18.757   6.985  26.266  0.00  0.00    +0.401 C 
ATOM      6  O   UNL     1      18.713   5.838  26.716  0.00  0.00    -0.226 OA
ATOM      7  N   UNL     1      19.406   7.992  26.852  0.00  0.00    -0.279 N 
ATOM      8  H   UNL     1      19.392   8.896  26.401  0.00  0.00    +0.152 HD
BRANCH   5   9
ATOM      9  O   UNL     1      18.082   7.276  25.039  0.00  0.00    -0.444 OA
BRANCH   9  10
ATOM     10  C   UNL     1      18.792   6.680  23.950  0.00  0.00    +0.292 C 
BRANCH  10  12
ATOM     11  N   UNL     1      17.106   5.378  22.703  0.00  0.00    -0.131 NA
ATOM     12  C   UNL     1      18.166   5.405  23.556  0.00  0.00    +0.121 A 
ATOM     13  C   UNL     1      18.458   4.119  23.954  0.00  0.00    +0.143 A 
ATOM     14  N   UNL     1      17.451   3.343  23.410  0.00  0.00    -0.219 N 
ATOM     15  N   UNL     1      16.698   4.120  22.601  0.00  0.00    -0.060 NA
BRANCH  14  16
ATOM     16  C   UNL     1      17.194   1.960  23.653  0.00  0.00    +0.070 A 
ATOM     17  C   UNL     1      17.552   0.928  22.743  0.00  0.00    -0.019 A 
ATOM     18  C   UNL     1      17.209  -0.397  23.094  0.00  0.00    +0.006 A 
ATOM     19  C   UNL     1      16.533  -0.701  24.277  0.00  0.00    +0.000 A 
ATOM     20  C   UNL     1      16.196   0.313  25.160  0.00  0.00    +0.002 A 
ATOM     21  C   UNL     1      16.521   1.633  24.852  0.00  0.00    +0.028 A 
BRANCH  17  22
ATOM     22  C   UNL     1      18.271   1.162  21.413  0.00  0.00    +0.015 C 
ATOM     23  C   UNL     1      17.357   1.541  20.237  0.00  0.00    +0.012 C 
ATOM     24  C   UNL     1      19.105  -0.068  21.047  0.00  0.00    +0.012 C 
ENDBRANCH  17  22
ENDBRANCH  14  16
ENDBRANCH  10  12
ENDBRANCH   9  10
ENDBRANCH   5   9
ENDBRANCH   4   7
ENDBRANCH   1   4
BRANCH   1  25
ATOM     25  C   UNL     1      18.307   7.722  29.816  0.00  0.00    +0.175 C 
BRANCH  25  26
ATOM     26  C   UNL     1      18.035   8.006  31.301  0.00  0.00    +0.176 C 
ATOM     27  O   UNL     1      17.421   9.321  31.398  0.00  0.00    -0.332 OA
ATOM     28  C   UNL     1      16.991   9.721  32.742  0.00  0.00    +0.277 C 
ATOM     29  C   UNL     1      18.170   9.619  33.740  0.00  0.00    +0.110 C 
ATOM     30  C   UNL     1      18.876   8.250  33.650  0.00  0.00    +0.143 C 
ATOM     31  C   UNL     1      19.277   7.933  32.209  0.00  0.00    +0.133 C 
BRANCH  31  32
ATOM     32  N   UNL     1      19.869   6.588  32.123  0.00  0.00    -0.308 N 
ATOM     33  H   UNL     1      19.264   5.795  32.280  0.00  0.00    +0.149 HD
ATOM     34  C   UNL     1      21.155   6.349  31.851  0.00  0.00    +0.210 C 
ATOM     35  C   UNL     1      22.057   7.579  31.643  0.00  0.00    +0.109 C 
ATOM     36  O   UNL     1      21.620   5.211  31.771  0.00  0.00    -0.276 OA
ENDBRANCH  31  32
BRANCH  28  37
ATOM     37  C   UNL     1      15.825   8.837  33.229  0.00  0.00    +0.414 C 
ATOM     38  O   UNL     1      14.950   8.475  32.443  0.00  0.00    -0.240 OA
ATOM     39  O   UNL     1      15.759   8.484  34.408  0.00  0.00    -0.240 OA
ENDBRANCH  28  37
BRANCH  30  40
ATOM     40  O   UNL     1      20.043   8.254  34.473  0.00  0.00    -0.390 OA
ATOM     41  H   UNL     1      20.711   7.684  34.085  0.00  0.00    +0.210 HD
ENDBRANCH  30  40
BRANCH  28  42
ATOM     42  O   UNL     1      16.561  11.106  32.681  0.00  0.00    -0.343 OA
ATOM     43  C   UNL     1      17.257  12.003  33.583  0.00  0.00    +0.198 C 
ENDBRANCH  28  42
ENDBRANCH  25  26
BRANCH  25  44
ATOM     44  O   UNL     1      18.617   6.327  29.627  0.00  0.00    -0.387 OA
ATOM     45  H   UNL     1      19.348   6.242  29.010  0.00  0.00    +0.210 HD
ENDBRANCH  25  44
ENDBRANCH   1  25
TORSDOF 15
