REMARK VINA RESULT:    -6.360     13.231     18.103
REMARK INTER + INTRA:         -13.192
REMARK INTER:                 -10.570
REMARK INTRA:                  -2.622
REMARK UNBOUND:                -1.813
REMARK  Name = lig_assembled_41.pdb
REMARK  18 active torsions:
REMARK  status: ('A' for Active; 'I' for Inactive)
REMARK    1  A    between atoms: _2  and  _9
REMARK    2  A    between atoms: _4  and  _21
REMARK    3  A    between atoms: _6  and  _7
REMARK    4  A    between atoms: _6  and  _21
REMARK    5  A    between atoms: _10  and  _11
REMARK    6  A    between atoms: _11  and  _12
REMARK    7  A    between atoms: _17  and  _37
REMARK    8  A    between atoms: _19  and  _25
REMARK    9  A    between atoms: _20  and  _24
REMARK   10  A    between atoms: _24  and  _25
REMARK   11  A    between atoms: _27  and  _28
REMARK   12  A    between atoms: _29  and  _30
REMARK   13  A    between atoms: _31  and  _33
REMARK   14  A    between atoms: _33  and  _34
REMARK   15  A    between atoms: _33  and  _35
REMARK   16  A    between atoms: _35  and  _36
REMARK   17  A    between atoms: _35  and  _37
REMARK   18  A    between atoms: _38  and  _40
REMARK                            x       y       z     vdW  Elec       q    Type
REMARK                         _______ _______ _______ _____ _____    ______ ____
ROOT
ATOM      1  C   UNL     1      18.831   5.447  24.697  0.00  0.00    +0.163 C 
ENDROOT
BRANCH   1   2
ATOM      2  O   UNL     1      17.869   5.651  23.649  0.00  0.00    -0.388 OA
ATOM      3  H   UNL     1      18.082   6.455  23.169  0.00  0.00    +0.210 HD
ENDBRANCH   1   2
BRANCH   1   4
ATOM      4  C   UNL     1      19.442   6.782  25.111  0.00  0.00    +0.141 C 
BRANCH   4   7
ATOM      5  C   UNL     1      19.758   6.856  27.560  0.00  0.00    +0.401 C 
ATOM      6  O   UNL     1      20.808   6.209  27.539  0.00  0.00    -0.226 OA
ATOM      7  N   UNL     1      19.050   7.164  26.473  0.00  0.00    -0.279 N 
ATOM      8  H   UNL     1      18.196   7.691  26.593  0.00  0.00    +0.152 HD
BRANCH   5   9
ATOM      9  O   UNL     1      19.247   7.309  28.816  0.00  0.00    -0.444 OA
BRANCH   9  10
ATOM     10  C   UNL     1      19.095   8.731  28.785  0.00  0.00    +0.292 C 
BRANCH  10  12
ATOM     11  N   UNL     1      17.653  10.290  30.039  0.00  0.00    -0.131 NA
ATOM     12  C   UNL     1      18.483   9.210  30.037  0.00  0.00    +0.121 A 
ATOM     13  C   UNL     1      18.584   8.719  31.321  0.00  0.00    +0.143 A 
ATOM     14  N   UNL     1      17.877   9.605  32.101  0.00  0.00    -0.219 N 
ATOM     15  N   UNL     1      17.246  10.492  31.283  0.00  0.00    -0.060 NA
BRANCH  14  16
ATOM     16  C   UNL     1      17.652   9.632  33.507  0.00  0.00    +0.077 A 
ATOM     17  C   UNL     1      16.535   9.062  34.154  0.00  0.00    +0.043 A 
ATOM     18  C   UNL     1      16.413   9.208  35.552  0.00  0.00    +0.013 A 
ATOM     19  C   UNL     1      17.367   9.907  36.295  0.00  0.00    +0.001 A 
ATOM     20  C   UNL     1      18.478  10.446  35.662  0.00  0.00    +0.002 A 
ATOM     21  C   UNL     1      18.625  10.301  34.284  0.00  0.00    +0.028 A 
BRANCH  17  22
ATOM     22  C   UNL     1      15.573   8.131  33.490  0.00  0.00    +0.162 C 
ATOM     23  O   UNL     1      14.632   8.594  32.849  0.00  0.00    -0.292 OA
ATOM     24  C   UNL     1      15.759   6.637  33.603  0.00  0.00    +0.091 C 
ENDBRANCH  17  22
ENDBRANCH  14  16
ENDBRANCH  10  12
ENDBRANCH   9  10
ENDBRANCH   5   9
ENDBRANCH   4   7
ENDBRANCH   1   4
BRANCH   1  25
ATOM     25  C   UNL     1      19.947   4.491  24.241  0.00  0.00    +0.175 C 
BRANCH  25  26
ATOM     26  C   UNL     1      19.444   3.048  24.088  0.00  0.00    +0.176 C 
ATOM     27  O   UNL     1      18.572   2.999  22.925  0.00  0.00    -0.332 OA
ATOM     28  C   UNL     1      18.077   1.668  22.559  0.00  0.00    +0.277 C 
ATOM     29  C   UNL     1      17.377   1.000  23.767  0.00  0.00    +0.110 C 
ATOM     30  C   UNL     1      18.254   1.055  25.036  0.00  0.00    +0.143 C 
ATOM     31  C   UNL     1      18.715   2.485  25.322  0.00  0.00    +0.133 C 
BRANCH  31  32
ATOM     32  N   UNL     1      19.620   2.512  26.482  0.00  0.00    -0.308 N 
ATOM     33  H   UNL     1      20.542   2.115  26.370  0.00  0.00    +0.149 HD
ATOM     34  C   UNL     1      19.302   3.027  27.673  0.00  0.00    +0.210 C 
ATOM     35  C   UNL     1      17.880   3.601  27.819  0.00  0.00    +0.109 C 
ATOM     36  O   UNL     1      20.086   3.049  28.622  0.00  0.00    -0.276 OA
ENDBRANCH  31  32
BRANCH  28  37
ATOM     37  C   UNL     1      19.233   0.771  22.071  0.00  0.00    +0.414 C 
ATOM     38  O   UNL     1      19.185  -0.448  22.238  0.00  0.00    -0.240 OA
ATOM     39  O   UNL     1      20.213   1.264  21.512  0.00  0.00    -0.240 OA
ENDBRANCH  28  37
BRANCH  30  40
ATOM     40  O   UNL     1      17.513   0.567  26.155  0.00  0.00    -0.390 OA
ATOM     41  H   UNL     1      17.355   1.285  26.773  0.00  0.00    +0.210 HD
ENDBRANCH  30  40
BRANCH  28  42
ATOM     42  O   UNL     1      17.102   1.829  21.496  0.00  0.00    -0.343 OA
ATOM     43  C   UNL     1      16.549   3.163  21.369  0.00  0.00    +0.198 C 
ENDBRANCH  28  42
ENDBRANCH  25  26
BRANCH  25  44
ATOM     44  O   UNL     1      21.050   4.537  25.168  0.00  0.00    -0.387 OA
ATOM     45  H   UNL     1      21.204   5.445  25.437  0.00  0.00    +0.210 HD
ENDBRANCH  25  44
ENDBRANCH   1  25
TORSDOF 15
