REMARK VINA RESULT:    -5.475      5.463      7.831
REMARK INTER + INTRA:         -13.567
REMARK INTER:                 -10.881
REMARK INTRA:                  -2.687
REMARK UNBOUND:                -2.172
REMARK  Name = lig_assembled_54.pdb
REMARK  24 active torsions:
REMARK  status: ('A' for Active; 'I' for Inactive)
REMARK    1  A    between atoms: _2  and  _9
REMARK    2  A    between atoms: _4  and  _21
REMARK    3  A    between atoms: _5  and  _14
REMARK    4  A    between atoms: _6  and  _7
REMARK    5  A    between atoms: _6  and  _21
REMARK    6  A    between atoms: _9  and  _10
REMARK    7  A    between atoms: _10  and  _11
REMARK    8  A    between atoms: _11  and  _15
REMARK    9  A    between atoms: _11  and  _16
REMARK   10  A    between atoms: _12  and  _13
REMARK   11  A    between atoms: _12  and  _16
REMARK   12  A    between atoms: _14  and  _15
REMARK   13  A    between atoms: _17  and  _37
REMARK   14  A    between atoms: _19  and  _25
REMARK   15  A    between atoms: _20  and  _24
REMARK   16  A    between atoms: _24  and  _25
REMARK   17  A    between atoms: _27  and  _28
REMARK   18  A    between atoms: _29  and  _30
REMARK   19  A    between atoms: _31  and  _33
REMARK   20  A    between atoms: _33  and  _34
REMARK   21  A    between atoms: _33  and  _35
REMARK   22  A    between atoms: _35  and  _36
REMARK   23  A    between atoms: _35  and  _37
REMARK   24  A    between atoms: _38  and  _40
REMARK                            x       y       z     vdW  Elec       q    Type
REMARK                         _______ _______ _______ _____ _____    ______ ____
ROOT
ATOM      1  C   UNL     1      -1.358   3.299  31.652  0.00  0.00    +0.163 C 
ENDROOT
BRANCH   1   2
ATOM      2  O   UNL     1      -1.730   2.746  32.925  0.00  0.00    -0.388 OA
ATOM      3  H   UNL     1      -2.065   3.444  33.492  0.00  0.00    +0.210 HD
ENDBRANCH   1   2
BRANCH   1   4
ATOM      4  C   UNL     1      -1.296   4.835  31.717  0.00  0.00    +0.175 C 
BRANCH   4   5
ATOM      5  C   UNL     1      -2.694   5.470  31.729  0.00  0.00    +0.176 C 
ATOM      6  O   UNL     1      -3.241   5.322  33.068  0.00  0.00    -0.332 OA
ATOM      7  C   UNL     1      -4.537   5.966  33.299  0.00  0.00    +0.277 C 
ATOM      8  C   UNL     1      -5.574   5.485  32.255  0.00  0.00    +0.110 C 
ATOM      9  C   UNL     1      -5.026   5.594  30.816  0.00  0.00    +0.143 C 
ATOM     10  C   UNL     1      -3.673   4.892  30.690  0.00  0.00    +0.133 C 
BRANCH  10  11
ATOM     11  N   UNL     1      -3.121   5.077  29.339  0.00  0.00    -0.308 N 
ATOM     12  H   UNL     1      -2.810   6.002  29.079  0.00  0.00    +0.149 HD
ATOM     13  C   UNL     1      -3.004   4.101  28.434  0.00  0.00    +0.210 C 
ATOM     14  C   UNL     1      -3.511   2.708  28.851  0.00  0.00    +0.109 C 
ATOM     15  O   UNL     1      -2.524   4.282  27.314  0.00  0.00    -0.276 OA
ENDBRANCH  10  11
BRANCH   7  16
ATOM     16  C   UNL     1      -4.405   7.502  33.225  0.00  0.00    +0.414 C 
ATOM     17  O   UNL     1      -3.340   8.047  33.512  0.00  0.00    -0.240 OA
ATOM     18  O   UNL     1      -5.363   8.195  32.879  0.00  0.00    -0.240 OA
ENDBRANCH   7  16
BRANCH   9  19
ATOM     19  O   UNL     1      -5.950   5.002  29.903  0.00  0.00    -0.390 OA
ATOM     20  H   UNL     1      -6.320   5.682  29.335  0.00  0.00    +0.210 HD
ENDBRANCH   9  19
BRANCH   7  21
ATOM     21  O   UNL     1      -5.002   5.579  34.618  0.00  0.00    -0.343 OA
ATOM     22  C   UNL     1      -4.761   4.193  34.970  0.00  0.00    +0.198 C 
ENDBRANCH   7  21
ENDBRANCH   4   5
BRANCH   4  23
ATOM     23  O   UNL     1      -0.527   5.348  30.610  0.00  0.00    -0.387 OA
ATOM     24  H   UNL     1       0.292   5.727  30.938  0.00  0.00    +0.210 HD
ENDBRANCH   4  23
ENDBRANCH   1   4
BRANCH   1  25
ATOM     25  C   UNL     1      -0.000   2.752  31.222  0.00  0.00    +0.141 C 
BRANCH  25  28
ATOM     26  C   UNL     1       0.825   3.079  28.916  0.00  0.00    +0.401 C 
ATOM     27  O   UNL     1       1.595   3.992  29.221  0.00  0.00    -0.226 OA
ATOM     28  N   UNL     1       0.037   2.447  29.787  0.00  0.00    -0.279 N 
ATOM     29  H   UNL     1      -0.568   1.716  29.439  0.00  0.00    +0.152 HD
BRANCH  26  30
ATOM     30  O   UNL     1       0.752   2.658  27.551  0.00  0.00    -0.444 OA
BRANCH  30  31
ATOM     31  C   UNL     1       1.839   3.227  26.817  0.00  0.00    +0.292 C 
BRANCH  31  33
ATOM     32  N   UNL     1       0.378   4.950  25.803  0.00  0.00    -0.131 NA
ATOM     33  C   UNL     1       1.327   3.973  25.652  0.00  0.00    +0.120 A 
ATOM     34  C   UNL     1       1.666   3.877  24.320  0.00  0.00    +0.137 A 
ATOM     35  N   UNL     1       0.920   4.845  23.719  0.00  0.00    -0.251 N 
ATOM     36  N   UNL     1       0.142   5.484  24.612  0.00  0.00    -0.065 NA
BRANCH  35  37
ATOM     37  C   UNL     1       0.934   5.260  22.331  0.00  0.00    +0.150 C 
BRANCH  37  38
ATOM     38  C   UNL     1       1.955   4.478  21.519  0.00  0.00    +0.084 C 
BRANCH  38  39
ATOM     39  C   UNL     1       1.325   3.593  20.437  0.00  0.00    +0.252 C 
BRANCH  39  40
ATOM     40  O   UNL     1       1.570   2.214  20.723  0.00  0.00    -0.352 OA
BRANCH  40  41
ATOM     41  C   UNL     1       0.675   1.649  21.679  0.00  0.00    +0.159 C 
ATOM     42  C   UNL     1       1.136   0.244  22.010  0.00  0.00    +0.034 C 
ENDBRANCH  40  41
ENDBRANCH  39  40
BRANCH  39  43
ATOM     43  O   UNL     1       1.928   3.944  19.185  0.00  0.00    -0.352 OA
BRANCH  43  44
ATOM     44  C   UNL     1       1.950   2.853  18.263  0.00  0.00    +0.159 C 
ATOM     45  C   UNL     1       0.649   2.835  17.485  0.00  0.00    +0.034 C 
ENDBRANCH  43  44
ENDBRANCH  39  43
ENDBRANCH  38  39
ENDBRANCH  37  38
ENDBRANCH  35  37
ENDBRANCH  31  33
ENDBRANCH  30  31
ENDBRANCH  26  30
ENDBRANCH  25  28
ENDBRANCH   1  25
TORSDOF 20
