REMARK VINA RESULT:    -4.980     11.924     15.772
REMARK INTER + INTRA:         -13.670
REMARK INTER:                 -11.268
REMARK INTRA:                  -2.402
REMARK UNBOUND:                -4.177
REMARK  Name = lig_assembled_50.pdb
REMARK  20 active torsions:
REMARK  status: ('A' for Active; 'I' for Inactive)
REMARK    1  A    between atoms: _2  and  _9
REMARK    2  A    between atoms: _4  and  _17
REMARK    3  A    between atoms: _5  and  _10
REMARK    4  A    between atoms: _5  and  _11
REMARK    5  A    between atoms: _6  and  _7
REMARK    6  A    between atoms: _6  and  _17
REMARK    7  A    between atoms: _9  and  _10
REMARK    8  A    between atoms: _10  and  _12
REMARK    9  A    between atoms: _13  and  _33
REMARK   10  A    between atoms: _15  and  _21
REMARK   11  A    between atoms: _16  and  _20
REMARK   12  A    between atoms: _20  and  _21
REMARK   13  A    between atoms: _23  and  _24
REMARK   14  A    between atoms: _25  and  _26
REMARK   15  A    between atoms: _27  and  _29
REMARK   16  A    between atoms: _29  and  _30
REMARK   17  A    between atoms: _29  and  _31
REMARK   18  A    between atoms: _31  and  _32
REMARK   19  A    between atoms: _31  and  _33
REMARK   20  A    between atoms: _34  and  _36
REMARK                            x       y       z     vdW  Elec       q    Type
REMARK                         _______ _______ _______ _____ _____    ______ ____
ROOT
ATOM      1  C   UNL     1       8.602   2.708  35.814  0.00  0.00    +0.163 C 
ENDROOT
BRANCH   1   2
ATOM      2  O   UNL     1       8.791   3.445  37.034  0.00  0.00    -0.388 OA
ATOM      3  H   UNL     1       9.116   4.325  36.830  0.00  0.00    +0.210 HD
ENDBRANCH   1   2
BRANCH   1   4
ATOM      4  C   UNL     1       8.562   3.654  34.602  0.00  0.00    +0.175 C 
BRANCH   4   5
ATOM      5  C   UNL     1       7.425   4.682  34.708  0.00  0.00    +0.176 C 
ATOM      6  O   UNL     1       7.773   5.625  35.759  0.00  0.00    -0.332 OA
ATOM      7  C   UNL     1       6.847   6.748  35.933  0.00  0.00    +0.277 C 
ATOM      8  C   UNL     1       5.404   6.232  36.150  0.00  0.00    +0.110 C 
ATOM      9  C   UNL     1       5.000   5.201  35.074  0.00  0.00    +0.143 C 
ATOM     10  C   UNL     1       6.034   4.079  34.975  0.00  0.00    +0.133 C 
BRANCH  10  11
ATOM     11  N   UNL     1       5.684   3.150  33.888  0.00  0.00    -0.308 N 
ATOM     12  H   UNL     1       5.752   3.489  32.939  0.00  0.00    +0.149 HD
ATOM     13  C   UNL     1       5.281   1.890  34.075  0.00  0.00    +0.210 C 
ATOM     14  C   UNL     1       5.163   1.413  35.535  0.00  0.00    +0.109 C 
ATOM     15  O   UNL     1       5.009   1.131  33.145  0.00  0.00    -0.276 OA
ENDBRANCH  10  11
BRANCH   7  16
ATOM     16  C   UNL     1       6.882   7.682  34.705  0.00  0.00    +0.414 C 
ATOM     17  O   UNL     1       5.833   8.055  34.181  0.00  0.00    -0.240 OA
ATOM     18  O   UNL     1       7.957   8.060  34.239  0.00  0.00    -0.240 OA
ENDBRANCH   7  16
BRANCH   9  19
ATOM     19  O   UNL     1       3.727   4.641  35.398  0.00  0.00    -0.390 OA
ATOM     20  H   UNL     1       3.559   4.747  36.337  0.00  0.00    +0.210 HD
ENDBRANCH   9  19
BRANCH   7  21
ATOM     21  O   UNL     1       7.252   7.484  37.117  0.00  0.00    -0.343 OA
ATOM     22  C   UNL     1       8.543   7.108  37.659  0.00  0.00    +0.198 C 
ENDBRANCH   7  21
ENDBRANCH   4   5
BRANCH   4  23
ATOM     23  O   UNL     1       8.432   2.894  33.383  0.00  0.00    -0.387 OA
ATOM     24  H   UNL     1       8.512   3.482  32.629  0.00  0.00    +0.210 HD
ENDBRANCH   4  23
ENDBRANCH   1   4
BRANCH   1  25
ATOM     25  C   UNL     1       9.730   1.698  35.635  0.00  0.00    +0.141 C 
BRANCH  25  28
ATOM     26  C   UNL     1      11.865   2.940  35.573  0.00  0.00    +0.401 C 
ATOM     27  O   UNL     1      11.897   3.133  36.790  0.00  0.00    -0.226 OA
ATOM     28  N   UNL     1      10.887   2.285  34.947  0.00  0.00    -0.279 N 
ATOM     29  H   UNL     1      10.944   2.186  33.943  0.00  0.00    +0.152 HD
BRANCH  26  30
ATOM     30  O   UNL     1      12.929   3.445  34.761  0.00  0.00    -0.444 OA
BRANCH  30  31
ATOM     31  C   UNL     1      13.973   3.946  35.600  0.00  0.00    +0.292 C 
BRANCH  31  33
ATOM     32  N   UNL     1      14.954   5.156  33.672  0.00  0.00    -0.131 NA
ATOM     33  C   UNL     1      14.591   5.143  34.996  0.00  0.00    +0.120 A 
ATOM     34  C   UNL     1      14.891   6.368  35.556  0.00  0.00    +0.137 A 
ATOM     35  N   UNL     1      15.437   7.071  34.531  0.00  0.00    -0.249 N 
ATOM     36  N   UNL     1      15.459   6.348  33.395  0.00  0.00    -0.065 NA
BRANCH  35  37
ATOM     37  C   UNL     1      15.966   8.416  34.546  0.00  0.00    +0.178 C 
BRANCH  37  38
ATOM     38  C   UNL     1      15.782   9.174  33.226  0.00  0.00    +0.161 C 
BRANCH  38  39
ATOM     39  O   UNL     1      14.481   8.992  32.662  0.00  0.00    -0.388 OA
ATOM     40  H   UNL     1      14.206   8.063  32.806  0.00  0.00    +0.210 HD
ENDBRANCH  38  39
BRANCH  38  41
ATOM     41  C   UNL     1      16.096  10.673  33.331  0.00  0.00    +0.189 C 
BRANCH  41  42
ATOM     42  O   UNL     1      15.157  11.453  32.590  0.00  0.00    -0.392 OA
ATOM     43  H   UNL     1      14.259  11.161  32.835  0.00  0.00    +0.210 HD
ENDBRANCH  41  42
ENDBRANCH  38  41
ENDBRANCH  37  38
ENDBRANCH  35  37
ENDBRANCH  31  33
ENDBRANCH  30  31
ENDBRANCH  26  30
ENDBRANCH  25  28
ENDBRANCH   1  25
TORSDOF 18
