REMARK VINA RESULT:    -5.759     14.312     17.781
REMARK INTER + INTRA:         -12.158
REMARK INTER:                 -10.552
REMARK INTRA:                  -1.607
REMARK UNBOUND:                -2.191
REMARK  Name = lig_assembled_48.pdb
REMARK  16 active torsions:
REMARK  status: ('A' for Active; 'I' for Inactive)
REMARK    1  A    between atoms: _2  and  _9
REMARK    2  A    between atoms: _4  and  _18
REMARK    3  A    between atoms: _6  and  _7
REMARK    4  A    between atoms: _6  and  _18
REMARK    5  A    between atoms: _14  and  _34
REMARK    6  A    between atoms: _16  and  _22
REMARK    7  A    between atoms: _17  and  _21
REMARK    8  A    between atoms: _21  and  _22
REMARK    9  A    between atoms: _24  and  _25
REMARK   10  A    between atoms: _26  and  _27
REMARK   11  A    between atoms: _28  and  _30
REMARK   12  A    between atoms: _30  and  _31
REMARK   13  A    between atoms: _30  and  _32
REMARK   14  A    between atoms: _32  and  _33
REMARK   15  A    between atoms: _32  and  _34
REMARK   16  A    between atoms: _35  and  _37
REMARK                            x       y       z     vdW  Elec       q    Type
REMARK                         _______ _______ _______ _____ _____    ______ ____
ROOT
ATOM      1  C   UNL     1      18.716   6.141  24.428  0.00  0.00    +0.163 C 
ENDROOT
BRANCH   1   2
ATOM      2  O   UNL     1      18.425   6.694  23.134  0.00  0.00    -0.388 OA
ATOM      3  H   UNL     1      17.563   6.390  22.841  0.00  0.00    +0.210 HD
ENDBRANCH   1   2
BRANCH   1   4
ATOM      4  C   UNL     1      19.658   7.065  25.192  0.00  0.00    +0.141 C 
BRANCH   4   7
ATOM      5  C   UNL     1      19.626   6.606  27.619  0.00  0.00    +0.401 C 
ATOM      6  O   UNL     1      20.443   5.684  27.551  0.00  0.00    -0.226 OA
ATOM      7  N   UNL     1      19.198   7.302  26.565  0.00  0.00    -0.279 N 
ATOM      8  H   UNL     1      18.519   8.034  26.721  0.00  0.00    +0.152 HD
BRANCH   5   9
ATOM      9  O   UNL     1      19.089   6.965  28.895  0.00  0.00    -0.444 OA
BRANCH   9  10
ATOM     10  C   UNL     1      19.144   8.385  29.054  0.00  0.00    +0.292 C 
BRANCH  10  12
ATOM     11  N   UNL     1      17.879  10.088  30.322  0.00  0.00    -0.131 NA
ATOM     12  C   UNL     1      18.314   8.799  30.200  0.00  0.00    +0.120 A 
ATOM     13  C   UNL     1      17.831   8.059  31.257  0.00  0.00    +0.137 A 
ATOM     14  N   UNL     1      17.031   8.929  31.937  0.00  0.00    -0.248 N 
ATOM     15  N   UNL     1      17.126  10.168  31.408  0.00  0.00    -0.065 NA
BRANCH  14  16
ATOM     16  C   UNL     1      16.106   8.707  33.042  0.00  0.00    +0.109 C 
ATOM     17  C   UNL     1      16.725   7.775  34.102  0.00  0.00    +0.027 C 
ATOM     18  C   UNL     1      17.824   8.480  34.893  0.00  0.00    +0.002 C 
ATOM     19  C   UNL     1      17.275   9.710  35.607  0.00  0.00    +0.000 C 
ATOM     20  C   UNL     1      16.568  10.671  34.656  0.00  0.00    +0.002 C 
ATOM     21  C   UNL     1      15.564   9.977  33.728  0.00  0.00    +0.027 C 
ENDBRANCH  14  16
ENDBRANCH  10  12
ENDBRANCH   9  10
ENDBRANCH   5   9
ENDBRANCH   4   7
ENDBRANCH   1   4
BRANCH   1  22
ATOM     22  C   UNL     1      19.355   4.748  24.299  0.00  0.00    +0.175 C 
BRANCH  22  23
ATOM     23  C   UNL     1      18.594   3.685  25.105  0.00  0.00    +0.176 C 
ATOM     24  O   UNL     1      19.496   3.160  26.118  0.00  0.00    -0.332 OA
ATOM     25  C   UNL     1      18.906   2.202  27.057  0.00  0.00    +0.277 C 
ATOM     26  C   UNL     1      18.241   1.032  26.291  0.00  0.00    +0.110 C 
ATOM     27  C   UNL     1      17.296   1.541  25.182  0.00  0.00    +0.143 C 
ATOM     28  C   UNL     1      18.012   2.533  24.265  0.00  0.00    +0.133 C 
BRANCH  28  29
ATOM     29  N   UNL     1      17.078   3.077  23.266  0.00  0.00    -0.308 N 
ATOM     30  H   UNL     1      16.363   3.715  23.586  0.00  0.00    +0.149 HD
ATOM     31  C   UNL     1      17.114   2.782  21.963  0.00  0.00    +0.210 C 
ATOM     32  C   UNL     1      18.198   1.786  21.511  0.00  0.00    +0.109 C 
ATOM     33  O   UNL     1      16.328   3.264  21.147  0.00  0.00    -0.276 OA
ENDBRANCH  28  29
BRANCH  25  34
ATOM     34  C   UNL     1      17.858   2.892  27.955  0.00  0.00    +0.414 C 
ATOM     35  O   UNL     1      16.676   2.931  27.612  0.00  0.00    -0.240 OA
ATOM     36  O   UNL     1      18.193   3.409  29.022  0.00  0.00    -0.240 OA
ENDBRANCH  25  34
BRANCH  27  37
ATOM     37  O   UNL     1      16.825   0.438  24.407  0.00  0.00    -0.390 OA
ATOM     38  H   UNL     1      16.999   0.602  23.477  0.00  0.00    +0.210 HD
ENDBRANCH  27  37
BRANCH  25  39
ATOM     39  O   UNL     1      19.973   1.663  27.879  0.00  0.00    -0.343 OA
ATOM     40  C   UNL     1      21.294   2.186  27.586  0.00  0.00    +0.198 C 
ENDBRANCH  25  39
ENDBRANCH  22  23
BRANCH  22  41
ATOM     41  O   UNL     1      20.734   4.794  24.716  0.00  0.00    -0.387 OA
ATOM     42  H   UNL     1      21.184   5.508  24.259  0.00  0.00    +0.210 HD
ENDBRANCH  22  41
ENDBRANCH   1  22
TORSDOF 14
