REMARK VINA RESULT:    -5.543      7.079      9.184
REMARK INTER + INTRA:         -12.167
REMARK INTER:                  -9.290
REMARK INTRA:                  -2.877
REMARK UNBOUND:                -2.248
REMARK  Name = lig_assembled_61.pdb
REMARK  17 active torsions:
REMARK  status: ('A' for Active; 'I' for Inactive)
REMARK    1  A    between atoms: _2  and  _9
REMARK    2  A    between atoms: _4  and  _17
REMARK    3  A    between atoms: _6  and  _7
REMARK    4  A    between atoms: _6  and  _17
REMARK    5  A    between atoms: _9  and  _10
REMARK    6  A    between atoms: _13  and  _33
REMARK    7  A    between atoms: _15  and  _21
REMARK    8  A    between atoms: _16  and  _20
REMARK    9  A    between atoms: _20  and  _21
REMARK   10  A    between atoms: _23  and  _24
REMARK   11  A    between atoms: _25  and  _26
REMARK   12  A    between atoms: _27  and  _29
REMARK   13  A    between atoms: _29  and  _30
REMARK   14  A    between atoms: _29  and  _31
REMARK   15  A    between atoms: _31  and  _32
REMARK   16  A    between atoms: _31  and  _33
REMARK   17  A    between atoms: _34  and  _36
REMARK                            x       y       z     vdW  Elec       q    Type
REMARK                         _______ _______ _______ _____ _____    ______ ____
ROOT
ATOM      1  C   UNL     1       3.244   5.538  36.603  0.00  0.00    +0.163 C 
ENDROOT
BRANCH   1   2
ATOM      2  O   UNL     1       2.081   6.310  36.945  0.00  0.00    -0.388 OA
ATOM      3  H   UNL     1       2.223   7.228  36.702  0.00  0.00    +0.210 HD
ENDBRANCH   1   2
BRANCH   1   4
ATOM      4  C   UNL     1       2.848   4.088  36.339  0.00  0.00    +0.141 C 
BRANCH   4   7
ATOM      5  C   UNL     1       2.930   3.402  33.967  0.00  0.00    +0.401 C 
ATOM      6  O   UNL     1       1.754   3.701  33.743  0.00  0.00    -0.226 OA
ATOM      7  N   UNL     1       3.521   3.545  35.153  0.00  0.00    -0.279 N 
ATOM      8  H   UNL     1       4.488   3.263  35.241  0.00  0.00    +0.152 HD
BRANCH   5   9
ATOM      9  O   UNL     1       3.724   2.866  32.906  0.00  0.00    -0.444 OA
BRANCH   9  10
ATOM     10  C   UNL     1       3.894   1.459  33.101  0.00  0.00    +0.292 C 
BRANCH  10  12
ATOM     11  N   UNL     1       6.148   1.141  32.131  0.00  0.00    -0.131 NA
ATOM     12  C   UNL     1       5.325   1.125  33.226  0.00  0.00    +0.120 A 
ATOM     13  C   UNL     1       6.058   0.769  34.337  0.00  0.00    +0.137 A 
ATOM     14  N   UNL     1       7.305   0.525  33.842  0.00  0.00    -0.247 N 
ATOM     15  N   UNL     1       7.366   0.790  32.523  0.00  0.00    -0.065 NA
BRANCH  14  16
ATOM     16  C   UNL     1       8.486   0.079  34.558  0.00  0.00    +0.180 C 
BRANCH  16  17
ATOM     17  C   UNL     1       9.152   1.208  35.294  0.00  0.00    -0.019 A 
ATOM     18  C   UNL     1      10.122   2.096  34.717  0.00  0.00    +0.013 A 
ATOM     19  C   UNL     1      10.605   3.019  35.620  0.00  0.00    +0.045 A 
ATOM     20  S   UNL     1       9.893   2.840  37.161  0.00  0.00    -0.105 S 
ATOM     21  C   UNL     1       8.947   1.520  36.629  0.00  0.00    +0.050 A 
ENDBRANCH  16  17
ENDBRANCH  14  16
ENDBRANCH  10  12
ENDBRANCH   9  10
ENDBRANCH   5   9
ENDBRANCH   4   7
ENDBRANCH   1   4
BRANCH   1  22
ATOM     22  C   UNL     1       4.289   5.588  37.731  0.00  0.00    +0.175 C 
BRANCH  22  23
ATOM     23  C   UNL     1       5.579   6.296  37.293  0.00  0.00    +0.176 C 
ATOM     24  O   UNL     1       6.156   5.534  36.196  0.00  0.00    -0.332 OA
ATOM     25  C   UNL     1       7.346   6.121  35.574  0.00  0.00    +0.277 C 
ATOM     26  C   UNL     1       8.431   6.405  36.642  0.00  0.00    +0.110 C 
ATOM     27  C   UNL     1       7.857   7.186  37.843  0.00  0.00    +0.143 C 
ATOM     28  C   UNL     1       6.620   6.488  38.411  0.00  0.00    +0.133 C 
BRANCH  28  29
ATOM     29  N   UNL     1       6.032   7.286  39.498  0.00  0.00    -0.308 N 
ATOM     30  H   UNL     1       5.667   8.200  39.268  0.00  0.00    +0.149 HD
ATOM     31  C   UNL     1       5.949   6.882  40.768  0.00  0.00    +0.210 C 
ATOM     32  C   UNL     1       6.539   5.496  41.091  0.00  0.00    +0.109 C 
ATOM     33  O   UNL     1       5.438   7.566  41.656  0.00  0.00    -0.276 OA
ENDBRANCH  28  29
BRANCH  25  34
ATOM     34  C   UNL     1       6.990   7.431  34.840  0.00  0.00    +0.414 C 
ATOM     35  O   UNL     1       5.842   7.627  34.443  0.00  0.00    -0.240 OA
ATOM     36  O   UNL     1       7.850   8.291  34.646  0.00  0.00    -0.240 OA
ENDBRANCH  25  34
BRANCH  25  37
ATOM     37  O   UNL     1       7.878   5.160  34.627  0.00  0.00    -0.343 OA
ATOM     38  C   UNL     1       6.883   4.343  33.959  0.00  0.00    +0.198 C 
ENDBRANCH  25  37
BRANCH  27  39
ATOM     39  O   UNL     1       8.848   7.293  38.866  0.00  0.00    -0.390 OA
ATOM     40  H   UNL     1       9.138   8.206  38.937  0.00  0.00    +0.210 HD
ENDBRANCH  27  39
ENDBRANCH  22  23
BRANCH  22  41
ATOM     41  O   UNL     1       4.586   4.255  38.193  0.00  0.00    -0.387 OA
ATOM     42  H   UNL     1       3.857   3.670  37.973  0.00  0.00    +0.210 HD
ENDBRANCH  22  41
ENDBRANCH   1  22
TORSDOF 15
