REMARK VINA RESULT:    -6.839     12.503     15.084
REMARK INTER + INTRA:         -14.775
REMARK INTER:                 -12.174
REMARK INTRA:                  -2.601
REMARK UNBOUND:                -2.138
REMARK  Name = lig_assembled_92.pdb
REMARK  18 active torsions:
REMARK  status: ('A' for Active; 'I' for Inactive)
REMARK    1  A    between atoms: _2  and  _11
REMARK    2  A    between atoms: _3  and  _46
REMARK    3  A    between atoms: _6  and  _25
REMARK    4  A    between atoms: _8  and  _9
REMARK    5  A    between atoms: _8  and  _25
REMARK    6  A    between atoms: _14  and  _46
REMARK    7  A    between atoms: _21  and  _41
REMARK    8  A    between atoms: _23  and  _29
REMARK    9  A    between atoms: _24  and  _28
REMARK   10  A    between atoms: _28  and  _29
REMARK   11  A    between atoms: _31  and  _32
REMARK   12  A    between atoms: _33  and  _34
REMARK   13  A    between atoms: _35  and  _37
REMARK   14  A    between atoms: _37  and  _38
REMARK   15  A    between atoms: _37  and  _39
REMARK   16  A    between atoms: _39  and  _40
REMARK   17  A    between atoms: _39  and  _41
REMARK   18  A    between atoms: _42  and  _44
REMARK                            x       y       z     vdW  Elec       q    Type
REMARK                         _______ _______ _______ _____ _____    ______ ____
ROOT
ATOM      1  C   UNL     1       7.790   0.224  33.440  0.00  0.00    +0.401 C 
ATOM      2  O   UNL     1       8.472   0.682  32.521  0.00  0.00    -0.226 OA
ATOM      3  N   UNL     1       8.113   0.323  34.730  0.00  0.00    -0.279 N 
ATOM      4  H   UNL     1       7.483  -0.076  35.412  0.00  0.00    +0.152 HD
ENDROOT
BRANCH   3   5
ATOM      5  C   UNL     1       9.333   0.980  35.216  0.00  0.00    +0.141 C 
BRANCH   5   6
ATOM      6  C   UNL     1       9.156   2.491  35.335  0.00  0.00    +0.163 C 
BRANCH   6   7
ATOM      7  O   UNL     1       9.369   3.113  34.058  0.00  0.00    -0.388 OA
ATOM      8  H   UNL     1      10.235   3.528  34.044  0.00  0.00    +0.210 HD
ENDBRANCH   6   7
BRANCH   6   9
ATOM      9  C   UNL     1       7.748   2.802  35.871  0.00  0.00    +0.175 C 
BRANCH   9  10
ATOM     10  C   UNL     1       7.402   4.294  35.752  0.00  0.00    +0.176 C 
ATOM     11  O   UNL     1       7.120   4.796  37.088  0.00  0.00    -0.332 OA
ATOM     12  C   UNL     1       6.871   6.237  37.184  0.00  0.00    +0.277 C 
ATOM     13  C   UNL     1       5.735   6.655  36.218  0.00  0.00    +0.110 C 
ATOM     14  C   UNL     1       5.974   6.117  34.792  0.00  0.00    +0.143 C 
ATOM     15  C   UNL     1       6.226   4.609  34.809  0.00  0.00    +0.133 C 
BRANCH  15  16
ATOM     16  N   UNL     1       6.538   4.124  33.455  0.00  0.00    -0.308 N 
ATOM     17  H   UNL     1       7.332   4.529  32.980  0.00  0.00    +0.149 HD
ATOM     18  C   UNL     1       5.841   3.182  32.814  0.00  0.00    +0.210 C 
ATOM     19  C   UNL     1       4.621   2.602  33.555  0.00  0.00    +0.109 C 
ATOM     20  O   UNL     1       6.134   2.784  31.686  0.00  0.00    -0.276 OA
ENDBRANCH  15  16
BRANCH  12  21
ATOM     21  C   UNL     1       8.148   7.037  36.855  0.00  0.00    +0.414 C 
ATOM     22  O   UNL     1       8.067   8.193  36.442  0.00  0.00    -0.240 OA
ATOM     23  O   UNL     1       9.260   6.526  37.001  0.00  0.00    -0.240 OA
ENDBRANCH  12  21
BRANCH  14  24
ATOM     24  O   UNL     1       4.836   6.395  33.975  0.00  0.00    -0.390 OA
ATOM     25  H   UNL     1       4.084   6.606  34.534  0.00  0.00    +0.210 HD
ENDBRANCH  14  24
BRANCH  12  26
ATOM     26  O   UNL     1       6.448   6.529  38.541  0.00  0.00    -0.343 OA
ATOM     27  C   UNL     1       7.004   5.657  39.557  0.00  0.00    +0.198 C 
ENDBRANCH  12  26
ENDBRANCH   9  10
BRANCH   9  28
ATOM     28  O   UNL     1       7.632   2.373  37.242  0.00  0.00    -0.387 OA
ATOM     29  H   UNL     1       6.726   2.110  37.420  0.00  0.00    +0.210 HD
ENDBRANCH   9  28
ENDBRANCH   6   9
ENDBRANCH   5   6
ENDBRANCH   3   5
BRANCH   1  30
ATOM     30  O   UNL     1       6.570  -0.455  33.128  0.00  0.00    -0.444 OA
BRANCH  30  31
ATOM     31  C   UNL     1       6.868  -1.726  32.544  0.00  0.00    +0.292 C 
BRANCH  31  33
ATOM     32  N   UNL     1       7.458  -2.195  30.183  0.00  0.00    -0.131 NA
ATOM     33  C   UNL     1       6.571  -1.710  31.099  0.00  0.00    +0.121 A 
ATOM     34  C   UNL     1       5.449  -1.261  30.443  0.00  0.00    +0.143 A 
ATOM     35  N   UNL     1       5.686  -1.521  29.113  0.00  0.00    -0.220 N 
ATOM     36  N   UNL     1       6.916  -2.071  28.977  0.00  0.00    -0.060 NA
BRANCH  35  37
ATOM     37  C   UNL     1       4.821  -1.313  28.009  0.00  0.00    +0.067 A 
ATOM     38  C   UNL     1       5.235  -1.651  26.710  0.00  0.00    +0.030 A 
ATOM     39  C   UNL     1       4.405  -1.391  25.620  0.00  0.00    +0.031 A 
ATOM     40  C   UNL     1       3.155  -0.803  25.823  0.00  0.00    +0.109 A 
ATOM     41  C   UNL     1       2.725  -0.470  27.110  0.00  0.00    +0.031 A 
ATOM     42  C   UNL     1       3.556  -0.735  28.205  0.00  0.00    +0.030 A 
BRANCH  40  43
ATOM     43  S   UNL     1       2.195  -0.349  24.403  0.00  0.00    +0.074 S 
ATOM     44  O   UNL     1       2.278  -1.440  23.452  0.00  0.00    -0.150 OA
ATOM     45  O   UNL     1       0.907   0.126  24.850  0.00  0.00    -0.150 OA
BRANCH  43  46
ATOM     46  N   UNL     1       3.088   0.905  23.709  0.00  0.00    -0.194 N 
ATOM     47  H   UNL     1       3.279   0.621  22.752  0.00  0.00    +0.176 HD
ATOM     48  C   UNL     1       2.425   2.146  23.806  0.00  0.00    +0.177 A 
ATOM     49  S   UNL     1       1.502   2.802  22.525  0.00  0.00    -0.059 S 
ATOM     50  C   UNL     1       1.261   4.222  23.458  0.00  0.00    +0.068 A 
ATOM     51  C   UNL     1       1.965   4.121  24.640  0.00  0.00    +0.120 A 
ATOM     52  N   UNL     1       2.606   2.914  24.851  0.00  0.00    -0.232 NA
ENDBRANCH  43  46
ENDBRANCH  40  43
ENDBRANCH  35  37
ENDBRANCH  31  33
ENDBRANCH  30  31
ENDBRANCH   1  30
TORSDOF 16
