REMARK VINA RESULT:    -7.060      3.975      6.683
REMARK INTER + INTRA:         -14.212
REMARK INTER:                 -11.444
REMARK INTRA:                  -2.768
REMARK UNBOUND:                -1.992
REMARK  Name = lig_assembled_25.pdb
REMARK  16 active torsions:
REMARK  status: ('A' for Active; 'I' for Inactive)
REMARK    1  A    between atoms: _2  and  _9
REMARK    2  A    between atoms: _4  and  _25
REMARK    3  A    between atoms: _6  and  _7
REMARK    4  A    between atoms: _6  and  _25
REMARK    5  A    between atoms: _21  and  _41
REMARK    6  A    between atoms: _23  and  _29
REMARK    7  A    between atoms: _24  and  _28
REMARK    8  A    between atoms: _28  and  _29
REMARK    9  A    between atoms: _31  and  _32
REMARK   10  A    between atoms: _33  and  _34
REMARK   11  A    between atoms: _35  and  _37
REMARK   12  A    between atoms: _37  and  _38
REMARK   13  A    between atoms: _37  and  _39
REMARK   14  A    between atoms: _39  and  _40
REMARK   15  A    between atoms: _39  and  _41
REMARK   16  A    between atoms: _42  and  _44
REMARK                            x       y       z     vdW  Elec       q    Type
REMARK                         _______ _______ _______ _____ _____    ______ ____
ROOT
ATOM      1  C   UNL     1       5.268   2.197  33.706  0.00  0.00    +0.141 C 
ENDROOT
BRANCH   1   4
ATOM      2  C   UNL     1       6.460   0.052  33.993  0.00  0.00    +0.401 C 
ATOM      3  O   UNL     1       6.418   0.085  35.225  0.00  0.00    -0.226 OA
ATOM      4  N   UNL     1       5.953   1.000  33.204  0.00  0.00    -0.279 N 
ATOM      5  H   UNL     1       6.046   0.888  32.204  0.00  0.00    +0.152 HD
BRANCH   2   6
ATOM      6  O   UNL     1       7.090  -1.059  33.349  0.00  0.00    -0.444 OA
BRANCH   6   7
ATOM      7  C   UNL     1       6.095  -1.999  32.937  0.00  0.00    +0.292 C 
BRANCH   7   9
ATOM      8  N   UNL     1       6.502  -0.986  30.721  0.00  0.00    -0.131 NA
ATOM      9  C   UNL     1       5.963  -1.999  31.467  0.00  0.00    +0.120 A 
ATOM     10  C   UNL     1       5.330  -2.889  30.628  0.00  0.00    +0.138 A 
ATOM     11  N   UNL     1       5.502  -2.355  29.382  0.00  0.00    -0.240 N 
ATOM     12  N   UNL     1       6.220  -1.213  29.447  0.00  0.00    -0.064 NA
BRANCH  11  13
ATOM     13  C   UNL     1       4.970  -2.787  28.100  0.00  0.00    +0.170 C 
ATOM     14  C   UNL     1       6.033  -2.812  27.009  0.00  0.00    -0.011 A 
ATOM     15  C   UNL     1       5.622  -2.015  25.917  0.00  0.00    -0.012 A 
ATOM     16  C   UNL     1       4.333  -1.428  26.222  0.00  0.00    -0.012 A 
ATOM     17  C   UNL     1       3.517  -0.611  25.457  0.00  0.00    +0.009 A 
ATOM     18  C   UNL     1       2.290  -0.209  25.991  0.00  0.00    +0.001 A 
ATOM     19  C   UNL     1       1.894  -0.619  27.276  0.00  0.00    +0.000 A 
ATOM     20  C   UNL     1       2.715  -1.443  28.050  0.00  0.00    +0.006 A 
ATOM     21  C   UNL     1       6.420  -1.904  24.791  0.00  0.00    +0.009 A 
ATOM     22  C   UNL     1       7.634  -2.598  24.763  0.00  0.00    +0.001 A 
ATOM     23  C   UNL     1       8.035  -3.393  25.850  0.00  0.00    +0.000 A 
ATOM     24  C   UNL     1       7.233  -3.509  26.985  0.00  0.00    +0.006 A 
ATOM     25  C   UNL     1       3.932  -1.839  27.514  0.00  0.00    -0.011 A 
ENDBRANCH  11  13
ENDBRANCH   7   9
ENDBRANCH   6   7
ENDBRANCH   2   6
ENDBRANCH   1   4
BRANCH   1  26
ATOM     26  C   UNL     1       5.811   3.472  33.070  0.00  0.00    +0.163 C 
BRANCH  26  27
ATOM     27  O   UNL     1       5.009   4.598  33.464  0.00  0.00    -0.388 OA
ATOM     28  H   UNL     1       5.119   5.308  32.827  0.00  0.00    +0.210 HD
ENDBRANCH  26  27
BRANCH  26  29
ATOM     29  C   UNL     1       7.279   3.670  33.487  0.00  0.00    +0.175 C 
BRANCH  29  30
ATOM     30  C   UNL     1       7.405   4.234  34.910  0.00  0.00    +0.176 C 
ATOM     31  O   UNL     1       7.377   5.685  34.820  0.00  0.00    -0.332 OA
ATOM     32  C   UNL     1       7.380   6.400  36.100  0.00  0.00    +0.277 C 
ATOM     33  C   UNL     1       8.583   5.952  36.967  0.00  0.00    +0.110 C 
ATOM     34  C   UNL     1       8.672   4.415  37.066  0.00  0.00    +0.143 C 
ATOM     35  C   UNL     1       8.658   3.774  35.677  0.00  0.00    +0.133 C 
BRANCH  35  36
ATOM     36  N   UNL     1       8.656   2.307  35.787  0.00  0.00    -0.308 N 
ATOM     37  H   UNL     1       7.819   1.861  36.136  0.00  0.00    +0.149 HD
ATOM     38  C   UNL     1       9.688   1.526  35.458  0.00  0.00    +0.210 C 
ATOM     39  C   UNL     1      10.959   2.237  34.955  0.00  0.00    +0.109 C 
ATOM     40  O   UNL     1       9.653   0.298  35.546  0.00  0.00    -0.276 OA
ENDBRANCH  35  36
BRANCH  32  41
ATOM     41  C   UNL     1       6.067   6.149  36.870  0.00  0.00    +0.414 C 
ATOM     42  O   UNL     1       6.060   6.148  38.100  0.00  0.00    -0.240 OA
ATOM     43  O   UNL     1       5.016   5.946  36.262  0.00  0.00    -0.240 OA
ENDBRANCH  32  41
BRANCH  34  44
ATOM     44  O   UNL     1       9.874   4.045  37.743  0.00  0.00    -0.390 OA
ATOM     45  H   UNL     1       9.663   3.462  38.475  0.00  0.00    +0.210 HD
ENDBRANCH  34  44
BRANCH  32  46
ATOM     46  O   UNL     1       7.519   7.817  35.822  0.00  0.00    -0.343 OA
ATOM     47  C   UNL     1       7.511   8.169  34.415  0.00  0.00    +0.198 C 
ENDBRANCH  32  46
ENDBRANCH  29  30
BRANCH  29  48
ATOM     48  O   UNL     1       7.950   4.534  32.549  0.00  0.00    -0.387 OA
ATOM     49  H   UNL     1       8.188   4.034  31.765  0.00  0.00    +0.210 HD
ENDBRANCH  29  48
ENDBRANCH  26  29
ENDBRANCH   1  26
TORSDOF 14
