REMARK VINA RESULT:    -5.611     14.167     17.600
REMARK INTER + INTRA:         -13.174
REMARK INTER:                 -10.977
REMARK INTRA:                  -2.197
REMARK UNBOUND:                -2.970
REMARK  Name = lig_assembled_22.pdb
REMARK  20 active torsions:
REMARK  status: ('A' for Active; 'I' for Inactive)
REMARK    1  A    between atoms: _2  and  _9
REMARK    2  A    between atoms: _4  and  _18
REMARK    3  A    between atoms: _5  and  _9
REMARK    4  A    between atoms: _5  and  _12
REMARK    5  A    between atoms: _6  and  _7
REMARK    6  A    between atoms: _6  and  _18
REMARK    7  A    between atoms: _9  and  _10
REMARK    8  A    between atoms: _9  and  _11
REMARK    9  A    between atoms: _14  and  _34
REMARK   10  A    between atoms: _16  and  _22
REMARK   11  A    between atoms: _17  and  _21
REMARK   12  A    between atoms: _21  and  _22
REMARK   13  A    between atoms: _24  and  _25
REMARK   14  A    between atoms: _26  and  _27
REMARK   15  A    between atoms: _28  and  _30
REMARK   16  A    between atoms: _30  and  _31
REMARK   17  A    between atoms: _30  and  _32
REMARK   18  A    between atoms: _32  and  _33
REMARK   19  A    between atoms: _32  and  _34
REMARK   20  A    between atoms: _35  and  _37
REMARK                            x       y       z     vdW  Elec       q    Type
REMARK                         _______ _______ _______ _____ _____    ______ ____
ROOT
ATOM      1  C   UNL     1       4.050   3.592  32.398  0.00  0.00    +0.163 C 
ENDROOT
BRANCH   1   2
ATOM      2  O   UNL     1       3.497   4.392  33.456  0.00  0.00    -0.388 OA
ATOM      3  H   UNL     1       3.222   3.822  34.179  0.00  0.00    +0.210 HD
ENDBRANCH   1   2
BRANCH   1   4
ATOM      4  C   UNL     1       3.086   2.467  32.037  0.00  0.00    +0.141 C 
BRANCH   4   7
ATOM      5  C   UNL     1       1.185   3.709  31.063  0.00  0.00    +0.401 C 
ATOM      6  O   UNL     1       0.891   4.274  32.119  0.00  0.00    -0.226 OA
ATOM      7  N   UNL     1       2.192   2.844  30.935  0.00  0.00    -0.279 N 
ATOM      8  H   UNL     1       2.348   2.425  30.030  0.00  0.00    +0.152 HD
BRANCH   5   9
ATOM      9  O   UNL     1       0.410   3.980  29.892  0.00  0.00    -0.444 OA
BRANCH   9  10
ATOM     10  C   UNL     1       0.373   2.814  29.064  0.00  0.00    +0.292 C 
BRANCH  10  12
ATOM     11  N   UNL     1       2.065   3.729  27.516  0.00  0.00    -0.131 NA
ATOM     12  C   UNL     1       0.848   3.138  27.706  0.00  0.00    +0.120 A 
ATOM     13  C   UNL     1       0.247   2.942  26.481  0.00  0.00    +0.138 A 
ATOM     14  N   UNL     1       1.151   3.436  25.581  0.00  0.00    -0.235 N 
ATOM     15  N   UNL     1       2.239   3.911  26.217  0.00  0.00    -0.064 NA
BRANCH  14  16
ATOM     16  C   UNL     1       1.058   3.520  24.123  0.00  0.00    +0.155 C 
ATOM     17  C   UNL     1      -0.313   3.041  23.597  0.00  0.00    +0.048 C 
ATOM     18  C   UNL     1       2.153   2.629  23.507  0.00  0.00    +0.048 C 
BRANCH  16  19
ATOM     19  C   UNL     1       1.250   4.966  23.659  0.00  0.00    +0.332 C 
ATOM     20  O   UNL     1       1.938   5.296  22.699  0.00  0.00    -0.248 OA
BRANCH  19  21
ATOM     21  O   UNL     1       0.597   5.901  24.390  0.00  0.00    -0.479 OA
ATOM     22  H   UNL     1       1.101   6.315  25.117  0.00  0.00    +0.295 HD
ENDBRANCH  19  21
ENDBRANCH  16  19
ENDBRANCH  14  16
ENDBRANCH  10  12
ENDBRANCH   9  10
ENDBRANCH   5   9
ENDBRANCH   4   7
ENDBRANCH   1   4
BRANCH   1  23
ATOM     23  C   UNL     1       5.406   2.995  32.810  0.00  0.00    +0.175 C 
BRANCH  23  24
ATOM     24  C   UNL     1       5.893   3.544  34.159  0.00  0.00    +0.176 C 
ATOM     25  O   UNL     1       6.184   4.959  33.987  0.00  0.00    -0.332 OA
ATOM     26  C   UNL     1       6.564   5.680  35.205  0.00  0.00    +0.277 C 
ATOM     27  C   UNL     1       7.760   4.981  35.897  0.00  0.00    +0.110 C 
ATOM     28  C   UNL     1       7.511   3.468  36.073  0.00  0.00    +0.143 C 
ATOM     29  C   UNL     1       7.119   2.818  34.746  0.00  0.00    +0.133 C 
BRANCH  29  30
ATOM     30  N   UNL     1       6.799   1.396  34.943  0.00  0.00    -0.308 N 
ATOM     31  H   UNL     1       6.100   1.160  35.632  0.00  0.00    +0.149 HD
ATOM     32  C   UNL     1       7.374   0.395  34.269  0.00  0.00    +0.210 C 
ATOM     33  C   UNL     1       8.455   0.785  33.244  0.00  0.00    +0.109 C 
ATOM     34  O   UNL     1       7.076  -0.787  34.445  0.00  0.00    -0.276 OA
ENDBRANCH  29  30
BRANCH  26  35
ATOM     35  C   UNL     1       5.376   5.762  36.187  0.00  0.00    +0.414 C 
ATOM     36  O   UNL     1       4.222   5.799  35.761  0.00  0.00    -0.240 OA
ATOM     37  O   UNL     1       5.572   5.790  37.402  0.00  0.00    -0.240 OA
ENDBRANCH  26  35
BRANCH  26  38
ATOM     38  O   UNL     1       6.975   7.018  34.824  0.00  0.00    -0.343 OA
ATOM     39  C   UNL     1       7.953   7.632  35.702  0.00  0.00    +0.198 C 
ENDBRANCH  26  38
BRANCH  28  40
ATOM     40  O   UNL     1       8.692   2.840  36.574  0.00  0.00    -0.390 OA
ATOM     41  H   UNL     1       8.650   1.896  36.402  0.00  0.00    +0.210 HD
ENDBRANCH  28  40
ENDBRANCH  23  24
BRANCH  23  42
ATOM     42  O   UNL     1       6.390   3.245  31.787  0.00  0.00    -0.387 OA
ATOM     43  H   UNL     1       5.992   3.753  31.077  0.00  0.00    +0.210 HD
ENDBRANCH  23  42
ENDBRANCH   1  23
TORSDOF 16
