REMARK VINA RESULT:    -6.496     19.860     24.886
REMARK INTER + INTRA:         -13.360
REMARK INTER:                 -11.543
REMARK INTRA:                  -1.817
REMARK UNBOUND:                -2.118
REMARK  Name = lig_assembled_7.pdb
REMARK  19 active torsions:
REMARK  status: ('A' for Active; 'I' for Inactive)
REMARK    1  A    between atoms: _2  and  _9
REMARK    2  A    between atoms: _4  and  _21
REMARK    3  A    between atoms: _5  and  _16
REMARK    4  A    between atoms: _6  and  _7
REMARK    5  A    between atoms: _6  and  _21
REMARK    6  A    between atoms: _10  and  _11
REMARK    7  A    between atoms: _13  and  _14
REMARK    8  A    between atoms: _17  and  _37
REMARK    9  A    between atoms: _19  and  _25
REMARK   10  A    between atoms: _20  and  _24
REMARK   11  A    between atoms: _24  and  _25
REMARK   12  A    between atoms: _27  and  _28
REMARK   13  A    between atoms: _29  and  _30
REMARK   14  A    between atoms: _31  and  _33
REMARK   15  A    between atoms: _33  and  _34
REMARK   16  A    between atoms: _33  and  _35
REMARK   17  A    between atoms: _35  and  _36
REMARK   18  A    between atoms: _35  and  _37
REMARK   19  A    between atoms: _38  and  _40
REMARK                            x       y       z     vdW  Elec       q    Type
REMARK                         _______ _______ _______ _____ _____    ______ ____
ROOT
ATOM      1  C   UNL     1       5.253  22.417  15.370  0.00  0.00    +0.163 C 
ENDROOT
BRANCH   1   2
ATOM      2  O   UNL     1       5.817  21.416  16.234  0.00  0.00    -0.388 OA
ATOM      3  H   UNL     1       5.592  20.544  15.903  0.00  0.00    +0.210 HD
ENDBRANCH   1   2
BRANCH   1   4
ATOM      4  C   UNL     1       4.502  23.456  16.196  0.00  0.00    +0.141 C 
BRANCH   4   7
ATOM      5  C   UNL     1       2.928  23.395  18.100  0.00  0.00    +0.401 C 
ATOM      6  O   UNL     1       2.313  24.404  17.745  0.00  0.00    -0.226 OA
ATOM      7  N   UNL     1       3.968  22.885  17.439  0.00  0.00    -0.279 N 
ATOM      8  H   UNL     1       4.413  22.060  17.814  0.00  0.00    +0.152 HD
BRANCH   5   9
ATOM      9  O   UNL     1       2.521  22.717  19.291  0.00  0.00    -0.444 OA
BRANCH   9  10
ATOM     10  C   UNL     1       1.206  23.143  19.658  0.00  0.00    +0.292 C 
BRANCH  10  12
ATOM     11  N   UNL     1      -0.258  21.589  18.427  0.00  0.00    -0.131 NA
ATOM     12  C   UNL     1       0.269  22.006  19.609  0.00  0.00    +0.121 A 
ATOM     13  C   UNL     1      -0.219  21.203  20.622  0.00  0.00    +0.143 A 
ATOM     14  N   UNL     1      -1.089  20.327  20.007  0.00  0.00    -0.219 N 
ATOM     15  N   UNL     1      -1.053  20.560  18.671  0.00  0.00    -0.060 NA
BRANCH  14  16
ATOM     16  C   UNL     1      -1.919  19.310  20.582  0.00  0.00    +0.073 A 
ATOM     17  C   UNL     1      -3.299  19.586  20.825  0.00  0.00    -0.024 A 
ATOM     18  C   UNL     1      -4.124  18.590  21.389  0.00  0.00    +0.008 A 
ATOM     19  C   UNL     1      -3.628  17.329  21.710  0.00  0.00    -0.050 A 
ATOM     20  C   UNL     1      -4.532  16.292  22.306  0.00  0.00    +0.044 C 
ATOM     21  C   UNL     1      -2.282  17.063  21.469  0.00  0.00    +0.008 A 
ATOM     22  C   UNL     1      -3.989  20.886  20.471  0.00  0.00    +0.046 C 
ATOM     23  C   UNL     1      -1.406  18.034  20.930  0.00  0.00    -0.024 A 
ATOM     24  C   UNL     1       0.032  17.583  20.868  0.00  0.00    +0.046 C 
ENDBRANCH  14  16
ENDBRANCH  10  12
ENDBRANCH   9  10
ENDBRANCH   5   9
ENDBRANCH   4   7
ENDBRANCH   1   4
BRANCH   1  25
ATOM     25  C   UNL     1       4.295  21.783  14.347  0.00  0.00    +0.175 C 
BRANCH  25  26
ATOM     26  C   UNL     1       4.751  22.026  12.900  0.00  0.00    +0.176 C 
ATOM     27  O   UNL     1       5.177  23.412  12.793  0.00  0.00    -0.332 OA
ATOM     28  C   UNL     1       5.749  23.801  11.500  0.00  0.00    +0.277 C 
ATOM     29  C   UNL     1       4.766  23.465  10.351  0.00  0.00    +0.110 C 
ATOM     30  C   UNL     1       4.260  22.010  10.442  0.00  0.00    +0.143 C 
ATOM     31  C   UNL     1       3.690  21.713  11.829  0.00  0.00    +0.133 C 
BRANCH  31  32
ATOM     32  N   UNL     1       3.291  20.300  11.931  0.00  0.00    -0.308 N 
ATOM     33  H   UNL     1       4.022  19.603  11.932  0.00  0.00    +0.149 HD
ATOM     34  C   UNL     1       2.027  19.879  12.021  0.00  0.00    +0.210 C 
ATOM     35  C   UNL     1       0.935  20.965  11.990  0.00  0.00    +0.109 C 
ATOM     36  O   UNL     1       1.723  18.690  12.120  0.00  0.00    -0.276 OA
ENDBRANCH  31  32
BRANCH  28  37
ATOM     37  C   UNL     1       7.092  23.082  11.257  0.00  0.00    +0.414 C 
ATOM     38  O   UNL     1       8.010  23.192  12.068  0.00  0.00    -0.240 OA
ATOM     39  O   UNL     1       7.257  22.392  10.250  0.00  0.00    -0.240 OA
ENDBRANCH  28  37
BRANCH  30  40
ATOM     40  O   UNL     1       3.247  21.790   9.459  0.00  0.00    -0.390 OA
ATOM     41  H   UNL     1       3.601  21.977   8.587  0.00  0.00    +0.210 HD
ENDBRANCH  30  40
BRANCH  28  42
ATOM     42  O   UNL     1       5.959  25.237  11.516  0.00  0.00    -0.343 OA
ATOM     43  C   UNL     1       5.616  25.920  10.284  0.00  0.00    +0.198 C 
ENDBRANCH  28  42
ENDBRANCH  25  26
BRANCH  25  44
ATOM     44  O   UNL     1       2.959  22.290  14.538  0.00  0.00    -0.387 OA
ATOM     45  H   UNL     1       2.380  21.573  14.809  0.00  0.00    +0.210 HD
ENDBRANCH  25  44
ENDBRANCH   1  25
TORSDOF 14
