REMARK VINA RESULT:    -6.461      2.463      4.556
REMARK INTER + INTRA:         -13.031
REMARK INTER:                 -10.605
REMARK INTRA:                  -2.425
REMARK UNBOUND:                -1.847
REMARK  Name = lig_assembled_2.pdb
REMARK  16 active torsions:
REMARK  status: ('A' for Active; 'I' for Inactive)
REMARK    1  A    between atoms: _2  and  _9
REMARK    2  A    between atoms: _4  and  _18
REMARK    3  A    between atoms: _6  and  _7
REMARK    4  A    between atoms: _6  and  _18
REMARK    5  A    between atoms: _14  and  _34
REMARK    6  A    between atoms: _16  and  _22
REMARK    7  A    between atoms: _17  and  _21
REMARK    8  A    between atoms: _21  and  _22
REMARK    9  A    between atoms: _24  and  _25
REMARK   10  A    between atoms: _26  and  _27
REMARK   11  A    between atoms: _28  and  _30
REMARK   12  A    between atoms: _30  and  _31
REMARK   13  A    between atoms: _30  and  _32
REMARK   14  A    between atoms: _32  and  _33
REMARK   15  A    between atoms: _32  and  _34
REMARK   16  A    between atoms: _35  and  _37
REMARK                            x       y       z     vdW  Elec       q    Type
REMARK                         _______ _______ _______ _____ _____    ______ ____
ROOT
ATOM      1  C   UNL     1       4.924  -0.467  31.253  0.00  0.00    +0.163 C 
ENDROOT
BRANCH   1   2
ATOM      2  O   UNL     1       6.323  -0.141  31.300  0.00  0.00    -0.388 OA
ATOM      3  H   UNL     1       6.785  -0.612  30.602  0.00  0.00    +0.210 HD
ENDBRANCH   1   2
BRANCH   1   4
ATOM      4  C   UNL     1       4.553  -0.973  29.863  0.00  0.00    +0.141 C 
BRANCH   4   7
ATOM      5  C   UNL     1       2.866  -0.474  28.128  0.00  0.00    +0.401 C 
ATOM      6  O   UNL     1       3.498  -1.023  27.222  0.00  0.00    -0.226 OA
ATOM      7  N   UNL     1       3.287  -0.399  29.391  0.00  0.00    -0.279 N 
ATOM      8  H   UNL     1       2.702   0.081  30.061  0.00  0.00    +0.152 HD
BRANCH   5   9
ATOM      9  O   UNL     1       1.604   0.129  27.828  0.00  0.00    -0.444 OA
BRANCH   9  10
ATOM     10  C   UNL     1       1.653   1.522  28.145  0.00  0.00    +0.292 C 
BRANCH  10  12
ATOM     11  N   UNL     1       2.036   3.654  26.949  0.00  0.00    -0.131 NA
ATOM     12  C   UNL     1       1.724   2.327  26.910  0.00  0.00    +0.121 A 
ATOM     13  C   UNL     1       1.524   1.949  25.602  0.00  0.00    +0.143 A 
ATOM     14  N   UNL     1       1.756   3.088  24.865  0.00  0.00    -0.220 N 
ATOM     15  N   UNL     1       2.046   4.112  25.705  0.00  0.00    -0.060 NA
BRANCH  14  16
ATOM     16  C   UNL     1       1.747   3.251  23.455  0.00  0.00    +0.067 A 
ATOM     17  C   UNL     1       1.825   2.142  22.601  0.00  0.00    +0.029 A 
ATOM     18  C   UNL     1       1.852   2.326  21.214  0.00  0.00    +0.022 A 
ATOM     19  C   UNL     1       1.799   3.612  20.680  0.00  0.00    +0.041 A 
ATOM     20 CL   UNL     1       1.856   3.829  18.975  0.00  0.00    -0.084 Cl
ATOM     21  C   UNL     1       1.706   4.719  21.519  0.00  0.00    +0.022 A 
ATOM     22  C   UNL     1       1.677   4.542  22.905  0.00  0.00    +0.029 A 
ENDBRANCH  14  16
ENDBRANCH  10  12
ENDBRANCH   9  10
ENDBRANCH   5   9
ENDBRANCH   4   7
ENDBRANCH   1   4
BRANCH   1  23
ATOM     23  C   UNL     1       4.061   0.758  31.601  0.00  0.00    +0.175 C 
BRANCH  23  24
ATOM     24  C   UNL     1       4.827   1.781  32.452  0.00  0.00    +0.176 C 
ATOM     25  O   UNL     1       5.442   1.069  33.561  0.00  0.00    -0.332 OA
ATOM     26  C   UNL     1       6.308   1.873  34.429  0.00  0.00    +0.277 C 
ATOM     27  C   UNL     1       5.543   3.110  34.961  0.00  0.00    +0.110 C 
ATOM     28  C   UNL     1       4.845   3.882  33.821  0.00  0.00    +0.143 C 
ATOM     29  C   UNL     1       3.973   2.949  32.980  0.00  0.00    +0.133 C 
BRANCH  29  30
ATOM     30  N   UNL     1       3.383   3.678  31.846  0.00  0.00    -0.308 N 
ATOM     31  H   UNL     1       4.010   4.044  31.143  0.00  0.00    +0.149 HD
ATOM     32  C   UNL     1       2.074   3.888  31.686  0.00  0.00    +0.210 C 
ATOM     33  C   UNL     1       1.147   3.341  32.788  0.00  0.00    +0.109 C 
ATOM     34  O   UNL     1       1.607   4.490  30.718  0.00  0.00    -0.276 OA
ENDBRANCH  29  30
BRANCH  26  35
ATOM     35  C   UNL     1       7.568   2.335  33.667  0.00  0.00    +0.414 C 
ATOM     36  O   UNL     1       7.953   1.719  32.674  0.00  0.00    -0.240 OA
ATOM     37  O   UNL     1       8.199   3.322  34.046  0.00  0.00    -0.240 OA
ENDBRANCH  26  35
BRANCH  28  38
ATOM     38  O   UNL     1       4.032   4.920  34.369  0.00  0.00    -0.390 OA
ATOM     39  H   UNL     1       4.554   5.450  34.975  0.00  0.00    +0.210 HD
ENDBRANCH  28  38
BRANCH  26  40
ATOM     40  O   UNL     1       6.695   1.053  35.561  0.00  0.00    -0.343 OA
ATOM     41  C   UNL     1       6.277  -0.333  35.484  0.00  0.00    +0.198 C 
ENDBRANCH  26  40
ENDBRANCH  23  24
BRANCH  23  42
ATOM     42  O   UNL     1       2.861   0.343  32.283  0.00  0.00    -0.387 OA
ATOM     43  H   UNL     1       3.039   0.263  33.223  0.00  0.00    +0.210 HD
ENDBRANCH  23  42
ENDBRANCH   1  23
TORSDOF 14
