REMARK VINA RESULT:    -5.347     12.220     14.921
REMARK INTER + INTRA:         -13.435
REMARK INTER:                 -10.558
REMARK INTRA:                  -2.877
REMARK UNBOUND:                -3.868
REMARK  Name = lig_assembled_85.pdb
REMARK  19 active torsions:
REMARK  status: ('A' for Active; 'I' for Inactive)
REMARK    1  A    between atoms: _2  and  _10
REMARK    2  A    between atoms: _3  and  _6
REMARK    3  A    between atoms: _3  and  _17
REMARK    4  A    between atoms: _5  and  _23
REMARK    5  A    between atoms: _7  and  _8
REMARK    6  A    between atoms: _7  and  _23
REMARK    7  A    between atoms: _15  and  _16
REMARK    8  A    between atoms: _19  and  _39
REMARK    9  A    between atoms: _21  and  _27
REMARK   10  A    between atoms: _22  and  _26
REMARK   11  A    between atoms: _26  and  _27
REMARK   12  A    between atoms: _29  and  _30
REMARK   13  A    between atoms: _31  and  _32
REMARK   14  A    between atoms: _33  and  _35
REMARK   15  A    between atoms: _35  and  _36
REMARK   16  A    between atoms: _35  and  _37
REMARK   17  A    between atoms: _37  and  _38
REMARK   18  A    between atoms: _37  and  _39
REMARK   19  A    between atoms: _40  and  _42
REMARK                            x       y       z     vdW  Elec       q    Type
REMARK                         _______ _______ _______ _____ _____    ______ ____
ROOT
ATOM      1  C   UNL     1       8.232   1.679  34.905  0.00  0.00    +0.141 C 
ENDROOT
BRANCH   1   4
ATOM      2  C   UNL     1       8.246  -0.772  34.591  0.00  0.00    +0.401 C 
ATOM      3  O   UNL     1       9.316  -0.936  35.182  0.00  0.00    -0.226 OA
ATOM      4  N   UNL     1       7.669   0.417  34.409  0.00  0.00    -0.279 N 
ATOM      5  H   UNL     1       6.796   0.451  33.903  0.00  0.00    +0.152 HD
BRANCH   2   6
ATOM      6  O   UNL     1       7.567  -1.910  34.055  0.00  0.00    -0.444 OA
BRANCH   6   7
ATOM      7  C   UNL     1       8.496  -2.724  33.333  0.00  0.00    +0.292 C 
BRANCH   7   9
ATOM      8  N   UNL     1       7.922  -4.149  31.400  0.00  0.00    -0.131 NA
ATOM      9  C   UNL     1       8.043  -2.901  31.942  0.00  0.00    +0.121 A 
ATOM     10  C   UNL     1       7.636  -1.963  31.021  0.00  0.00    +0.143 A 
ATOM     11  N   UNL     1       7.266  -2.695  29.920  0.00  0.00    -0.219 N 
ATOM     12  N   UNL     1       7.423  -4.014  30.180  0.00  0.00    -0.060 NA
BRANCH  11  13
ATOM     13  C   UNL     1       6.700  -2.262  28.701  0.00  0.00    +0.080 A 
ATOM     14  C   UNL     1       5.380  -1.805  28.563  0.00  0.00    +0.062 A 
ATOM     15  C   UNL     1       4.874  -1.645  27.252  0.00  0.00    +0.016 A 
ATOM     16  C   UNL     1       5.655  -1.905  26.120  0.00  0.00    +0.021 A 
ATOM     17  C   UNL     1       6.979  -2.285  26.279  0.00  0.00    +0.043 A 
ATOM     18 CL   UNL     1       7.943  -2.643  24.900  0.00  0.00    -0.083 Cl
ATOM     19  C   UNL     1       7.511  -2.438  27.556  0.00  0.00    +0.048 A 
BRANCH  14  20
ATOM     20  C   UNL     1       4.375  -1.526  29.631  0.00  0.00    +0.248 C 
ATOM     21  O   UNL     1       4.179  -0.330  29.865  0.00  0.00    -0.270 OA
ATOM     22  N   UNL     1       3.734  -2.521  30.378  0.00  0.00    -0.304 N 
ATOM     23  C   UNL     1       3.751  -3.960  30.151  0.00  0.00    +0.132 C 
ATOM     24  C   UNL     1       2.787  -2.063  31.390  0.00  0.00    +0.132 C 
ENDBRANCH  14  20
ENDBRANCH  11  13
ENDBRANCH   7   9
ENDBRANCH   6   7
ENDBRANCH   2   6
ENDBRANCH   1   4
BRANCH   1  25
ATOM     25  C   UNL     1       8.555   2.643  33.768  0.00  0.00    +0.163 C 
BRANCH  25  26
ATOM     26  O   UNL     1       8.134   2.082  32.514  0.00  0.00    -0.388 OA
ATOM     27  H   UNL     1       7.802   2.782  31.945  0.00  0.00    +0.210 HD
ENDBRANCH  25  26
BRANCH  25  28
ATOM     28  C   UNL     1       7.864   3.993  34.027  0.00  0.00    +0.175 C 
BRANCH  28  29
ATOM     29  C   UNL     1       6.470   3.819  34.649  0.00  0.00    +0.176 C 
ATOM     30  O   UNL     1       5.649   3.077  33.706  0.00  0.00    -0.332 OA
ATOM     31  C   UNL     1       4.307   2.722  34.176  0.00  0.00    +0.277 C 
ATOM     32  C   UNL     1       3.548   3.986  34.650  0.00  0.00    +0.110 C 
ATOM     33  C   UNL     1       4.394   4.825  35.630  0.00  0.00    +0.143 C 
ATOM     34  C   UNL     1       5.771   5.134  35.041  0.00  0.00    +0.133 C 
BRANCH  34  35
ATOM     35  N   UNL     1       6.599   5.858  36.018  0.00  0.00    -0.308 N 
ATOM     36  H   UNL     1       6.770   5.417  36.911  0.00  0.00    +0.149 HD
ATOM     37  C   UNL     1       7.139   7.061  35.803  0.00  0.00    +0.210 C 
ATOM     38  C   UNL     1       6.837   7.719  34.443  0.00  0.00    +0.109 C 
ATOM     39  O   UNL     1       7.840   7.638  36.635  0.00  0.00    -0.276 OA
ENDBRANCH  34  35
BRANCH  31  40
ATOM     40  C   UNL     1       4.384   1.704  35.333  0.00  0.00    +0.414 C 
ATOM     41  O   UNL     1       3.874   1.964  36.422  0.00  0.00    -0.240 OA
ATOM     42  O   UNL     1       4.954   0.624  35.176  0.00  0.00    -0.240 OA
ENDBRANCH  31  40
BRANCH  33  43
ATOM     43  O   UNL     1       3.721   6.051  35.921  0.00  0.00    -0.390 OA
ATOM     44  H   UNL     1       3.143   6.280  35.190  0.00  0.00    +0.210 HD
ENDBRANCH  33  43
BRANCH  31  45
ATOM     45  O   UNL     1       3.579   2.142  33.063  0.00  0.00    -0.343 OA
ATOM     46  C   UNL     1       4.034   2.560  31.751  0.00  0.00    +0.198 C 
ENDBRANCH  31  45
ENDBRANCH  28  29
BRANCH  28  47
ATOM     47  O   UNL     1       7.770   4.746  32.801  0.00  0.00    -0.387 OA
ATOM     48  H   UNL     1       8.499   5.368  32.751  0.00  0.00    +0.210 HD
ENDBRANCH  28  47
ENDBRANCH  25  28
ENDBRANCH   1  25
TORSDOF 15
