REMARK VINA RESULT:    -5.650     14.162     18.431
REMARK INTER + INTRA:         -14.189
REMARK INTER:                 -11.902
REMARK INTRA:                  -2.286
REMARK UNBOUND:                -3.914
REMARK  Name = lig_assembled_73.pdb
REMARK  18 active torsions:
REMARK  status: ('A' for Active; 'I' for Inactive)
REMARK    1  A    between atoms: _2  and  _10
REMARK    2  A    between atoms: _3  and  _14
REMARK    3  A    between atoms: _5  and  _22
REMARK    4  A    between atoms: _7  and  _8
REMARK    5  A    between atoms: _7  and  _22
REMARK    6  A    between atoms: _13  and  _16
REMARK    7  A    between atoms: _18  and  _38
REMARK    8  A    between atoms: _20  and  _26
REMARK    9  A    between atoms: _21  and  _25
REMARK   10  A    between atoms: _25  and  _26
REMARK   11  A    between atoms: _28  and  _29
REMARK   12  A    between atoms: _30  and  _31
REMARK   13  A    between atoms: _32  and  _34
REMARK   14  A    between atoms: _34  and  _35
REMARK   15  A    between atoms: _34  and  _36
REMARK   16  A    between atoms: _36  and  _37
REMARK   17  A    between atoms: _36  and  _38
REMARK   18  A    between atoms: _39  and  _41
REMARK                            x       y       z     vdW  Elec       q    Type
REMARK                         _______ _______ _______ _____ _____    ______ ____
ROOT
ATOM      1  C   UNL     1      18.516   5.800  23.906  0.00  0.00    +0.163 C 
ENDROOT
BRANCH   1   2
ATOM      2  O   UNL     1      17.474   5.865  22.918  0.00  0.00    -0.388 OA
ATOM      3  H   UNL     1      16.618   5.852  23.354  0.00  0.00    +0.210 HD
ENDBRANCH   1   2
BRANCH   1   4
ATOM      4  C   UNL     1      19.207   4.426  23.887  0.00  0.00    +0.175 C 
BRANCH   4   5
ATOM      5  C   UNL     1      18.440   3.382  24.713  0.00  0.00    +0.176 C 
ATOM      6  O   UNL     1      19.308   2.941  25.793  0.00  0.00    -0.332 OA
ATOM      7  C   UNL     1      18.702   2.014  26.754  0.00  0.00    +0.277 C 
ATOM      8  C   UNL     1      18.112   0.784  26.021  0.00  0.00    +0.110 C 
ATOM      9  C   UNL     1      17.207   1.203  24.844  0.00  0.00    +0.143 C 
ATOM     10  C   UNL     1      17.935   2.170  23.909  0.00  0.00    +0.133 C 
BRANCH  10  11
ATOM     11  N   UNL     1      17.035   2.629  22.839  0.00  0.00    -0.308 N 
ATOM     12  H   UNL     1      16.263   3.227  23.098  0.00  0.00    +0.149 HD
ATOM     13  C   UNL     1      17.172   2.308  21.550  0.00  0.00    +0.210 C 
ATOM     14  C   UNL     1      18.343   1.374  21.193  0.00  0.00    +0.109 C 
ATOM     15  O   UNL     1      16.411   2.720  20.674  0.00  0.00    -0.276 OA
ENDBRANCH  10  11
BRANCH   7  16
ATOM     16  C   UNL     1      17.592   2.714  27.564  0.00  0.00    +0.414 C 
ATOM     17  O   UNL     1      17.880   3.428  28.523  0.00  0.00    -0.240 OA
ATOM     18  O   UNL     1      16.408   2.566  27.258  0.00  0.00    -0.240 OA
ENDBRANCH   7  16
BRANCH   9  19
ATOM     19  O   UNL     1      16.808   0.047  24.107  0.00  0.00    -0.390 OA
ATOM     20  H   UNL     1      17.557  -0.292  23.612  0.00  0.00    +0.210 HD
ENDBRANCH   9  19
BRANCH   7  21
ATOM     21  O   UNL     1      19.745   1.554  27.652  0.00  0.00    -0.343 OA
ATOM     22  C   UNL     1      21.099   1.782  27.186  0.00  0.00    +0.198 C 
ENDBRANCH   7  21
ENDBRANCH   4   5
BRANCH   4  23
ATOM     23  O   UNL     1      20.561   4.544  24.370  0.00  0.00    -0.387 OA
ATOM     24  H   UNL     1      20.931   5.382  24.083  0.00  0.00    +0.210 HD
ENDBRANCH   4  23
ENDBRANCH   1   4
BRANCH   1  25
ATOM     25  C   UNL     1      19.548   6.893  23.647  0.00  0.00    +0.141 C 
BRANCH  25  28
ATOM     26  C   UNL     1      20.883   7.708  25.560  0.00  0.00    +0.401 C 
ATOM     27  O   UNL     1      21.845   6.974  25.322  0.00  0.00    -0.226 OA
ATOM     28  N   UNL     1      19.766   7.732  24.832  0.00  0.00    -0.279 N 
ATOM     29  H   UNL     1      19.027   8.362  25.112  0.00  0.00    +0.152 HD
BRANCH  26  30
ATOM     30  O   UNL     1      20.946   8.594  26.681  0.00  0.00    -0.444 OA
BRANCH  30  31
ATOM     31  C   UNL     1      19.681   9.239  26.851  0.00  0.00    +0.292 C 
BRANCH  31  33
ATOM     32  N   UNL     1      19.198   7.779  28.791  0.00  0.00    -0.131 NA
ATOM     33  C   UNL     1      19.172   9.018  28.218  0.00  0.00    +0.121 A 
ATOM     34  C   UNL     1      18.626   9.912  29.108  0.00  0.00    +0.143 A 
ATOM     35  N   UNL     1      18.336   9.168  30.228  0.00  0.00    -0.220 N 
ATOM     36  N   UNL     1      18.689   7.879  30.011  0.00  0.00    -0.060 NA
BRANCH  35  37
ATOM     37  C   UNL     1      17.757   9.591  31.453  0.00  0.00    +0.074 A 
ATOM     38  C   UNL     1      17.848  10.941  31.838  0.00  0.00    +0.032 A 
ATOM     39  C   UNL     1      17.291  11.379  33.047  0.00  0.00    +0.054 A 
ATOM     40  C   UNL     1      16.642  10.474  33.884  0.00  0.00    +0.195 A 
ATOM     41  C   UNL     1      16.554   9.138  33.496  0.00  0.00    +0.316 A 
ATOM     42  C   UNL     1      17.097   8.681  32.287  0.00  0.00    +0.116 A 
BRANCH  41  43
ATOM     43  N   UNL     1      15.894   8.170  34.350  0.00  0.00    +0.083 N 
ATOM     44  O   UNL     1      16.374   7.977  35.475  0.00  0.00    +0.042 OA
ATOM     45  O   UNL     1      14.950   7.542  33.850  0.00  0.00    -0.576 OA
ENDBRANCH  41  43
BRANCH  40  46
ATOM     46  O   UNL     1      16.083  10.905  35.049  0.00  0.00    -0.501 OA
ATOM     47  H   UNL     1      15.133  10.693  35.063  0.00  0.00    +0.292 HD
ENDBRANCH  40  46
ENDBRANCH  35  37
ENDBRANCH  31  33
ENDBRANCH  30  31
ENDBRANCH  26  30
ENDBRANCH  25  28
ENDBRANCH   1  25
TORSDOF 16
