REMARK VINA RESULT:    -6.014     12.598     17.027
REMARK INTER + INTRA:         -13.190
REMARK INTER:                 -10.839
REMARK INTRA:                  -2.351
REMARK UNBOUND:                -2.078
REMARK  Name = lig_assembled_14.pdb
REMARK  18 active torsions:
REMARK  status: ('A' for Active; 'I' for Inactive)
REMARK    1  A    between atoms: _2  and  _10
REMARK    2  A    between atoms: _3  and  _11
REMARK    3  A    between atoms: _5  and  _19
REMARK    4  A    between atoms: _7  and  _8
REMARK    5  A    between atoms: _7  and  _19
REMARK    6  A    between atoms: _10  and  _11
REMARK    7  A    between atoms: _15  and  _35
REMARK    8  A    between atoms: _17  and  _23
REMARK    9  A    between atoms: _18  and  _22
REMARK   10  A    between atoms: _22  and  _23
REMARK   11  A    between atoms: _25  and  _26
REMARK   12  A    between atoms: _27  and  _28
REMARK   13  A    between atoms: _29  and  _31
REMARK   14  A    between atoms: _31  and  _32
REMARK   15  A    between atoms: _31  and  _33
REMARK   16  A    between atoms: _33  and  _34
REMARK   17  A    between atoms: _33  and  _35
REMARK   18  A    between atoms: _36  and  _38
REMARK                            x       y       z     vdW  Elec       q    Type
REMARK                         _______ _______ _______ _____ _____    ______ ____
ROOT
ATOM      1  C   UNL     1       7.821   2.386  34.119  0.00  0.00    +0.163 C 
ENDROOT
BRANCH   1   2
ATOM      2  O   UNL     1       8.777   2.526  35.183  0.00  0.00    -0.388 OA
ATOM      3  H   UNL     1       8.476   3.199  35.798  0.00  0.00    +0.210 HD
ENDBRANCH   1   2
BRANCH   1   4
ATOM      4  C   UNL     1       7.772   3.658  33.254  0.00  0.00    +0.175 C 
BRANCH   4   5
ATOM      5  C   UNL     1       6.955   4.777  33.918  0.00  0.00    +0.176 C 
ATOM      6  O   UNL     1       7.752   5.330  35.001  0.00  0.00    -0.332 OA
ATOM      7  C   UNL     1       7.173   6.489  35.687  0.00  0.00    +0.277 C 
ATOM      8  C   UNL     1       5.750   6.157  36.201  0.00  0.00    +0.110 C 
ATOM      9  C   UNL     1       4.874   5.536  35.092  0.00  0.00    +0.143 C 
ATOM     10  C   UNL     1       5.575   4.341  34.444  0.00  0.00    +0.133 C 
BRANCH  10  11
ATOM     11  N   UNL     1       4.769   3.813  33.332  0.00  0.00    -0.308 N 
ATOM     12  H   UNL     1       4.709   4.365  32.489  0.00  0.00    +0.149 HD
ATOM     13  C   UNL     1       4.112   2.650  33.365  0.00  0.00    +0.210 C 
ATOM     14  C   UNL     1       4.202   1.844  34.675  0.00  0.00    +0.109 C 
ATOM     15  O   UNL     1       3.457   2.225  32.413  0.00  0.00    -0.276 OA
ENDBRANCH  10  11
BRANCH   7  16
ATOM     16  C   UNL     1       7.109   7.708  34.743  0.00  0.00    +0.414 C 
ATOM     17  O   UNL     1       6.021   8.160  34.387  0.00  0.00    -0.240 OA
ATOM     18  O   UNL     1       8.144   8.239  34.338  0.00  0.00    -0.240 OA
ENDBRANCH   7  16
BRANCH   9  19
ATOM     19  O   UNL     1       3.629   5.109  35.645  0.00  0.00    -0.390 OA
ATOM     20  H   UNL     1       2.907   5.509  35.156  0.00  0.00    +0.210 HD
ENDBRANCH   9  19
BRANCH   7  21
ATOM     21  O   UNL     1       8.011   6.799  36.829  0.00  0.00    -0.343 OA
ATOM     22  C   UNL     1       7.294   7.214  38.020  0.00  0.00    +0.198 C 
ENDBRANCH   7  21
ENDBRANCH   4   5
BRANCH   4  23
ATOM     23  O   UNL     1       7.231   3.353  31.953  0.00  0.00    -0.387 OA
ATOM     24  H   UNL     1       6.493   3.939  31.767  0.00  0.00    +0.210 HD
ENDBRANCH   4  23
ENDBRANCH   1   4
BRANCH   1  25
ATOM     25  C   UNL     1       8.184   1.190  33.245  0.00  0.00    +0.141 C 
BRANCH  25  28
ATOM     26  C   UNL     1       6.381  -0.487  33.044  0.00  0.00    +0.401 C 
ATOM     27  O   UNL     1       6.738  -1.128  34.035  0.00  0.00    -0.226 OA
ATOM     28  N   UNL     1       7.002   0.606  32.599  0.00  0.00    -0.279 N 
ATOM     29  H   UNL     1       6.639   1.057  31.771  0.00  0.00    +0.152 HD
BRANCH  26  30
ATOM     30  O   UNL     1       5.236  -0.927  32.308  0.00  0.00    -0.444 OA
BRANCH  30  31
ATOM     31  C   UNL     1       5.314  -0.438  30.966  0.00  0.00    +0.292 C 
BRANCH  31  33
ATOM     32  N   UNL     1       4.498  -2.106  29.330  0.00  0.00    -0.131 NA
ATOM     33  C   UNL     1       5.540  -1.551  30.026  0.00  0.00    +0.120 A 
ATOM     34  C   UNL     1       6.704  -2.207  29.692  0.00  0.00    +0.137 A 
ATOM     35  N   UNL     1       6.300  -3.154  28.802  0.00  0.00    -0.250 N 
ATOM     36  N   UNL     1       4.976  -3.086  28.579  0.00  0.00    -0.065 NA
BRANCH  35  37
ATOM     37  C   UNL     1       7.095  -4.185  28.168  0.00  0.00    +0.160 C 
BRANCH  37  38
ATOM     38  C   UNL     1       8.450  -3.650  27.692  0.00  0.00    +0.107 C 
BRANCH  38  39
ATOM     39  N   UNL     1       8.510  -3.452  26.233  0.00  0.00    -0.301 NA
ATOM     40  C   UNL     1       7.850  -4.523  25.480  0.00  0.00    +0.084 C 
ATOM     41  C   UNL     1       7.680  -3.902  24.108  0.00  0.00    +0.017 C 
ATOM     42  C   UNL     1       7.340  -2.453  24.406  0.00  0.00    +0.017 C 
ATOM     43  C   UNL     1       7.845  -2.206  25.825  0.00  0.00    +0.084 C 
ENDBRANCH  38  39
ENDBRANCH  37  38
ENDBRANCH  35  37
ENDBRANCH  31  33
ENDBRANCH  30  31
ENDBRANCH  26  30
ENDBRANCH  25  28
ENDBRANCH   1  25
TORSDOF 16
