REMARK VINA RESULT:    -5.822     15.150     16.815
REMARK INTER + INTRA:         -13.851
REMARK INTER:                 -11.528
REMARK INTRA:                  -2.323
REMARK UNBOUND:                -2.754
REMARK  Name = lig_assembled_12.pdb
REMARK  19 active torsions:
REMARK  status: ('A' for Active; 'I' for Inactive)
REMARK    1  A    between atoms: _2  and  _9
REMARK    2  A    between atoms: _4  and  _21
REMARK    3  A    between atoms: _6  and  _7
REMARK    4  A    between atoms: _6  and  _21
REMARK    5  A    between atoms: _9  and  _16
REMARK    6  A    between atoms: _10  and  _11
REMARK    7  A    between atoms: _10  and  _16
REMARK    8  A    between atoms: _17  and  _37
REMARK    9  A    between atoms: _19  and  _25
REMARK   10  A    between atoms: _20  and  _24
REMARK   11  A    between atoms: _24  and  _25
REMARK   12  A    between atoms: _27  and  _28
REMARK   13  A    between atoms: _29  and  _30
REMARK   14  A    between atoms: _31  and  _33
REMARK   15  A    between atoms: _33  and  _34
REMARK   16  A    between atoms: _33  and  _35
REMARK   17  A    between atoms: _35  and  _36
REMARK   18  A    between atoms: _35  and  _37
REMARK   19  A    between atoms: _38  and  _40
REMARK                            x       y       z     vdW  Elec       q    Type
REMARK                         _______ _______ _______ _____ _____    ______ ____
ROOT
ATOM      1  C   UNL     1      19.960   7.024  24.737  0.00  0.00    +0.163 C 
ENDROOT
BRANCH   1   2
ATOM      2  O   UNL     1      20.557   8.321  24.574  0.00  0.00    -0.388 OA
ATOM      3  H   UNL     1      21.498   8.222  24.410  0.00  0.00    +0.210 HD
ENDBRANCH   1   2
BRANCH   1   4
ATOM      4  C   UNL     1      19.043   6.991  25.972  0.00  0.00    +0.175 C 
BRANCH   4   5
ATOM      5  C   UNL     1      19.194   5.688  26.770  0.00  0.00    +0.176 C 
ATOM      6  O   UNL     1      18.137   4.782  26.351  0.00  0.00    -0.332 OA
ATOM      7  C   UNL     1      18.185   3.438  26.934  0.00  0.00    +0.277 C 
ATOM      8  C   UNL     1      18.221   3.521  28.480  0.00  0.00    +0.110 C 
ATOM      9  C   UNL     1      19.310   4.497  28.973  0.00  0.00    +0.143 C 
ATOM     10  C   UNL     1      19.167   5.863  28.300  0.00  0.00    +0.133 C 
BRANCH  10  11
ATOM     11  N   UNL     1      20.261   6.757  28.712  0.00  0.00    -0.308 N 
ATOM     12  H   UNL     1      21.199   6.520  28.420  0.00  0.00    +0.149 HD
ATOM     13  C   UNL     1      20.095   7.861  29.445  0.00  0.00    +0.210 C 
ATOM     14  C   UNL     1      18.657   8.180  29.896  0.00  0.00    +0.109 C 
ATOM     15  O   UNL     1      21.028   8.599  29.763  0.00  0.00    -0.276 OA
ENDBRANCH  10  11
BRANCH   7  16
ATOM     16  C   UNL     1      19.423   2.667  26.430  0.00  0.00    +0.414 C 
ATOM     17  O   UNL     1      19.730   2.698  25.239  0.00  0.00    -0.240 OA
ATOM     18  O   UNL     1      20.114   2.015  27.214  0.00  0.00    -0.240 OA
ENDBRANCH   7  16
BRANCH   9  19
ATOM     19  O   UNL     1      19.208   4.658  30.388  0.00  0.00    -0.390 OA
ATOM     20  H   UNL     1      19.284   5.588  30.612  0.00  0.00    +0.210 HD
ENDBRANCH   9  19
BRANCH   7  21
ATOM     21  O   UNL     1      16.978   2.735  26.542  0.00  0.00    -0.343 OA
ATOM     22  C   UNL     1      16.985   1.310  26.811  0.00  0.00    +0.198 C 
ENDBRANCH   7  21
ENDBRANCH   4   5
BRANCH   4  23
ATOM     23  O   UNL     1      17.669   7.174  25.575  0.00  0.00    -0.387 OA
ATOM     24  H   UNL     1      17.191   6.349  25.684  0.00  0.00    +0.210 HD
ENDBRANCH   4  23
ENDBRANCH   1   4
BRANCH   1  25
ATOM     25  C   UNL     1      19.155   6.660  23.494  0.00  0.00    +0.141 C 
BRANCH  25  28
ATOM     26  C   UNL     1      17.538   4.867  22.968  0.00  0.00    +0.401 C 
ATOM     27  O   UNL     1      16.773   5.610  22.349  0.00  0.00    -0.226 OA
ATOM     28  N   UNL     1      18.671   5.275  23.541  0.00  0.00    -0.279 N 
ATOM     29  H   UNL     1      19.228   4.592  24.036  0.00  0.00    +0.152 HD
BRANCH  26  30
ATOM     30  O   UNL     1      17.210   3.481  23.095  0.00  0.00    -0.444 OA
BRANCH  30  31
ATOM     31  C   UNL     1      16.969   2.926  21.799  0.00  0.00    +0.292 C 
BRANCH  31  33
ATOM     32  N   UNL     1      18.074   1.134  20.489  0.00  0.00    -0.131 NA
ATOM     33  C   UNL     1      17.588   1.593  21.687  0.00  0.00    +0.120 A 
ATOM     34  C   UNL     1      17.786   0.630  22.649  0.00  0.00    +0.139 A 
ATOM     35  N   UNL     1      18.369  -0.400  21.972  0.00  0.00    -0.226 N 
ATOM     36  N   UNL     1      18.562  -0.085  20.678  0.00  0.00    -0.063 NA
BRANCH  35  37
ATOM     37  C   UNL     1      18.814  -1.684  22.485  0.00  0.00    +0.305 C 
BRANCH  37  38
ATOM     38  O   UNL     1      17.806  -2.661  22.239  0.00  0.00    -0.353 OA
BRANCH  38  39
ATOM     39  C   UNL     1      17.028  -2.919  23.401  0.00  0.00    +0.197 C 
BRANCH  39  40
ATOM     40  C   UNL     1      16.230  -4.168  23.143  0.00  0.00    -0.022 A 
ATOM     41  C   UNL     1      15.158  -4.156  22.240  0.00  0.00    +0.006 A 
ATOM     42  C   UNL     1      14.394  -5.305  22.031  0.00  0.00    +0.000 A 
ATOM     43  C   UNL     1      14.689  -6.475  22.728  0.00  0.00    +0.000 A 
ATOM     44  C   UNL     1      15.745  -6.498  23.637  0.00  0.00    +0.000 A 
ATOM     45  C   UNL     1      16.510  -5.349  23.847  0.00  0.00    +0.006 A 
ENDBRANCH  39  40
ENDBRANCH  38  39
ENDBRANCH  37  38
ENDBRANCH  35  37
ENDBRANCH  31  33
ENDBRANCH  30  31
ENDBRANCH  26  30
ENDBRANCH  25  28
ENDBRANCH   1  25
TORSDOF 17
