REMARK VINA RESULT:    -7.386      0.000      0.000
REMARK INTER + INTRA:         -14.630
REMARK INTER:                 -12.588
REMARK INTRA:                  -2.042
REMARK UNBOUND:                -1.847
REMARK  Name = lig_assembled_2.pdb
REMARK  16 active torsions:
REMARK  status: ('A' for Active; 'I' for Inactive)
REMARK    1  A    between atoms: _2  and  _9
REMARK    2  A    between atoms: _4  and  _18
REMARK    3  A    between atoms: _6  and  _7
REMARK    4  A    between atoms: _6  and  _18
REMARK    5  A    between atoms: _14  and  _34
REMARK    6  A    between atoms: _16  and  _22
REMARK    7  A    between atoms: _17  and  _21
REMARK    8  A    between atoms: _21  and  _22
REMARK    9  A    between atoms: _24  and  _25
REMARK   10  A    between atoms: _26  and  _27
REMARK   11  A    between atoms: _28  and  _30
REMARK   12  A    between atoms: _30  and  _31
REMARK   13  A    between atoms: _30  and  _32
REMARK   14  A    between atoms: _32  and  _33
REMARK   15  A    between atoms: _32  and  _34
REMARK   16  A    between atoms: _35  and  _37
REMARK                            x       y       z     vdW  Elec       q    Type
REMARK                         _______ _______ _______ _____ _____    ______ ____
ROOT
ATOM      1  C   UNL     1       3.786   3.636  32.499  0.00  0.00    +0.163 C 
ENDROOT
BRANCH   1   2
ATOM      2  O   UNL     1       2.961   4.042  33.603  0.00  0.00    -0.388 OA
ATOM      3  H   UNL     1       3.401   4.740  34.093  0.00  0.00    +0.210 HD
ENDBRANCH   1   2
BRANCH   1   4
ATOM      4  C   UNL     1       3.072   2.566  31.679  0.00  0.00    +0.141 C 
BRANCH   4   7
ATOM      5  C   UNL     1       1.028   3.676  30.847  0.00  0.00    +0.401 C 
ATOM      6  O   UNL     1       0.486   3.716  31.954  0.00  0.00    -0.226 OA
ATOM      7  N   UNL     1       2.234   3.151  30.626  0.00  0.00    -0.279 N 
ATOM      8  H   UNL     1       2.591   3.156  29.681  0.00  0.00    +0.152 HD
BRANCH   5   9
ATOM      9  O   UNL     1       0.340   4.216  29.716  0.00  0.00    -0.444 OA
BRANCH   9  10
ATOM     10  C   UNL     1       0.095   3.177  28.765  0.00  0.00    +0.292 C 
BRANCH  10  12
ATOM     11  N   UNL     1       2.173   3.719  27.535  0.00  0.00    -0.131 NA
ATOM     12  C   UNL     1       0.837   3.440  27.517  0.00  0.00    +0.121 A 
ATOM     13  C   UNL     1       0.393   3.449  26.214  0.00  0.00    +0.143 A 
ATOM     14  N   UNL     1       1.513   3.713  25.460  0.00  0.00    -0.220 N 
ATOM     15  N   UNL     1       2.575   3.890  26.283  0.00  0.00    -0.060 NA
BRANCH  14  16
ATOM     16  C   UNL     1       1.637   3.776  24.047  0.00  0.00    +0.067 A 
ATOM     17  C   UNL     1       1.661   5.009  23.380  0.00  0.00    +0.029 A 
ATOM     18  C   UNL     1       1.746   5.048  21.984  0.00  0.00    +0.022 A 
ATOM     19  C   UNL     1       1.810   3.862  21.254  0.00  0.00    +0.041 A 
ATOM     20 CL   UNL     1       1.891   3.920  19.537  0.00  0.00    -0.084 Cl
ATOM     21  C   UNL     1       1.802   2.633  21.908  0.00  0.00    +0.022 A 
ATOM     22  C   UNL     1       1.718   2.586  23.303  0.00  0.00    +0.029 A 
ENDBRANCH  14  16
ENDBRANCH  10  12
ENDBRANCH   9  10
ENDBRANCH   5   9
ENDBRANCH   4   7
ENDBRANCH   1   4
BRANCH   1  23
ATOM     23  C   UNL     1       5.137   3.089  32.993  0.00  0.00    +0.175 C 
BRANCH  23  24
ATOM     24  C   UNL     1       5.612   3.794  34.272  0.00  0.00    +0.176 C 
ATOM     25  O   UNL     1       5.614   5.226  34.020  0.00  0.00    -0.332 OA
ATOM     26  C   UNL     1       5.942   6.072  35.171  0.00  0.00    +0.277 C 
ATOM     27  C   UNL     1       7.298   5.647  35.786  0.00  0.00    +0.110 C 
ATOM     28  C   UNL     1       7.355   4.126  36.043  0.00  0.00    +0.143 C 
ATOM     29  C   UNL     1       6.993   3.343  34.781  0.00  0.00    +0.133 C 
BRANCH  29  30
ATOM     30  N   UNL     1       6.966   1.898  35.061  0.00  0.00    -0.308 N 
ATOM     31  H   UNL     1       6.310   1.564  35.752  0.00  0.00    +0.149 HD
ATOM     32  C   UNL     1       7.753   1.000  34.462  0.00  0.00    +0.210 C 
ATOM     33  C   UNL     1       8.762   1.545  33.433  0.00  0.00    +0.109 C 
ATOM     34  O   UNL     1       7.699  -0.205  34.707  0.00  0.00    -0.276 OA
ENDBRANCH  29  30
BRANCH  26  35
ATOM     35  C   UNL     1       4.838   5.985  36.246  0.00  0.00    +0.414 C 
ATOM     36  O   UNL     1       3.700   5.632  35.939  0.00  0.00    -0.240 OA
ATOM     37  O   UNL     1       5.085   6.268  37.419  0.00  0.00    -0.240 OA
ENDBRANCH  26  35
BRANCH  28  38
ATOM     38  O   UNL     1       8.668   3.758  36.466  0.00  0.00    -0.390 OA
ATOM     39  H   UNL     1       9.241   3.678  35.700  0.00  0.00    +0.210 HD
ENDBRANCH  28  38
BRANCH  26  40
ATOM     40  O   UNL     1       6.061   7.440  34.703  0.00  0.00    -0.343 OA
ATOM     41  C   UNL     1       7.419   7.942  34.617  0.00  0.00    +0.198 C 
ENDBRANCH  26  40
ENDBRANCH  23  24
BRANCH  23  42
ATOM     42  O   UNL     1       6.132   3.215  31.958  0.00  0.00    -0.387 OA
ATOM     43  H   UNL     1       6.878   3.720  32.290  0.00  0.00    +0.210 HD
ENDBRANCH  23  42
ENDBRANCH   1  23
TORSDOF 14
