REMARK VINA RESULT:    -6.044      4.613      9.837
REMARK INTER + INTRA:         -14.324
REMARK INTER:                 -12.414
REMARK INTRA:                  -1.910
REMARK UNBOUND:                -2.450
REMARK  Name = lig_assembled_10.pdb
REMARK  21 active torsions:
REMARK  status: ('A' for Active; 'I' for Inactive)
REMARK    1  A    between atoms: _2  and  _9
REMARK    2  A    between atoms: _4  and  _20
REMARK    3  A    between atoms: _5  and  _9
REMARK    4  A    between atoms: _5  and  _12
REMARK    5  A    between atoms: _6  and  _7
REMARK    6  A    between atoms: _6  and  _20
REMARK    7  A    between atoms: _9  and  _10
REMARK    8  A    between atoms: _10  and  _11
REMARK    9  A    between atoms: _11  and  _14
REMARK   10  A    between atoms: _16  and  _36
REMARK   11  A    between atoms: _18  and  _24
REMARK   12  A    between atoms: _19  and  _23
REMARK   13  A    between atoms: _23  and  _24
REMARK   14  A    between atoms: _26  and  _27
REMARK   15  A    between atoms: _28  and  _29
REMARK   16  A    between atoms: _30  and  _32
REMARK   17  A    between atoms: _32  and  _33
REMARK   18  A    between atoms: _32  and  _34
REMARK   19  A    between atoms: _34  and  _35
REMARK   20  A    between atoms: _34  and  _36
REMARK   21  A    between atoms: _37  and  _39
REMARK                            x       y       z     vdW  Elec       q    Type
REMARK                         _______ _______ _______ _____ _____    ______ ____
ROOT
ATOM      1  C   UNL     1      18.662   5.888  24.242  0.00  0.00    +0.163 C 
ENDROOT
BRANCH   1   2
ATOM      2  O   UNL     1      18.473   6.690  23.065  0.00  0.00    -0.388 OA
ATOM      3  H   UNL     1      17.744   7.299  23.206  0.00  0.00    +0.210 HD
ENDBRANCH   1   2
BRANCH   1   4
ATOM      4  C   UNL     1      19.098   4.460  23.871  0.00  0.00    +0.175 C 
BRANCH   4   5
ATOM      5  C   UNL     1      18.371   3.398  24.708  0.00  0.00    +0.176 C 
ATOM      6  O   UNL     1      19.244   3.020  25.808  0.00  0.00    -0.332 OA
ATOM      7  C   UNL     1      18.671   2.085  26.780  0.00  0.00    +0.277 C 
ATOM      8  C   UNL     1      18.149   0.814  26.066  0.00  0.00    +0.110 C 
ATOM      9  C   UNL     1      17.241   1.166  24.869  0.00  0.00    +0.143 C 
ATOM     10  C   UNL     1      17.934   2.146  23.923  0.00  0.00    +0.133 C 
BRANCH  10  11
ATOM     11  N   UNL     1      17.027   2.541  22.834  0.00  0.00    -0.308 N 
ATOM     12  H   UNL     1      16.222   3.104  23.071  0.00  0.00    +0.149 HD
ATOM     13  C   UNL     1      17.198   2.204  21.553  0.00  0.00    +0.210 C 
ATOM     14  C   UNL     1      18.420   1.324  21.228  0.00  0.00    +0.109 C 
ATOM     15  O   UNL     1      16.430   2.561  20.659  0.00  0.00    -0.276 OA
ENDBRANCH  10  11
BRANCH   7  16
ATOM     16  C   UNL     1      17.517   2.748  27.562  0.00  0.00    +0.414 C 
ATOM     17  O   UNL     1      17.757   3.459  28.537  0.00  0.00    -0.240 OA
ATOM     18  O   UNL     1      16.348   2.572  27.217  0.00  0.00    -0.240 OA
ENDBRANCH   7  16
BRANCH   7  19
ATOM     19  O   UNL     1      19.722   1.694  27.700  0.00  0.00    -0.343 OA
ATOM     20  C   UNL     1      20.981   2.392  27.525  0.00  0.00    +0.198 C 
ENDBRANCH   7  19
BRANCH   9  21
ATOM     21  O   UNL     1      16.907  -0.023  24.152  0.00  0.00    -0.390 OA
ATOM     22  H   UNL     1      16.711  -0.729  24.774  0.00  0.00    +0.210 HD
ENDBRANCH   9  21
ENDBRANCH   4   5
BRANCH   4  23
ATOM     23  O   UNL     1      20.525   4.321  24.022  0.00  0.00    -0.387 OA
ATOM     24  H   UNL     1      20.966   5.057  23.592  0.00  0.00    +0.210 HD
ENDBRANCH   4  23
ENDBRANCH   1   4
BRANCH   1  25
ATOM     25  C   UNL     1      19.715   6.524  25.143  0.00  0.00    +0.141 C 
BRANCH  25  28
ATOM     26  C   UNL     1      19.189   7.240  27.449  0.00  0.00    +0.401 C 
ATOM     27  O   UNL     1      19.166   8.441  27.171  0.00  0.00    -0.226 OA
ATOM     28  N   UNL     1      19.443   6.275  26.564  0.00  0.00    -0.279 N 
ATOM     29  H   UNL     1      19.448   5.318  26.890  0.00  0.00    +0.152 HD
BRANCH  26  30
ATOM     30  O   UNL     1      18.933   6.833  28.796  0.00  0.00    -0.444 OA
BRANCH  30  31
ATOM     31  C   UNL     1      19.524   7.772  29.698  0.00  0.00    +0.292 C 
BRANCH  31  33
ATOM     32  N   UNL     1      18.020   9.613  30.394  0.00  0.00    -0.131 NA
ATOM     33  C   UNL     1      18.494   8.344  30.586  0.00  0.00    +0.120 A 
ATOM     34  C   UNL     1      17.855   7.784  31.670  0.00  0.00    +0.138 A 
ATOM     35  N   UNL     1      16.974   8.741  32.069  0.00  0.00    -0.237 N 
ATOM     36  N   UNL     1      17.095   9.850  31.312  0.00  0.00    -0.065 NA
BRANCH  35  37
ATOM     37  C   UNL     1      15.979   8.737  33.130  0.00  0.00    +0.227 C 
BRANCH  37  38
ATOM     38  C   UNL     1      15.632  10.107  33.671  0.00  0.00    +0.330 C 
ATOM     39  O   UNL     1      16.136  10.539  34.703  0.00  0.00    -0.249 OA
BRANCH  38  40
ATOM     40  O   UNL     1      14.776  10.862  32.951  0.00  0.00    -0.479 OA
ATOM     41  H   UNL     1      15.072  11.127  32.042  0.00  0.00    +0.295 HD
ENDBRANCH  38  40
ENDBRANCH  37  38
BRANCH  37  42
ATOM     42  C   UNL     1      16.252   7.721  34.247  0.00  0.00    +0.158 C 
BRANCH  42  43
ATOM     43  C   UNL     1      15.289   6.567  34.210  0.00  0.00    +0.307 C 
ATOM     44  O   UNL     1      14.522   6.294  35.125  0.00  0.00    -0.251 OA
BRANCH  43  45
ATOM     45  O   UNL     1      15.287   5.903  33.040  0.00  0.00    -0.481 OA
ATOM     46  H   UNL     1      14.739   6.300  32.336  0.00  0.00    +0.295 HD
ENDBRANCH  43  45
ENDBRANCH  42  43
ENDBRANCH  37  42
ENDBRANCH  35  37
ENDBRANCH  31  33
ENDBRANCH  30  31
ENDBRANCH  26  30
ENDBRANCH  25  28
ENDBRANCH   1  25
TORSDOF 19
