REMARK VINA RESULT:    -6.206      5.199      6.724
REMARK INTER + INTRA:         -13.309
REMARK INTER:                 -11.502
REMARK INTRA:                  -1.807
REMARK UNBOUND:                -2.568
REMARK  Name = lig_assembled_27.pdb
REMARK  16 active torsions:
REMARK  status: ('A' for Active; 'I' for Inactive)
REMARK    1  A    between atoms: _2  and  _9
REMARK    2  A    between atoms: _4  and  _18
REMARK    3  A    between atoms: _6  and  _7
REMARK    4  A    between atoms: _6  and  _18
REMARK    5  A    between atoms: _14  and  _34
REMARK    6  A    between atoms: _16  and  _22
REMARK    7  A    between atoms: _17  and  _21
REMARK    8  A    between atoms: _21  and  _22
REMARK    9  A    between atoms: _24  and  _25
REMARK   10  A    between atoms: _26  and  _27
REMARK   11  A    between atoms: _28  and  _30
REMARK   12  A    between atoms: _30  and  _31
REMARK   13  A    between atoms: _30  and  _32
REMARK   14  A    between atoms: _32  and  _33
REMARK   15  A    between atoms: _32  and  _34
REMARK   16  A    between atoms: _35  and  _37
REMARK                            x       y       z     vdW  Elec       q    Type
REMARK                         _______ _______ _______ _____ _____    ______ ____
ROOT
ATOM      1  C   UNL     1       3.404   3.695  32.356  0.00  0.00    +0.163 C 
ENDROOT
BRANCH   1   2
ATOM      2  O   UNL     1       2.563   4.028  33.472  0.00  0.00    -0.388 OA
ATOM      3  H   UNL     1       1.779   3.474  33.460  0.00  0.00    +0.210 HD
ENDBRANCH   1   2
BRANCH   1   4
ATOM      4  C   UNL     1       2.672   2.742  31.417  0.00  0.00    +0.141 C 
BRANCH   4   7
ATOM      5  C   UNL     1       1.829   3.289  29.159  0.00  0.00    +0.401 C 
ATOM      6  O   UNL     1       0.644   3.131  29.461  0.00  0.00    -0.226 OA
ATOM      7  N   UNL     1       2.843   3.122  30.009  0.00  0.00    -0.279 N 
ATOM      8  H   UNL     1       3.782   3.265  29.665  0.00  0.00    +0.152 HD
BRANCH   5   9
ATOM      9  O   UNL     1       2.161   3.669  27.821  0.00  0.00    -0.444 OA
BRANCH   9  10
ATOM     10  C   UNL     1       1.488   2.808  26.899  0.00  0.00    +0.292 C 
BRANCH  10  12
ATOM     11  N   UNL     1       2.307   4.455  25.244  0.00  0.00    -0.131 NA
ATOM     12  C   UNL     1       1.508   3.390  25.544  0.00  0.00    +0.121 A 
ATOM     13  C   UNL     1       0.806   3.024  24.420  0.00  0.00    +0.143 A 
ATOM     14  N   UNL     1       1.220   3.897  23.440  0.00  0.00    -0.220 N 
ATOM     15  N   UNL     1       2.125   4.759  23.965  0.00  0.00    -0.060 NA
BRANCH  14  16
ATOM     16  C   UNL     1       0.820   3.962  22.081  0.00  0.00    +0.068 A 
ATOM     17  C   UNL     1      -0.506   4.293  21.760  0.00  0.00    +0.028 A 
ATOM     18  C   UNL     1      -0.912   4.357  20.424  0.00  0.00    +0.003 A 
ATOM     19  C   UNL     1      -0.001   4.091  19.404  0.00  0.00    +0.020 A 
ATOM     20  C   UNL     1       1.315   3.764  19.720  0.00  0.00    +0.043 A 
ATOM     21 CL   UNL     1       2.441   3.437  18.459  0.00  0.00    -0.083 Cl
ATOM     22  C   UNL     1       1.734   3.698  21.051  0.00  0.00    +0.047 A 
ENDBRANCH  14  16
ENDBRANCH  10  12
ENDBRANCH   9  10
ENDBRANCH   5   9
ENDBRANCH   4   7
ENDBRANCH   1   4
BRANCH   1  23
ATOM     23  C   UNL     1       4.714   3.042  32.831  0.00  0.00    +0.175 C 
BRANCH  23  24
ATOM     24  C   UNL     1       5.273   3.719  34.091  0.00  0.00    +0.176 C 
ATOM     25  O   UNL     1       5.306   5.153  33.851  0.00  0.00    -0.332 OA
ATOM     26  C   UNL     1       5.716   5.977  34.992  0.00  0.00    +0.277 C 
ATOM     27  C   UNL     1       7.088   5.506  35.534  0.00  0.00    +0.110 C 
ATOM     28  C   UNL     1       7.112   3.982  35.774  0.00  0.00    +0.143 C 
ATOM     29  C   UNL     1       6.665   3.222  34.525  0.00  0.00    +0.133 C 
BRANCH  29  30
ATOM     30  N   UNL     1       6.609   1.777  34.793  0.00  0.00    -0.308 N 
ATOM     31  H   UNL     1       5.915   1.445  35.448  0.00  0.00    +0.149 HD
ATOM     32  C   UNL     1       7.416   0.874  34.228  0.00  0.00    +0.210 C 
ATOM     33  C   UNL     1       8.480   1.415  33.254  0.00  0.00    +0.109 C 
ATOM     34  O   UNL     1       7.337  -0.332  34.460  0.00  0.00    -0.276 OA
ENDBRANCH  29  30
BRANCH  26  35
ATOM     35  C   UNL     1       4.666   5.911  36.120  0.00  0.00    +0.414 C 
ATOM     36  O   UNL     1       3.507   5.581  35.870  0.00  0.00    -0.240 OA
ATOM     37  O   UNL     1       4.976   6.187  37.279  0.00  0.00    -0.240 OA
ENDBRANCH  26  35
BRANCH  28  38
ATOM     38  O   UNL     1       8.434   3.571  36.127  0.00  0.00    -0.390 OA
ATOM     39  H   UNL     1       9.068   3.994  35.543  0.00  0.00    +0.210 HD
ENDBRANCH  28  38
BRANCH  26  40
ATOM     40  O   UNL     1       5.852   7.346  34.531  0.00  0.00    -0.343 OA
ATOM     41  C   UNL     1       7.214   7.840  34.473  0.00  0.00    +0.198 C 
ENDBRANCH  26  40
ENDBRANCH  23  24
BRANCH  23  42
ATOM     42  O   UNL     1       5.694   3.071  31.774  0.00  0.00    -0.387 OA
ATOM     43  H   UNL     1       5.285   3.389  30.966  0.00  0.00    +0.210 HD
ENDBRANCH  23  42
ENDBRANCH   1  23
TORSDOF 14
