REMARK VINA RESULT:    -6.545      2.210      4.357
REMARK INTER + INTRA:         -13.359
REMARK INTER:                 -11.618
REMARK INTRA:                  -1.741
REMARK UNBOUND:                -2.031
REMARK  Name = lig_assembled_42.pdb
REMARK  16 active torsions:
REMARK  status: ('A' for Active; 'I' for Inactive)
REMARK    1  A    between atoms: _2  and  _9
REMARK    2  A    between atoms: _4  and  _21
REMARK    3  A    between atoms: _6  and  _7
REMARK    4  A    between atoms: _6  and  _21
REMARK    5  A    between atoms: _17  and  _37
REMARK    6  A    between atoms: _19  and  _25
REMARK    7  A    between atoms: _20  and  _24
REMARK    8  A    between atoms: _24  and  _25
REMARK    9  A    between atoms: _27  and  _28
REMARK   10  A    between atoms: _29  and  _30
REMARK   11  A    between atoms: _31  and  _33
REMARK   12  A    between atoms: _33  and  _34
REMARK   13  A    between atoms: _33  and  _35
REMARK   14  A    between atoms: _35  and  _36
REMARK   15  A    between atoms: _35  and  _37
REMARK   16  A    between atoms: _38  and  _40
REMARK                            x       y       z     vdW  Elec       q    Type
REMARK                         _______ _______ _______ _____ _____    ______ ____
ROOT
ATOM      1  C   UNL     1       6.142   3.139  34.248  0.00  0.00    +0.163 C 
ENDROOT
BRANCH   1   2
ATOM      2  O   UNL     1       5.870   1.740  34.062  0.00  0.00    -0.388 OA
ATOM      3  H   UNL     1       5.062   1.635  33.555  0.00  0.00    +0.210 HD
ENDBRANCH   1   2
BRANCH   1   4
ATOM      4  C   UNL     1       5.079   3.975  33.543  0.00  0.00    +0.141 C 
BRANCH   4   7
ATOM      5  C   UNL     1       3.329   3.395  31.898  0.00  0.00    +0.401 C 
ATOM      6  O   UNL     1       2.436   4.004  32.492  0.00  0.00    -0.226 OA
ATOM      7  N   UNL     1       4.591   3.323  32.321  0.00  0.00    -0.279 N 
ATOM      8  H   UNL     1       5.250   2.791  31.770  0.00  0.00    +0.152 HD
BRANCH   5   9
ATOM      9  O   UNL     1       3.013   2.713  30.682  0.00  0.00    -0.444 OA
BRANCH   9  10
ATOM     10  C   UNL     1       1.593   2.611  30.546  0.00  0.00    +0.292 C 
BRANCH  10  12
ATOM     11  N   UNL     1       0.058   3.913  29.096  0.00  0.00    -0.131 NA
ATOM     12  C   UNL     1       1.160   3.121  29.231  0.00  0.00    +0.121 A 
ATOM     13  C   UNL     1       1.722   2.920  27.993  0.00  0.00    +0.143 A 
ATOM     14  N   UNL     1       0.923   3.617  27.119  0.00  0.00    -0.220 N 
ATOM     15  N   UNL     1      -0.081   4.212  27.809  0.00  0.00    -0.060 NA
BRANCH  14  16
ATOM     16  C   UNL     1       1.057   3.739  25.713  0.00  0.00    +0.071 A 
ATOM     17  C   UNL     1       0.238   4.630  25.004  0.00  0.00    +0.077 A 
ATOM     18  C   UNL     1       0.407   4.713  23.638  0.00  0.00    +0.168 A 
ATOM     19  O   UNL     1      -0.300   5.525  22.810  0.00  0.00    -0.453 OA
ATOM     20  C   UNL     1       0.299   5.200  21.539  0.00  0.00    +0.466 C 
ATOM     21  O   UNL     1       1.338   4.201  21.634  0.00  0.00    -0.453 OA
ATOM     22  C   UNL     1       1.342   3.959  22.971  0.00  0.00    +0.166 A 
ATOM     23  C   UNL     1       2.163   3.072  23.634  0.00  0.00    +0.051 A 
ATOM     24  C   UNL     1       2.019   2.961  25.024  0.00  0.00    +0.031 A 
ENDBRANCH  14  16
ENDBRANCH  10  12
ENDBRANCH   9  10
ENDBRANCH   5   9
ENDBRANCH   4   7
ENDBRANCH   1   4
BRANCH   1  25
ATOM     25  C   UNL     1       7.532   3.506  33.699  0.00  0.00    +0.175 C 
BRANCH  25  26
ATOM     26  C   UNL     1       8.536   3.803  34.821  0.00  0.00    +0.176 C 
ATOM     27  O   UNL     1       8.905   2.539  35.438  0.00  0.00    -0.332 OA
ATOM     28  C   UNL     1       9.944   2.615  36.469  0.00  0.00    +0.277 C 
ATOM     29  C   UNL     1       9.546   3.635  37.564  0.00  0.00    +0.110 C 
ATOM     30  C   UNL     1       9.115   4.986  36.955  0.00  0.00    +0.143 C 
ATOM     31  C   UNL     1       8.033   4.788  35.893  0.00  0.00    +0.133 C 
BRANCH  31  32
ATOM     32  N   UNL     1       7.693   6.072  35.259  0.00  0.00    -0.308 N 
ATOM     33  H   UNL     1       8.370   6.482  34.631  0.00  0.00    +0.149 HD
ATOM     34  C   UNL     1       6.549   6.731  35.460  0.00  0.00    +0.210 C 
ATOM     35  C   UNL     1       5.549   6.093  36.443  0.00  0.00    +0.109 C 
ATOM     36  O   UNL     1       6.285   7.798  34.904  0.00  0.00    -0.276 OA
ENDBRANCH  31  32
BRANCH  28  37
ATOM     37  C   UNL     1      11.298   3.025  35.852  0.00  0.00    +0.414 C 
ATOM     38  O   UNL     1      11.643   2.576  34.759  0.00  0.00    -0.240 OA
ATOM     39  O   UNL     1      12.045   3.803  36.446  0.00  0.00    -0.240 OA
ENDBRANCH  28  37
BRANCH  30  40
ATOM     40  O   UNL     1       8.614   5.840  37.984  0.00  0.00    -0.390 OA
ATOM     41  H   UNL     1       7.669   5.966  37.865  0.00  0.00    +0.210 HD
ENDBRANCH  30  40
BRANCH  28  42
ATOM     42  O   UNL     1      10.064   1.307  37.084  0.00  0.00    -0.343 OA
ATOM     43  C   UNL     1       9.467   0.220  36.332  0.00  0.00    +0.198 C 
ENDBRANCH  28  42
ENDBRANCH  25  26
BRANCH  25  44
ATOM     44  O   UNL     1       7.431   4.637  32.810  0.00  0.00    -0.387 OA
ATOM     45  H   UNL     1       7.312   4.326  31.909  0.00  0.00    +0.210 HD
ENDBRANCH  25  44
ENDBRANCH   1  25
TORSDOF 14
