REMARK VINA RESULT:    -5.207     24.986     28.079
REMARK INTER + INTRA:         -12.507
REMARK INTER:                 -10.330
REMARK INTRA:                  -2.177
REMARK UNBOUND:                -3.800
REMARK  Name = lig_assembled_65.pdb
REMARK  16 active torsions:
REMARK  status: ('A' for Active; 'I' for Inactive)
REMARK    1  A    between atoms: _8  and  _20
REMARK    2  A    between atoms: _9  and  _15
REMARK    3  A    between atoms: _10  and  _11
REMARK    4  A    between atoms: _10  and  _20
REMARK    5  A    between atoms: _16  and  _36
REMARK    6  A    between atoms: _18  and  _24
REMARK    7  A    between atoms: _19  and  _23
REMARK    8  A    between atoms: _23  and  _24
REMARK    9  A    between atoms: _26  and  _27
REMARK   10  A    between atoms: _28  and  _29
REMARK   11  A    between atoms: _30  and  _32
REMARK   12  A    between atoms: _32  and  _33
REMARK   13  A    between atoms: _32  and  _34
REMARK   14  A    between atoms: _34  and  _35
REMARK   15  A    between atoms: _34  and  _36
REMARK   16  A    between atoms: _37  and  _39
REMARK                            x       y       z     vdW  Elec       q    Type
REMARK                         _______ _______ _______ _____ _____    ______ ____
ROOT
ATOM      1  C   UNL     1       2.527  16.342   8.556  0.00  0.00    +0.163 C 
ENDROOT
BRANCH   1   2
ATOM      2  O   UNL     1       2.026  15.929   7.274  0.00  0.00    -0.388 OA
ATOM      3  H   UNL     1       2.482  16.412   6.581  0.00  0.00    +0.210 HD
ENDBRANCH   1   2
BRANCH   1   4
ATOM      4  C   UNL     1       3.934  16.910   8.408  0.00  0.00    +0.141 C 
BRANCH   4   7
ATOM      5  C   UNL     1       5.113  17.099   6.244  0.00  0.00    +0.401 C 
ATOM      6  O   UNL     1       5.019  18.327   6.193  0.00  0.00    -0.226 OA
ATOM      7  N   UNL     1       4.629  16.355   7.240  0.00  0.00    -0.279 N 
ATOM      8  H   UNL     1       4.747  15.353   7.187  0.00  0.00    +0.152 HD
BRANCH   5   9
ATOM      9  O   UNL     1       5.772  16.408   5.180  0.00  0.00    -0.444 OA
BRANCH   9  10
ATOM     10  C   UNL     1       4.797  15.844   4.299  0.00  0.00    +0.292 C 
BRANCH  10  12
ATOM     11  N   UNL     1       3.423  14.040   5.295  0.00  0.00    -0.131 NA
ATOM     12  C   UNL     1       4.557  14.428   4.634  0.00  0.00    +0.121 A 
ATOM     13  C   UNL     1       5.332  13.320   4.385  0.00  0.00    +0.149 A 
ATOM     14  N   UNL     1       4.628  12.265   4.926  0.00  0.00    -0.155 N 
ATOM     15  C   UNL     1       5.014  10.893   4.946  0.00  0.00    +0.416 C 
ATOM     16  N   UNL     1       4.193  10.004   5.517  0.00  0.00    +0.041 NA
ATOM     17  C   UNL     1       4.630   8.747   5.512  0.00  0.00    +0.339 C 
ATOM     18  C   UNL     1       3.762   7.708   6.149  0.00  0.00    +0.149 C 
ATOM     19  N   UNL     1       5.792   8.353   4.990  0.00  0.00    +0.007 NA
ATOM     20  C   UNL     1       6.535   9.312   4.462  0.00  0.00    +0.386 C 
ATOM     21  N   UNL     1       7.751   8.949   3.921  0.00  0.00    -0.296 N 
ATOM     22  H   UNL     1       7.755   7.967   3.680  0.00  0.00    +0.148 HD
ATOM     23  H   UNL     1       8.049   9.605   3.214  0.00  0.00    +0.148 HD
ATOM     24  N   UNL     1       6.196  10.587   4.390  0.00  0.00    -0.290 NA
ATOM     25  N   UNL     1       3.470  12.724   5.466  0.00  0.00    -0.055 NA
ENDBRANCH  10  12
ENDBRANCH   9  10
ENDBRANCH   5   9
ENDBRANCH   4   7
ENDBRANCH   1   4
BRANCH   1  26
ATOM     26  C   UNL     1       2.550  15.162   9.543  0.00  0.00    +0.175 C 
BRANCH  26  27
ATOM     27  C   UNL     1       1.306  15.139  10.444  0.00  0.00    +0.176 C 
ATOM     28  O   UNL     1       0.165  14.773   9.622  0.00  0.00    -0.332 OA
ATOM     29  C   UNL     1      -1.102  14.596  10.338  0.00  0.00    +0.277 C 
ATOM     30  C   UNL     1      -1.437  15.862  11.165  0.00  0.00    +0.110 C 
ATOM     31  C   UNL     1      -0.242  16.308  12.033  0.00  0.00    +0.143 C 
ATOM     32  C   UNL     1       1.024  16.458  11.188  0.00  0.00    +0.133 C 
BRANCH  32  33
ATOM     33  N   UNL     1       2.175  16.798  12.039  0.00  0.00    -0.308 N 
ATOM     34  H   UNL     1       2.527  16.086  12.663  0.00  0.00    +0.149 HD
ATOM     35  C   UNL     1       2.783  17.987  12.042  0.00  0.00    +0.210 C 
ATOM     36  C   UNL     1       2.206  19.060  11.099  0.00  0.00    +0.109 C 
ATOM     37  O   UNL     1       3.755  18.239  12.755  0.00  0.00    -0.276 OA
ENDBRANCH  32  33
BRANCH  29  38
ATOM     38  C   UNL     1      -1.035  13.371  11.273  0.00  0.00    +0.414 C 
ATOM     39  O   UNL     1      -1.186  13.509  12.487  0.00  0.00    -0.240 OA
ATOM     40  O   UNL     1      -0.831  12.246  10.815  0.00  0.00    -0.240 OA
ENDBRANCH  29  38
BRANCH  29  41
ATOM     41  O   UNL     1      -2.151  14.402   9.354  0.00  0.00    -0.343 OA
ATOM     42  C   UNL     1      -1.706  14.420   7.974  0.00  0.00    +0.198 C 
ENDBRANCH  29  41
BRANCH  31  43
ATOM     43  O   UNL     1      -0.540  17.556  12.659  0.00  0.00    -0.390 OA
ATOM     44  H   UNL     1      -1.412  17.515  13.057  0.00  0.00    +0.210 HD
ENDBRANCH  31  43
ENDBRANCH  26  27
BRANCH  26  45
ATOM     45  O   UNL     1       3.745  15.211  10.347  0.00  0.00    -0.387 OA
ATOM     46  H   UNL     1       4.095  16.105  10.348  0.00  0.00    +0.210 HD
ENDBRANCH  26  45
ENDBRANCH   1  26
TORSDOF 13
