REMARK VINA RESULT:    -7.041      4.873      6.914
REMARK INTER + INTRA:         -14.015
REMARK INTER:                 -11.351
REMARK INTRA:                  -2.664
REMARK UNBOUND:                -1.828
REMARK  Name = lig_assembled_70.pdb
REMARK  16 active torsions:
REMARK  status: ('A' for Active; 'I' for Inactive)
REMARK    1  A    between atoms: _2  and  _10
REMARK    2  A    between atoms: _5  and  _22
REMARK    3  A    between atoms: _7  and  _8
REMARK    4  A    between atoms: _7  and  _22
REMARK    5  A    between atoms: _18  and  _38
REMARK    6  A    between atoms: _20  and  _26
REMARK    7  A    between atoms: _21  and  _25
REMARK    8  A    between atoms: _25  and  _26
REMARK    9  A    between atoms: _28  and  _29
REMARK   10  A    between atoms: _30  and  _31
REMARK   11  A    between atoms: _32  and  _34
REMARK   12  A    between atoms: _34  and  _35
REMARK   13  A    between atoms: _34  and  _36
REMARK   14  A    between atoms: _36  and  _37
REMARK   15  A    between atoms: _36  and  _38
REMARK   16  A    between atoms: _39  and  _41
REMARK                            x       y       z     vdW  Elec       q    Type
REMARK                         _______ _______ _______ _____ _____    ______ ____
ROOT
ATOM      1  C   UNL     1       8.042   2.193  36.051  0.00  0.00    +0.163 C 
ENDROOT
BRANCH   1   2
ATOM      2  O   UNL     1       7.735   2.658  37.376  0.00  0.00    -0.388 OA
ATOM      3  H   UNL     1       6.899   3.131  37.364  0.00  0.00    +0.210 HD
ENDBRANCH   1   2
BRANCH   1   4
ATOM      4  C   UNL     1       9.047   1.048  36.119  0.00  0.00    +0.141 C 
BRANCH   4   7
ATOM      5  C   UNL     1       8.005  -1.182  35.908  0.00  0.00    +0.401 C 
ATOM      6  O   UNL     1       7.784  -1.297  37.116  0.00  0.00    -0.226 OA
ATOM      7  N   UNL     1       8.596  -0.122  35.356  0.00  0.00    -0.279 N 
ATOM      8  H   UNL     1       8.742  -0.124  34.356  0.00  0.00    +0.152 HD
BRANCH   5   9
ATOM      9  O   UNL     1       7.615  -2.239  35.027  0.00  0.00    -0.444 OA
BRANCH   9  10
ATOM     10  C   UNL     1       6.420  -1.867  34.334  0.00  0.00    +0.292 C 
BRANCH  10  12
ATOM     11  N   UNL     1       7.902  -1.266  32.440  0.00  0.00    -0.131 NA
ATOM     12  C   UNL     1       6.690  -1.701  32.894  0.00  0.00    +0.121 A 
ATOM     13  C   UNL     1       5.864  -1.927  31.818  0.00  0.00    +0.143 A 
ATOM     14  N   UNL     1       6.626  -1.626  30.713  0.00  0.00    -0.218 N 
ATOM     15  N   UNL     1       7.852  -1.216  31.114  0.00  0.00    -0.060 NA
BRANCH  14  16
ATOM     16  C   UNL     1       6.273  -1.726  29.352  0.00  0.00    +0.086 A 
ATOM     17  C   UNL     1       4.995  -1.396  28.931  0.00  0.00    +0.139 A 
ATOM     18  N   UNL     1       4.601  -1.425  27.632  0.00  0.00    -0.253 NA
ATOM     19  C   UNL     1       5.502  -1.786  26.700  0.00  0.00    +0.071 A 
ATOM     20  C   UNL     1       6.822  -2.154  27.036  0.00  0.00    +0.002 A 
ATOM     21  C   UNL     1       7.737  -2.524  26.035  0.00  0.00    +0.010 A 
ATOM     22  C   UNL     1       7.356  -2.512  24.696  0.00  0.00    +0.001 A 
ATOM     23  C   UNL     1       6.059  -2.142  24.357  0.00  0.00    +0.002 A 
ATOM     24  C   UNL     1       5.147  -1.791  25.357  0.00  0.00    +0.028 A 
ATOM     25  C   UNL     1       7.196  -2.127  28.385  0.00  0.00    +0.039 A 
ENDBRANCH  14  16
ENDBRANCH  10  12
ENDBRANCH   9  10
ENDBRANCH   5   9
ENDBRANCH   4   7
ENDBRANCH   1   4
BRANCH   1  26
ATOM     26  C   UNL     1       8.617   3.331  35.189  0.00  0.00    +0.175 C 
BRANCH  26  27
ATOM     27  C   UNL     1       7.603   4.464  34.977  0.00  0.00    +0.176 C 
ATOM     28  O   UNL     1       7.441   5.162  36.242  0.00  0.00    -0.332 OA
ATOM     29  C   UNL     1       6.582   6.350  36.206  0.00  0.00    +0.277 C 
ATOM     30  C   UNL     1       5.193   5.996  35.622  0.00  0.00    +0.110 C 
ATOM     31  C   UNL     1       5.314   5.225  34.291  0.00  0.00    +0.143 C 
ATOM     32  C   UNL     1       6.232   4.011  34.442  0.00  0.00    +0.133 C 
BRANCH  32  33
ATOM     33  N   UNL     1       6.409   3.334  33.147  0.00  0.00    -0.308 N 
ATOM     34  H   UNL     1       6.967   3.799  32.445  0.00  0.00    +0.149 HD
ATOM     35  C   UNL     1       5.880   2.147  32.840  0.00  0.00    +0.210 C 
ATOM     36  C   UNL     1       5.014   1.476  33.922  0.00  0.00    +0.109 C 
ATOM     37  O   UNL     1       6.058   1.597  31.752  0.00  0.00    -0.276 OA
ENDBRANCH  32  33
BRANCH  29  38
ATOM     38  C   UNL     1       7.229   7.466  35.359  0.00  0.00    +0.414 C 
ATOM     39  O   UNL     1       8.424   7.729  35.488  0.00  0.00    -0.240 OA
ATOM     40  O   UNL     1       6.556   8.102  34.547  0.00  0.00    -0.240 OA
ENDBRANCH  29  38
BRANCH  31  41
ATOM     41  O   UNL     1       4.022   4.788  33.867  0.00  0.00    -0.390 OA
ATOM     42  H   UNL     1       3.657   5.422  33.246  0.00  0.00    +0.210 HD
ENDBRANCH  31  41
BRANCH  29  43
ATOM     43  O   UNL     1       6.401   6.814  37.569  0.00  0.00    -0.343 OA
ATOM     44  C   UNL     1       5.232   6.286  38.245  0.00  0.00    +0.198 C 
ENDBRANCH  29  43
ENDBRANCH  26  27
BRANCH  26  45
ATOM     45  O   UNL     1       9.059   2.815  33.917  0.00  0.00    -0.387 OA
ATOM     46  H   UNL     1       8.875   3.459  33.229  0.00  0.00    +0.210 HD
ENDBRANCH  26  45
ENDBRANCH   1  26
TORSDOF 14
