REMARK VINA RESULT:    -5.889     11.528     15.364
REMARK INTER + INTRA:         -12.832
REMARK INTER:                 -10.858
REMARK INTRA:                  -1.975
REMARK UNBOUND:                -2.296
REMARK  Name = lig_assembled_63.pdb
REMARK  17 active torsions:
REMARK  status: ('A' for Active; 'I' for Inactive)
REMARK    1  A    between atoms: _2  and  _11
REMARK    2  A    between atoms: _6  and  _20
REMARK    3  A    between atoms: _7  and  _15
REMARK    4  A    between atoms: _8  and  _9
REMARK    5  A    between atoms: _8  and  _20
REMARK    6  A    between atoms: _16  and  _36
REMARK    7  A    between atoms: _18  and  _24
REMARK    8  A    between atoms: _19  and  _23
REMARK    9  A    between atoms: _23  and  _24
REMARK   10  A    between atoms: _26  and  _27
REMARK   11  A    between atoms: _28  and  _29
REMARK   12  A    between atoms: _30  and  _32
REMARK   13  A    between atoms: _32  and  _33
REMARK   14  A    between atoms: _32  and  _34
REMARK   15  A    between atoms: _34  and  _35
REMARK   16  A    between atoms: _34  and  _36
REMARK   17  A    between atoms: _37  and  _39
REMARK                            x       y       z     vdW  Elec       q    Type
REMARK                         _______ _______ _______ _____ _____    ______ ____
ROOT
ATOM      1  C   UNL     1       9.929   3.073  34.782  0.00  0.00    +0.163 C 
ENDROOT
BRANCH   1   2
ATOM      2  O   UNL     1       9.641   2.104  33.761  0.00  0.00    -0.388 OA
ATOM      3  H   UNL     1       8.699   1.915  33.755  0.00  0.00    +0.210 HD
ENDBRANCH   1   2
BRANCH   1   4
ATOM      4  C   UNL     1      11.155   2.642  35.580  0.00  0.00    +0.141 C 
BRANCH   4   7
ATOM      5  C   UNL     1      12.505   4.056  37.091  0.00  0.00    +0.401 C 
ATOM      6  O   UNL     1      12.224   3.408  38.102  0.00  0.00    -0.226 OA
ATOM      7  N   UNL     1      12.044   3.773  35.872  0.00  0.00    -0.279 N 
ATOM      8  H   UNL     1      12.323   4.369  35.106  0.00  0.00    +0.152 HD
BRANCH   5   9
ATOM      9  O   UNL     1      13.371   5.188  37.210  0.00  0.00    -0.444 OA
BRANCH   9  10
ATOM     10  C   UNL     1      14.665   4.855  36.700  0.00  0.00    +0.292 C 
BRANCH  10  12
ATOM     11  N   UNL     1      14.828   5.085  34.245  0.00  0.00    -0.131 NA
ATOM     12  C   UNL     1      14.957   5.639  35.486  0.00  0.00    +0.121 A 
ATOM     13  C   UNL     1      15.389   6.937  35.352  0.00  0.00    +0.145 A 
ATOM     14  N   UNL     1      15.547   7.122  33.993  0.00  0.00    -0.200 N 
ATOM     15  N   UNL     1      15.180   5.994  33.347  0.00  0.00    -0.059 NA
BRANCH  14  16
ATOM     16  C   UNL     1      16.071   8.283  33.351  0.00  0.00    +0.173 A 
ATOM     17  C   UNL     1      17.243   8.253  32.591  0.00  0.00    +0.096 A 
ATOM     18  C   UNL     1      17.722   9.474  32.085  0.00  0.00    +0.024 A 
ATOM     19  C   UNL     1      17.029  10.658  32.318  0.00  0.00    +0.021 A 
ATOM     20  C   UNL     1      15.859  10.591  33.047  0.00  0.00    +0.113 A 
ATOM     21  N   UNL     1      15.372   9.443  33.566  0.00  0.00    -0.235 NA
BRANCH  17  22
ATOM     22  C   UNL     1      17.994   7.077  32.264  0.00  0.00    +0.103 C 
ATOM     23  N   UNL     1      18.629   6.173  31.907  0.00  0.00    -0.191 NA
ENDBRANCH  17  22
ENDBRANCH  14  16
ENDBRANCH  10  12
ENDBRANCH   9  10
ENDBRANCH   5   9
ENDBRANCH   4   7
ENDBRANCH   1   4
BRANCH   1  24
ATOM     24  C   UNL     1       8.732   3.245  35.732  0.00  0.00    +0.175 C 
BRANCH  24  25
ATOM     25  C   UNL     1       7.871   4.463  35.364  0.00  0.00    +0.176 C 
ATOM     26  O   UNL     1       7.617   5.215  36.583  0.00  0.00    -0.332 OA
ATOM     27  C   UNL     1       6.893   6.478  36.409  0.00  0.00    +0.277 C 
ATOM     28  C   UNL     1       5.563   6.239  35.653  0.00  0.00    +0.110 C 
ATOM     29  C   UNL     1       5.779   5.416  34.365  0.00  0.00    +0.143 C 
ATOM     30  C   UNL     1       6.543   4.125  34.662  0.00  0.00    +0.133 C 
BRANCH  30  31
ATOM     31  N   UNL     1       6.819   3.392  33.416  0.00  0.00    -0.308 N 
ATOM     32  H   UNL     1       7.435   3.823  32.741  0.00  0.00    +0.149 HD
ATOM     33  C   UNL     1       6.308   2.194  33.119  0.00  0.00    +0.210 C 
ATOM     34  C   UNL     1       5.352   1.576  34.156  0.00  0.00    +0.109 C 
ATOM     35  O   UNL     1       6.568   1.597  32.074  0.00  0.00    -0.276 OA
ENDBRANCH  30  31
BRANCH  27  36
ATOM     36  C   UNL     1       7.752   7.497  35.632  0.00  0.00    +0.414 C 
ATOM     37  O   UNL     1       7.261   8.146  34.709  0.00  0.00    -0.240 OA
ATOM     38  O   UNL     1       8.934   7.672  35.929  0.00  0.00    -0.240 OA
ENDBRANCH  27  36
BRANCH  27  39
ATOM     39  O   UNL     1       6.583   7.002  37.725  0.00  0.00    -0.343 OA
ATOM     40  C   UNL     1       5.621   6.226  38.483  0.00  0.00    +0.198 C 
ENDBRANCH  27  39
BRANCH  29  41
ATOM     41  O   UNL     1       4.516   5.091  33.783  0.00  0.00    -0.390 OA
ATOM     42  H   UNL     1       4.530   4.184  33.471  0.00  0.00    +0.210 HD
ENDBRANCH  29  41
ENDBRANCH  24  25
BRANCH  24  43
ATOM     43  O   UNL     1       9.190   3.354  37.095  0.00  0.00    -0.387 OA
ATOM     44  H   UNL     1       8.880   2.598  37.599  0.00  0.00    +0.210 HD
ENDBRANCH  24  43
ENDBRANCH   1  24
TORSDOF 15
