REMARK VINA RESULT:    -6.836     13.306     19.967
REMARK INTER + INTRA:         -15.330
REMARK INTER:                 -13.020
REMARK INTRA:                  -2.310
REMARK UNBOUND:                -2.499
REMARK  Name = lig_assembled_64.pdb
REMARK  19 active torsions:
REMARK  status: ('A' for Active; 'I' for Inactive)
REMARK    1  A    between atoms: _2  and  _10
REMARK    2  A    between atoms: _5  and  _27
REMARK    3  A    between atoms: _7  and  _8
REMARK    4  A    between atoms: _7  and  _27
REMARK    5  A    between atoms: _12  and  _13
REMARK    6  A    between atoms: _13  and  _21
REMARK    7  A    between atoms: _14  and  _15
REMARK    8  A    between atoms: _23  and  _43
REMARK    9  A    between atoms: _25  and  _31
REMARK   10  A    between atoms: _26  and  _30
REMARK   11  A    between atoms: _30  and  _31
REMARK   12  A    between atoms: _33  and  _34
REMARK   13  A    between atoms: _35  and  _36
REMARK   14  A    between atoms: _37  and  _39
REMARK   15  A    between atoms: _39  and  _40
REMARK   16  A    between atoms: _39  and  _41
REMARK   17  A    between atoms: _41  and  _42
REMARK   18  A    between atoms: _41  and  _43
REMARK   19  A    between atoms: _44  and  _46
REMARK                            x       y       z     vdW  Elec       q    Type
REMARK                         _______ _______ _______ _____ _____    ______ ____
ROOT
ATOM      1  C   UNL     1       4.312  -2.687  14.071  0.00  0.00    +0.401 C 
ATOM      2  O   UNL     1       3.967  -3.869  14.138  0.00  0.00    -0.226 OA
ATOM      3  N   UNL     1       5.287  -2.239  13.279  0.00  0.00    -0.279 N 
ATOM      4  H   UNL     1       5.491  -1.249  13.287  0.00  0.00    +0.152 HD
ENDROOT
BRANCH   3   5
ATOM      5  C   UNL     1       6.082  -3.102  12.397  0.00  0.00    +0.141 C 
BRANCH   5   6
ATOM      6  C   UNL     1       6.140  -2.560  10.973  0.00  0.00    +0.163 C 
BRANCH   6   7
ATOM      7  O   UNL     1       5.009  -3.029  10.221  0.00  0.00    -0.388 OA
ATOM      8  H   UNL     1       4.640  -3.806  10.648  0.00  0.00    +0.210 HD
ENDBRANCH   6   7
BRANCH   6   9
ATOM      9  C   UNL     1       6.177  -1.022  11.010  0.00  0.00    +0.175 C 
BRANCH   9  10
ATOM     10  C   UNL     1       5.974  -0.406   9.618  0.00  0.00    +0.176 C 
ATOM     11  O   UNL     1       4.585  -0.608   9.237  0.00  0.00    -0.332 OA
ATOM     12  C   UNL     1       4.178   0.012   7.973  0.00  0.00    +0.277 C 
ATOM     13  C   UNL     1       5.107  -0.445   6.822  0.00  0.00    +0.110 C 
ATOM     14  C   UNL     1       6.596  -0.279   7.193  0.00  0.00    +0.143 C 
ATOM     15  C   UNL     1       6.909  -0.959   8.526  0.00  0.00    +0.133 C 
BRANCH  15  16
ATOM     16  N   UNL     1       8.309  -0.719   8.910  0.00  0.00    -0.308 N 
ATOM     17  H   UNL     1       8.570   0.219   9.180  0.00  0.00    +0.149 HD
ATOM     18  C   UNL     1       9.257  -1.661   8.926  0.00  0.00    +0.210 C 
ATOM     19  C   UNL     1       8.832  -3.074   8.485  0.00  0.00    +0.109 C 
ATOM     20  O   UNL     1      10.418  -1.434   9.267  0.00  0.00    -0.276 OA
ENDBRANCH  15  16
BRANCH  12  21
ATOM     21  C   UNL     1       4.211   1.550   8.082  0.00  0.00    +0.414 C 
ATOM     22  O   UNL     1       4.720   2.225   7.189  0.00  0.00    -0.240 OA
ATOM     23  O   UNL     1       3.727   2.117   9.064  0.00  0.00    -0.240 OA
ENDBRANCH  12  21
BRANCH  12  24
ATOM     24  O   UNL     1       2.828  -0.428   7.672  0.00  0.00    -0.343 OA
ATOM     25  C   UNL     1       2.479  -1.735   8.194  0.00  0.00    +0.198 C 
ENDBRANCH  12  24
BRANCH  14  26
ATOM     26  O   UNL     1       7.414  -0.850   6.170  0.00  0.00    -0.390 OA
ATOM     27  H   UNL     1       8.323  -0.895   6.474  0.00  0.00    +0.210 HD
ENDBRANCH  14  26
ENDBRANCH   9  10
BRANCH   9  28
ATOM     28  O   UNL     1       7.422  -0.569  11.577  0.00  0.00    -0.387 OA
ATOM     29  H   UNL     1       7.838   0.056  10.978  0.00  0.00    +0.210 HD
ENDBRANCH   9  28
ENDBRANCH   6   9
ENDBRANCH   5   6
ENDBRANCH   3   5
BRANCH   1  30
ATOM     30  O   UNL     1       3.637  -1.720  14.879  0.00  0.00    -0.444 OA
BRANCH  30  31
ATOM     31  C   UNL     1       4.143  -0.415  14.586  0.00  0.00    +0.292 C 
BRANCH  31  33
ATOM     32  N   UNL     1       4.872   0.917  16.549  0.00  0.00    -0.131 NA
ATOM     33  C   UNL     1       3.878   0.507  15.707  0.00  0.00    +0.121 A 
ATOM     34  C   UNL     1       2.693   1.086  16.097  0.00  0.00    +0.143 A 
ATOM     35  N   UNL     1       3.014   1.844  17.198  0.00  0.00    -0.220 N 
ATOM     36  N   UNL     1       4.339   1.732  17.451  0.00  0.00    -0.060 NA
BRANCH  35  37
ATOM     37  C   UNL     1       2.159   2.646  17.993  0.00  0.00    +0.071 A 
ATOM     38  C   UNL     1       1.124   3.365  17.406  0.00  0.00    +0.063 A 
ATOM     39  CA  UNL     1       0.327   4.128  18.237  0.00  0.00    +0.150 A 
ATOM     40  N   UNL     1       0.483   4.233  19.587  0.00  0.00    -0.240 NA
ATOM     41  C   UNL     1       1.507   3.537  20.152  0.00  0.00    +0.074 A 
ATOM     42  C   UNL     1       2.349   2.728  19.382  0.00  0.00    +0.056 A 
BRANCH  41  43
ATOM     43  C   UNL     1       1.675   3.718  21.614  0.00  0.00    +0.000 A 
ATOM     44  C   UNL     1       1.933   2.636  22.477  0.00  0.00    +0.010 A 
ATOM     45  C   UNL     1       2.127   2.825  23.851  0.00  0.00    +0.001 A 
ATOM     46  C   UNL     1       2.068   4.103  24.397  0.00  0.00    +0.000 A 
ATOM     47  C   UNL     1       1.807   5.191  23.571  0.00  0.00    +0.001 A 
ATOM     48  C   UNL     1       1.612   4.999  22.198  0.00  0.00    +0.010 A 
ENDBRANCH  41  43
BRANCH  39  49
ATOM     49  C   UNL     1      -0.795   4.917  17.650  0.00  0.00    +0.355 C 
ATOM     50  OXT UNL     1      -1.878   5.078  18.182  0.00  0.00    -0.243 OA
BRANCH  49  51
ATOM     51  O   UNL     1      -0.444   5.425  16.446  0.00  0.00    -0.476 OA
ATOM     52  H   UNL     1      -1.137   6.062  16.153  0.00  0.00    +0.295 HD
ENDBRANCH  49  51
ENDBRANCH  39  49
ENDBRANCH  35  37
ENDBRANCH  31  33
ENDBRANCH  30  31
ENDBRANCH   1  30
TORSDOF 17
