REMARK VINA RESULT:    -6.683     10.549     13.800
REMARK INTER + INTRA:         -13.988
REMARK INTER:                 -11.304
REMARK INTRA:                  -2.683
REMARK UNBOUND:                -1.444
REMARK  Name = lig_assembled_16.pdb
REMARK  19 active torsions:
REMARK  status: ('A' for Active; 'I' for Inactive)
REMARK    1  A    between atoms: _2  and  _9
REMARK    2  A    between atoms: _4  and  _22
REMARK    3  A    between atoms: _6  and  _7
REMARK    4  A    between atoms: _6  and  _22
REMARK    5  A    between atoms: _9  and  _10
REMARK    6  A    between atoms: _13  and  _14
REMARK    7  A    between atoms: _14  and  _16
REMARK    8  A    between atoms: _18  and  _38
REMARK    9  A    between atoms: _20  and  _26
REMARK   10  A    between atoms: _21  and  _25
REMARK   11  A    between atoms: _25  and  _26
REMARK   12  A    between atoms: _28  and  _29
REMARK   13  A    between atoms: _30  and  _31
REMARK   14  A    between atoms: _32  and  _34
REMARK   15  A    between atoms: _34  and  _35
REMARK   16  A    between atoms: _34  and  _36
REMARK   17  A    between atoms: _36  and  _37
REMARK   18  A    between atoms: _36  and  _38
REMARK   19  A    between atoms: _39  and  _41
REMARK                            x       y       z     vdW  Elec       q    Type
REMARK                         _______ _______ _______ _____ _____    ______ ____
ROOT
ATOM      1  C   UNL     1      17.126   1.683  26.698  0.00  0.00    +0.163 C 
ENDROOT
BRANCH   1   2
ATOM      2  O   UNL     1      17.390   2.855  25.910  0.00  0.00    -0.388 OA
ATOM      3  H   UNL     1      16.738   2.922  25.208  0.00  0.00    +0.210 HD
ENDBRANCH   1   2
BRANCH   1   4
ATOM      4  C   UNL     1      16.671   0.512  25.809  0.00  0.00    +0.175 C 
BRANCH   4   5
ATOM      5  C   UNL     1      17.572   0.339  24.578  0.00  0.00    +0.176 C 
ATOM      6  O   UNL     1      17.244   1.393  23.631  0.00  0.00    -0.332 OA
ATOM      7  C   UNL     1      18.082   1.450  22.430  0.00  0.00    +0.277 C 
ATOM      8  C   UNL     1      18.086   0.081  21.707  0.00  0.00    +0.110 C 
ATOM      9  C   UNL     1      18.400  -1.076  22.680  0.00  0.00    +0.143 C 
ATOM     10  C   UNL     1      17.471  -1.038  23.894  0.00  0.00    +0.133 C 
BRANCH  10  11
ATOM     11  N   UNL     1      17.836  -2.091  24.855  0.00  0.00    -0.308 N 
ATOM     12  H   UNL     1      18.733  -2.020  25.314  0.00  0.00    +0.149 HD
ATOM     13  C   UNL     1      17.059  -3.134  25.159  0.00  0.00    +0.210 C 
ATOM     14  C   UNL     1      15.709  -3.227  24.423  0.00  0.00    +0.109 C 
ATOM     15  O   UNL     1      17.384  -3.994  25.979  0.00  0.00    -0.276 OA
ENDBRANCH  10  11
BRANCH   7  16
ATOM     16  C   UNL     1      19.528   1.847  22.791  0.00  0.00    +0.414 C 
ATOM     17  O   UNL     1      19.768   2.420  23.853  0.00  0.00    -0.240 OA
ATOM     18  O   UNL     1      20.456   1.594  22.021  0.00  0.00    -0.240 OA
ENDBRANCH   7  16
BRANCH   7  19
ATOM     19  O   UNL     1      17.514   2.439  21.533  0.00  0.00    -0.343 OA
ATOM     20  C   UNL     1      16.788   3.512  22.185  0.00  0.00    +0.198 C 
ENDBRANCH   7  19
BRANCH   9  21
ATOM     21  O   UNL     1      18.244  -2.326  22.008  0.00  0.00    -0.390 OA
ATOM     22  H   UNL     1      17.316  -2.472  21.812  0.00  0.00    +0.210 HD
ENDBRANCH   9  21
ENDBRANCH   4   5
BRANCH   4  23
ATOM     23  O   UNL     1      15.302   0.701  25.401  0.00  0.00    -0.387 OA
ATOM     24  H   UNL     1      14.929  -0.141  25.131  0.00  0.00    +0.210 HD
ENDBRANCH   4  23
ENDBRANCH   1   4
BRANCH   1  25
ATOM     25  C   UNL     1      18.378   1.280  27.470  0.00  0.00    +0.141 C 
BRANCH  25  28
ATOM     26  C   UNL     1      20.124   2.862  28.215  0.00  0.00    +0.401 C 
ATOM     27  O   UNL     1      19.842   2.758  29.411  0.00  0.00    -0.226 OA
ATOM     28  N   UNL     1      19.487   2.213  27.239  0.00  0.00    -0.279 N 
ATOM     29  H   UNL     1      19.785   2.372  26.287  0.00  0.00    +0.152 HD
BRANCH  26  30
ATOM     30  O   UNL     1      21.192   3.731  27.827  0.00  0.00    -0.444 OA
BRANCH  30  31
ATOM     31  C   UNL     1      21.086   4.024  26.431  0.00  0.00    +0.292 C 
BRANCH  31  33
ATOM     32  N   UNL     1      19.087   5.397  25.922  0.00  0.00    -0.131 NA
ATOM     33  C   UNL     1      20.421   5.324  26.231  0.00  0.00    +0.120 A 
ATOM     34  C   UNL     1      20.931   6.600  26.331  0.00  0.00    +0.137 A 
ATOM     35  N   UNL     1      19.839   7.398  26.166  0.00  0.00    -0.247 N 
ATOM     36  N   UNL     1      18.743   6.677  25.867  0.00  0.00    -0.065 NA
BRANCH  35  37
ATOM     37  C   UNL     1      19.760   8.839  26.300  0.00  0.00    +0.180 C 
BRANCH  37  38
ATOM     38  C   UNL     1      19.183   9.235  27.640  0.00  0.00    -0.026 A 
ATOM     39  C   UNL     1      19.403   8.443  28.777  0.00  0.00    +0.006 A 
ATOM     40  C   UNL     1      18.899   8.835  30.021  0.00  0.00    +0.015 A 
ATOM     41  C   UNL     1      18.160  10.013  30.145  0.00  0.00    +0.059 A 
ATOM     42  C   UNL     1      17.915  10.802  29.011  0.00  0.00    +0.015 A 
ATOM     43  C   UNL     1      18.415  10.404  27.767  0.00  0.00    +0.006 A 
BRANCH  41  44
ATOM     44  C   UNL     1      17.711  10.419  31.503  0.00  0.00    +0.337 C 
ATOM     45  O   UNL     1      18.317  11.236  32.177  0.00  0.00    -0.245 OA
BRANCH  44  46
ATOM     46  O   UNL     1      16.604   9.784  31.931  0.00  0.00    -0.477 OA
ATOM     47  H   UNL     1      15.847   9.810  31.320  0.00  0.00    +0.295 HD
ENDBRANCH  44  46
ENDBRANCH  41  44
ENDBRANCH  37  38
ENDBRANCH  35  37
ENDBRANCH  31  33
ENDBRANCH  30  31
ENDBRANCH  26  30
ENDBRANCH  25  28
ENDBRANCH   1  25
TORSDOF 17
