REMARK VINA RESULT:    -5.687      2.402      4.371
REMARK INTER + INTRA:         -12.934
REMARK INTER:                 -11.207
REMARK INTRA:                  -1.727
REMARK UNBOUND:                -2.094
REMARK  Name = lig_assembled_19.pdb
REMARK  20 active torsions:
REMARK  status: ('A' for Active; 'I' for Inactive)
REMARK    1  A    between atoms: _2  and  _9
REMARK    2  A    between atoms: _4  and  _18
REMARK    3  A    between atoms: _5  and  _11
REMARK    4  A    between atoms: _6  and  _7
REMARK    5  A    between atoms: _6  and  _18
REMARK    6  A    between atoms: _9  and  _10
REMARK    7  A    between atoms: _10  and  _13
REMARK    8  A    between atoms: _11  and  _13
REMARK    9  A    between atoms: _14  and  _34
REMARK   10  A    between atoms: _16  and  _22
REMARK   11  A    between atoms: _17  and  _21
REMARK   12  A    between atoms: _21  and  _22
REMARK   13  A    between atoms: _24  and  _25
REMARK   14  A    between atoms: _26  and  _27
REMARK   15  A    between atoms: _28  and  _30
REMARK   16  A    between atoms: _30  and  _31
REMARK   17  A    between atoms: _30  and  _32
REMARK   18  A    between atoms: _32  and  _33
REMARK   19  A    between atoms: _32  and  _34
REMARK   20  A    between atoms: _35  and  _37
REMARK                            x       y       z     vdW  Elec       q    Type
REMARK                         _______ _______ _______ _____ _____    ______ ____
ROOT
ATOM      1  C   UNL     1       7.036   3.846  33.659  0.00  0.00    +0.163 C 
ENDROOT
BRANCH   1   2
ATOM      2  O   UNL     1       7.737   4.810  32.856  0.00  0.00    -0.388 OA
ATOM      3  H   UNL     1       7.838   4.471  31.963  0.00  0.00    +0.210 HD
ENDBRANCH   1   2
BRANCH   1   4
ATOM      4  C   UNL     1       5.786   4.472  34.301  0.00  0.00    +0.175 C 
BRANCH   4   5
ATOM      5  C   UNL     1       6.145   5.518  35.367  0.00  0.00    +0.176 C 
ATOM      6  O   UNL     1       7.541   5.329  35.726  0.00  0.00    -0.332 OA
ATOM      7  C   UNL     1       8.094   6.313  36.661  0.00  0.00    +0.277 C 
ATOM      8  C   UNL     1       7.229   6.386  37.943  0.00  0.00    +0.110 C 
ATOM      9  C   UNL     1       5.731   6.555  37.611  0.00  0.00    +0.143 C 
ATOM     10  C   UNL     1       5.263   5.482  36.628  0.00  0.00    +0.133 C 
BRANCH  10  11
ATOM     11  N   UNL     1       3.858   5.705  36.252  0.00  0.00    -0.308 N 
ATOM     12  H   UNL     1       3.655   6.459  35.611  0.00  0.00    +0.149 HD
ATOM     13  C   UNL     1       2.833   4.977  36.703  0.00  0.00    +0.210 C 
ATOM     14  C   UNL     1       3.172   3.852  37.700  0.00  0.00    +0.109 C 
ATOM     15  O   UNL     1       1.668   5.177  36.360  0.00  0.00    -0.276 OA
ENDBRANCH  10  11
BRANCH   7  16
ATOM     16  C   UNL     1       8.166   7.708  36.007  0.00  0.00    +0.414 C 
ATOM     17  O   UNL     1       8.224   8.719  36.707  0.00  0.00    -0.240 OA
ATOM     18  O   UNL     1       8.166   7.824  34.781  0.00  0.00    -0.240 OA
ENDBRANCH   7  16
BRANCH   9  19
ATOM     19  O   UNL     1       4.959   6.466  38.809  0.00  0.00    -0.390 OA
ATOM     20  H   UNL     1       4.026   6.431  38.587  0.00  0.00    +0.210 HD
ENDBRANCH   9  19
BRANCH   7  21
ATOM     21  O   UNL     1       9.427   5.879  37.034  0.00  0.00    -0.343 OA
ATOM     22  C   UNL     1       9.604   5.584  38.442  0.00  0.00    +0.198 C 
ENDBRANCH   7  21
ENDBRANCH   4   5
BRANCH   4  23
ATOM     23  O   UNL     1       4.955   3.443  34.876  0.00  0.00    -0.387 OA
ATOM     24  H   UNL     1       5.245   3.260  35.772  0.00  0.00    +0.210 HD
ENDBRANCH   4  23
ENDBRANCH   1   4
BRANCH   1  25
ATOM     25  C   UNL     1       6.626   2.653  32.803  0.00  0.00    +0.141 C 
BRANCH  25  28
ATOM     26  C   UNL     1       4.391   2.464  31.766  0.00  0.00    +0.401 C 
ATOM     27  O   UNL     1       4.002   1.588  32.541  0.00  0.00    -0.226 OA
ATOM     28  N   UNL     1       5.605   3.015  31.812  0.00  0.00    -0.279 N 
ATOM     29  H   UNL     1       5.834   3.720  31.127  0.00  0.00    +0.152 HD
BRANCH  26  30
ATOM     30  O   UNL     1       3.505   2.932  30.746  0.00  0.00    -0.444 OA
BRANCH  30  31
ATOM     31  C   UNL     1       2.547   1.914  30.441  0.00  0.00    +0.292 C 
BRANCH  31  33
ATOM     32  N   UNL     1       0.855   1.415  28.702  0.00  0.00    -0.131 NA
ATOM     33  C   UNL     1       1.875   2.206  29.162  0.00  0.00    +0.120 A 
ATOM     34  C   UNL     1       2.101   3.219  28.258  0.00  0.00    +0.137 A 
ATOM     35  N   UNL     1       1.195   2.981  27.268  0.00  0.00    -0.248 N 
ATOM     36  N   UNL     1       0.444   1.901  27.538  0.00  0.00    -0.065 NA
BRANCH  35  37
ATOM     37  C   UNL     1       0.984   3.741  26.056  0.00  0.00    +0.186 C 
BRANCH  37  38
ATOM     38  C   UNL     1       2.213   3.722  25.153  0.00  0.00    +0.255 C 
BRANCH  38  39
ATOM     39  O   UNL     1       1.890   3.340  23.801  0.00  0.00    -0.463 OA
BRANCH  39  40
ATOM     40  C   UNL     1       1.793   4.354  22.902  0.00  0.00    +0.304 C 
ATOM     41  O   UNL     1       1.777   5.543  23.189  0.00  0.00    -0.251 OA
ATOM     42  C   UNL     1       1.740   3.825  21.502  0.00  0.00    +0.136 C 
ENDBRANCH  39  40
ENDBRANCH  38  39
ENDBRANCH  37  38
ENDBRANCH  35  37
ENDBRANCH  31  33
ENDBRANCH  30  31
ENDBRANCH  26  30
ENDBRANCH  25  28
ENDBRANCH   1  25
TORSDOF 17
