REMARK VINA RESULT:    -6.363      4.391      5.959
REMARK INTER + INTRA:         -13.734
REMARK INTER:                 -11.776
REMARK INTRA:                  -1.957
REMARK UNBOUND:                -2.722
REMARK  Name = lig_assembled_3.pdb
REMARK  16 active torsions:
REMARK  status: ('A' for Active; 'I' for Inactive)
REMARK    1  A    between atoms: _2  and  _9
REMARK    2  A    between atoms: _4  and  _18
REMARK    3  A    between atoms: _6  and  _7
REMARK    4  A    between atoms: _6  and  _18
REMARK    5  A    between atoms: _14  and  _34
REMARK    6  A    between atoms: _16  and  _22
REMARK    7  A    between atoms: _17  and  _21
REMARK    8  A    between atoms: _21  and  _22
REMARK    9  A    between atoms: _24  and  _25
REMARK   10  A    between atoms: _26  and  _27
REMARK   11  A    between atoms: _28  and  _30
REMARK   12  A    between atoms: _30  and  _31
REMARK   13  A    between atoms: _30  and  _32
REMARK   14  A    between atoms: _32  and  _33
REMARK   15  A    between atoms: _32  and  _34
REMARK   16  A    between atoms: _35  and  _37
REMARK                            x       y       z     vdW  Elec       q    Type
REMARK                         _______ _______ _______ _____ _____    ______ ____
ROOT
ATOM      1  C   UNL     1       7.525   2.493  34.487  0.00  0.00    +0.163 C 
ENDROOT
BRANCH   1   2
ATOM      2  O   UNL     1       8.163   2.380  35.770  0.00  0.00    -0.388 OA
ATOM      3  H   UNL     1       7.931   1.538  36.170  0.00  0.00    +0.210 HD
ENDBRANCH   1   2
BRANCH   1   4
ATOM      4  C   UNL     1       7.984   1.360  33.575  0.00  0.00    +0.141 C 
BRANCH   4   7
ATOM      5  C   UNL     1       5.969   0.481  32.448  0.00  0.00    +0.401 C 
ATOM      6  O   UNL     1       5.860   1.444  31.685  0.00  0.00    -0.226 OA
ATOM      7  N   UNL     1       6.928   0.362  33.367  0.00  0.00    -0.279 N 
ATOM      8  H   UNL     1       6.927  -0.461  33.953  0.00  0.00    +0.152 HD
BRANCH   5   9
ATOM      9  O   UNL     1       5.017  -0.582  32.363  0.00  0.00    -0.444 OA
BRANCH   9  10
ATOM     10  C   UNL     1       5.699  -1.816  32.123  0.00  0.00    +0.292 C 
BRANCH  10  12
ATOM     11  N   UNL     1       7.517  -2.039  30.461  0.00  0.00    -0.131 NA
ATOM     12  C   UNL     1       6.191  -1.869  30.733  0.00  0.00    +0.121 A 
ATOM     13  C   UNL     1       5.496  -1.778  29.550  0.00  0.00    +0.143 A 
ATOM     14  N   UNL     1       6.446  -1.926  28.565  0.00  0.00    -0.220 N 
ATOM     15  N   UNL     1       7.666  -2.068  29.143  0.00  0.00    -0.060 NA
BRANCH  14  16
ATOM     16  C   UNL     1       6.270  -1.961  27.158  0.00  0.00    +0.067 A 
ATOM     17  C   UNL     1       7.334  -2.297  26.307  0.00  0.00    +0.028 A 
ATOM     18  C   UNL     1       7.148  -2.296  24.923  0.00  0.00    +0.002 A 
ATOM     19  C   UNL     1       5.909  -1.964  24.381  0.00  0.00    +0.000 A 
ATOM     20  C   UNL     1       4.845  -1.638  25.221  0.00  0.00    +0.002 A 
ATOM     21  C   UNL     1       5.022  -1.636  26.606  0.00  0.00    +0.028 A 
ENDBRANCH  14  16
ENDBRANCH  10  12
ENDBRANCH   9  10
ENDBRANCH   5   9
ENDBRANCH   4   7
ENDBRANCH   1   4
BRANCH   1  22
ATOM     22  C   UNL     1       7.848   3.845  33.829  0.00  0.00    +0.175 C 
BRANCH  22  23
ATOM     23  C   UNL     1       7.227   5.023  34.594  0.00  0.00    +0.176 C 
ATOM     24  O   UNL     1       7.954   5.179  35.844  0.00  0.00    -0.332 OA
ATOM     25  C   UNL     1       7.566   6.330  36.664  0.00  0.00    +0.277 C 
ATOM     26  C   UNL     1       6.043   6.305  36.945  0.00  0.00    +0.110 C 
ATOM     27  C   UNL     1       5.228   6.109  35.649  0.00  0.00    +0.143 C 
ATOM     28  C   UNL     1       5.718   4.886  34.872  0.00  0.00    +0.133 C 
BRANCH  28  29
ATOM     29  N   UNL     1       4.993   4.761  33.598  0.00  0.00    -0.308 N 
ATOM     30  H   UNL     1       5.178   5.447  32.880  0.00  0.00    +0.149 HD
ATOM     31  C   UNL     1       4.106   3.799  33.328  0.00  0.00    +0.210 C 
ATOM     32  C   UNL     1       3.827   2.784  34.452  0.00  0.00    +0.109 C 
ATOM     33  O   UNL     1       3.525   3.710  32.247  0.00  0.00    -0.276 OA
ENDBRANCH  28  29
BRANCH  25  34
ATOM     34  C   UNL     1       7.939   7.652  35.963  0.00  0.00    +0.414 C 
ATOM     35  O   UNL     1       8.260   8.637  36.628  0.00  0.00    -0.240 OA
ATOM     36  O   UNL     1       7.919   7.735  34.735  0.00  0.00    -0.240 OA
ENDBRANCH  25  34
BRANCH  27  37
ATOM     37  O   UNL     1       3.847   5.941  35.969  0.00  0.00    -0.390 OA
ATOM     38  H   UNL     1       3.651   6.393  36.793  0.00  0.00    +0.210 HD
ENDBRANCH  27  37
BRANCH  25  39
ATOM     39  O   UNL     1       8.266   6.234  37.932  0.00  0.00    -0.343 OA
ATOM     40  C   UNL     1       9.386   5.313  37.944  0.00  0.00    +0.198 C 
ENDBRANCH  25  39
ENDBRANCH  22  23
BRANCH  22  41
ATOM     41  O   UNL     1       7.401   3.851  32.459  0.00  0.00    -0.387 OA
ATOM     42  H   UNL     1       8.129   3.608  31.883  0.00  0.00    +0.210 HD
ENDBRANCH  22  41
ENDBRANCH   1  22
TORSDOF 14
