REMARK VINA RESULT:    -5.617     14.264     17.766
REMARK INTER + INTRA:         -12.443
REMARK INTER:                 -10.506
REMARK INTRA:                  -1.937
REMARK UNBOUND:                -2.722
REMARK  Name = lig_assembled_3.pdb
REMARK  16 active torsions:
REMARK  status: ('A' for Active; 'I' for Inactive)
REMARK    1  A    between atoms: _2  and  _9
REMARK    2  A    between atoms: _4  and  _18
REMARK    3  A    between atoms: _6  and  _7
REMARK    4  A    between atoms: _6  and  _18
REMARK    5  A    between atoms: _14  and  _34
REMARK    6  A    between atoms: _16  and  _22
REMARK    7  A    between atoms: _17  and  _21
REMARK    8  A    between atoms: _21  and  _22
REMARK    9  A    between atoms: _24  and  _25
REMARK   10  A    between atoms: _26  and  _27
REMARK   11  A    between atoms: _28  and  _30
REMARK   12  A    between atoms: _30  and  _31
REMARK   13  A    between atoms: _30  and  _32
REMARK   14  A    between atoms: _32  and  _33
REMARK   15  A    between atoms: _32  and  _34
REMARK   16  A    between atoms: _35  and  _37
REMARK                            x       y       z     vdW  Elec       q    Type
REMARK                         _______ _______ _______ _____ _____    ______ ____
ROOT
ATOM      1  C   UNL     1      18.123   5.402  23.710  0.00  0.00    +0.163 C 
ENDROOT
BRANCH   1   2
ATOM      2  O   UNL     1      17.103   5.370  22.698  0.00  0.00    -0.388 OA
ATOM      3  H   UNL     1      16.787   6.262  22.532  0.00  0.00    +0.210 HD
ENDBRANCH   1   2
BRANCH   1   4
ATOM      4  C   UNL     1      19.015   6.624  23.513  0.00  0.00    +0.141 C 
BRANCH   4   7
ATOM      5  C   UNL     1      20.053   7.601  25.532  0.00  0.00    +0.401 C 
ATOM      6  O   UNL     1      21.107   6.974  25.408  0.00  0.00    -0.226 OA
ATOM      7  N   UNL     1      19.019   7.494  24.696  0.00  0.00    -0.279 N 
ATOM      8  H   UNL     1      18.193   8.043  24.886  0.00  0.00    +0.152 HD
BRANCH   5   9
ATOM      9  O   UNL     1      19.905   8.501  26.633  0.00  0.00    -0.444 OA
BRANCH   9  10
ATOM     10  C   UNL     1      19.719   7.753  27.839  0.00  0.00    +0.292 C 
BRANCH  10  12
ATOM     11  N   UNL     1      18.562   9.823  28.545  0.00  0.00    -0.131 NA
ATOM     12  C   UNL     1      19.010   8.569  28.843  0.00  0.00    +0.121 A 
ATOM     13  C   UNL     1      18.676   8.269  30.144  0.00  0.00    +0.143 A 
ATOM     14  N   UNL     1      17.993   9.373  30.601  0.00  0.00    -0.220 N 
ATOM     15  N   UNL     1      17.951  10.307  29.618  0.00  0.00    -0.060 NA
BRANCH  14  16
ATOM     16  C   UNL     1      17.383   9.580  31.865  0.00  0.00    +0.067 A 
ATOM     17  C   UNL     1      17.301  10.864  32.424  0.00  0.00    +0.028 A 
ATOM     18  C   UNL     1      16.723  11.042  33.683  0.00  0.00    +0.002 A 
ATOM     19  C   UNL     1      16.223   9.949  34.387  0.00  0.00    +0.000 A 
ATOM     20  C   UNL     1      16.292   8.672  33.833  0.00  0.00    +0.002 A 
ATOM     21  C   UNL     1      16.869   8.484  32.575  0.00  0.00    +0.028 A 
ENDBRANCH  14  16
ENDBRANCH  10  12
ENDBRANCH   9  10
ENDBRANCH   5   9
ENDBRANCH   4   7
ENDBRANCH   1   4
BRANCH   1  22
ATOM     22  C   UNL     1      18.981   4.126  23.666  0.00  0.00    +0.175 C 
BRANCH  22  23
ATOM     23  C   UNL     1      18.306   2.951  24.388  0.00  0.00    +0.176 C 
ATOM     24  O   UNL     1      19.164   2.551  25.492  0.00  0.00    -0.332 OA
ATOM     25  C   UNL     1      18.627   1.502  26.364  0.00  0.00    +0.277 C 
ATOM     26  C   UNL     1      18.230   0.258  25.533  0.00  0.00    +0.110 C 
ATOM     27  C   UNL     1      17.343   0.637  24.328  0.00  0.00    +0.143 C 
ATOM     28  C   UNL     1      17.995   1.738  23.491  0.00  0.00    +0.133 C 
BRANCH  28  29
ATOM     29  N   UNL     1      17.102   2.151  22.397  0.00  0.00    -0.308 N 
ATOM     30  H   UNL     1      16.262   2.658  22.640  0.00  0.00    +0.149 HD
ATOM     31  C   UNL     1      17.328   1.899  21.105  0.00  0.00    +0.210 C 
ATOM     32  C   UNL     1      18.603   1.102  20.771  0.00  0.00    +0.109 C 
ATOM     33  O   UNL     1      16.570   2.270  20.209  0.00  0.00    -0.276 OA
ENDBRANCH  28  29
BRANCH  25  34
ATOM     34  C   UNL     1      17.398   2.015  27.144  0.00  0.00    +0.414 C 
ATOM     35  O   UNL     1      17.470   3.052  27.802  0.00  0.00    -0.240 OA
ATOM     36  O   UNL     1      16.336   1.392  27.115  0.00  0.00    -0.240 OA
ENDBRANCH  25  34
BRANCH  27  37
ATOM     37  O   UNL     1      17.127  -0.513  23.509  0.00  0.00    -0.390 OA
ATOM     38  H   UNL     1      17.381  -1.303  23.991  0.00  0.00    +0.210 HD
ENDBRANCH  27  37
BRANCH  25  39
ATOM     39  O   UNL     1      19.670   1.116  27.296  0.00  0.00    -0.343 OA
ATOM     40  C   UNL     1      20.823   1.995  27.322  0.00  0.00    +0.198 C 
ENDBRANCH  25  39
ENDBRANCH  22  23
BRANCH  22  41
ATOM     41  O   UNL     1      20.279   4.381  24.239  0.00  0.00    -0.387 OA
ATOM     42  H   UNL     1      20.880   3.671  24.001  0.00  0.00    +0.210 HD
ENDBRANCH  22  41
ENDBRANCH   1  22
TORSDOF 14
