REMARK VINA RESULT:    -6.582      4.852      8.128
REMARK INTER + INTRA:         -13.963
REMARK INTER:                 -11.701
REMARK INTRA:                  -2.262
REMARK UNBOUND:                -1.802
REMARK  Name = lig_assembled_36.pdb
REMARK  18 active torsions:
REMARK  status: ('A' for Active; 'I' for Inactive)
REMARK    1  A    between atoms: _2  and  _10
REMARK    2  A    between atoms: _5  and  _21
REMARK    3  A    between atoms: _7  and  _8
REMARK    4  A    between atoms: _7  and  _21
REMARK    5  A    between atoms: _10  and  _11
REMARK    6  A    between atoms: _14  and  _15
REMARK    7  A    between atoms: _17  and  _37
REMARK    8  A    between atoms: _19  and  _25
REMARK    9  A    between atoms: _20  and  _24
REMARK   10  A    between atoms: _24  and  _25
REMARK   11  A    between atoms: _27  and  _28
REMARK   12  A    between atoms: _29  and  _30
REMARK   13  A    between atoms: _31  and  _33
REMARK   14  A    between atoms: _33  and  _34
REMARK   15  A    between atoms: _33  and  _35
REMARK   16  A    between atoms: _35  and  _36
REMARK   17  A    between atoms: _35  and  _37
REMARK   18  A    between atoms: _38  and  _40
REMARK                            x       y       z     vdW  Elec       q    Type
REMARK                         _______ _______ _______ _____ _____    ______ ____
ROOT
ATOM      1  C   UNL     1      17.693   3.999  22.545  0.00  0.00    +0.163 C 
ENDROOT
BRANCH   1   2
ATOM      2  O   UNL     1      17.072   5.226  22.963  0.00  0.00    -0.388 OA
ATOM      3  H   UNL     1      16.265   5.028  23.445  0.00  0.00    +0.210 HD
ENDBRANCH   1   2
BRANCH   1   4
ATOM      4  C   UNL     1      18.209   3.203  23.756  0.00  0.00    +0.175 C 
BRANCH   4   5
ATOM      5  C   UNL     1      18.302   4.070  25.021  0.00  0.00    +0.176 C 
ATOM      6  O   UNL     1      19.569   4.782  24.982  0.00  0.00    -0.332 OA
ATOM      7  C   UNL     1      19.788   5.747  26.064  0.00  0.00    +0.277 C 
ATOM      8  C   UNL     1      19.615   5.062  27.442  0.00  0.00    +0.110 C 
ATOM      9  C   UNL     1      18.296   4.265  27.520  0.00  0.00    +0.143 C 
ATOM     10  C   UNL     1      18.170   3.295  26.345  0.00  0.00    +0.133 C 
BRANCH  10  11
ATOM     11  N   UNL     1      16.871   2.605  26.383  0.00  0.00    -0.308 N 
ATOM     12  H   UNL     1      16.036   3.168  26.300  0.00  0.00    +0.149 HD
ATOM     13  C   UNL     1      16.724   1.285  26.519  0.00  0.00    +0.210 C 
ATOM     14  C   UNL     1      18.015   0.458  26.668  0.00  0.00    +0.109 C 
ATOM     15  O   UNL     1      15.623   0.732  26.532  0.00  0.00    -0.276 OA
ENDBRANCH  10  11
BRANCH   7  16
ATOM     16  C   UNL     1      18.805   6.930  25.949  0.00  0.00    +0.414 C 
ATOM     17  O   UNL     1      18.719   7.755  26.858  0.00  0.00    -0.240 OA
ATOM     18  O   UNL     1      18.099   7.060  24.949  0.00  0.00    -0.240 OA
ENDBRANCH   7  16
BRANCH   7  19
ATOM     19  O   UNL     1      21.151   6.233  25.963  0.00  0.00    -0.343 OA
ATOM     20  C   UNL     1      21.881   5.773  24.797  0.00  0.00    +0.198 C 
ENDBRANCH   7  19
BRANCH   9  21
ATOM     21  O   UNL     1      18.248   3.530  28.744  0.00  0.00    -0.390 OA
ATOM     22  H   UNL     1      17.341   3.482  29.054  0.00  0.00    +0.210 HD
ENDBRANCH   9  21
ENDBRANCH   4   5
BRANCH   4  23
ATOM     23  O   UNL     1      19.493   2.621  23.457  0.00  0.00    -0.387 OA
ATOM     24  H   UNL     1      19.754   2.035  24.173  0.00  0.00    +0.210 HD
ENDBRANCH   4  23
ENDBRANCH   1   4
BRANCH   1  25
ATOM     25  C   UNL     1      16.697   3.149  21.764  0.00  0.00    +0.141 C 
BRANCH  25  28
ATOM     26  C   UNL     1      17.919   1.344  20.601  0.00  0.00    +0.401 C 
ATOM     27  O   UNL     1      18.305   2.069  19.681  0.00  0.00    -0.226 OA
ATOM     28  N   UNL     1      17.159   1.764  21.613  0.00  0.00    -0.279 N 
ATOM     29  H   UNL     1      16.885   1.091  22.315  0.00  0.00    +0.152 HD
BRANCH  26  30
ATOM     30  O   UNL     1      18.294  -0.036  20.602  0.00  0.00    -0.444 OA
BRANCH  30  31
ATOM     31  C   UNL     1      19.073  -0.319  21.767  0.00  0.00    +0.292 C 
BRANCH  31  33
ATOM     32  N   UNL     1      19.066  -2.700  22.449  0.00  0.00    -0.131 NA
ATOM     33  C   UNL     1      18.494  -1.457  22.505  0.00  0.00    +0.120 A 
ATOM     34  C   UNL     1      17.396  -1.502  23.335  0.00  0.00    +0.137 A 
ATOM     35  N   UNL     1      17.413  -2.776  23.825  0.00  0.00    -0.247 N 
ATOM     36  N   UNL     1      18.383  -3.508  23.248  0.00  0.00    -0.065 NA
BRANCH  35  37
ATOM     37  C   UNL     1      16.557  -3.351  24.843  0.00  0.00    +0.180 C 
BRANCH  37  38
ATOM     38  C   UNL     1      15.744  -4.500  24.290  0.00  0.00    -0.026 A 
ATOM     39  C   UNL     1      15.491  -5.642  25.065  0.00  0.00    +0.007 A 
ATOM     40  C   UNL     1      14.734  -6.698  24.548  0.00  0.00    +0.019 A 
ATOM     41  C   UNL     1      14.224  -6.628  23.247  0.00  0.00    +0.052 A 
ATOM     42  C   UNL     1      14.492  -5.505  22.460  0.00  0.00    +0.019 A 
ATOM     43  C   UNL     1      15.250  -4.450  22.977  0.00  0.00    +0.007 A 
BRANCH  41  44
ATOM     44  C   UNL     1      13.430  -7.704  22.726  0.00  0.00    +0.099 C 
ATOM     45  N   UNL     1      12.798  -8.578  22.299  0.00  0.00    -0.191 NA
ENDBRANCH  41  44
ENDBRANCH  37  38
ENDBRANCH  35  37
ENDBRANCH  31  33
ENDBRANCH  30  31
ENDBRANCH  26  30
ENDBRANCH  25  28
ENDBRANCH   1  25
TORSDOF 16
