REMARK VINA RESULT:    -5.794     19.027     21.215
REMARK INTER + INTRA:         -13.685
REMARK INTER:                 -11.813
REMARK INTRA:                  -1.872
REMARK UNBOUND:                -2.640
REMARK  Name = lig_assembled_29.pdb
REMARK  21 active torsions:
REMARK  status: ('A' for Active; 'I' for Inactive)
REMARK    1  A    between atoms: _2  and  _9
REMARK    2  A    between atoms: _4  and  _23
REMARK    3  A    between atoms: _6  and  _7
REMARK    4  A    between atoms: _6  and  _23
REMARK    5  A    between atoms: _9  and  _10
REMARK    6  A    between atoms: _12  and  _18
REMARK    7  A    between atoms: _13  and  _18
REMARK    8  A    between atoms: _14  and  _17
REMARK    9  A    between atoms: _15  and  _17
REMARK   10  A    between atoms: _19  and  _39
REMARK   11  A    between atoms: _21  and  _27
REMARK   12  A    between atoms: _22  and  _26
REMARK   13  A    between atoms: _26  and  _27
REMARK   14  A    between atoms: _29  and  _30
REMARK   15  A    between atoms: _31  and  _32
REMARK   16  A    between atoms: _33  and  _35
REMARK   17  A    between atoms: _35  and  _36
REMARK   18  A    between atoms: _35  and  _37
REMARK   19  A    between atoms: _37  and  _38
REMARK   20  A    between atoms: _37  and  _39
REMARK   21  A    between atoms: _40  and  _42
REMARK                            x       y       z     vdW  Elec       q    Type
REMARK                         _______ _______ _______ _____ _____    ______ ____
ROOT
ATOM      1  C   UNL     1      17.537  -1.580  23.482  0.00  0.00    +0.163 C 
ENDROOT
BRANCH   1   2
ATOM      2  O   UNL     1      18.531  -2.101  24.380  0.00  0.00    -0.388 OA
ATOM      3  H   UNL     1      18.319  -3.011  24.600  0.00  0.00    +0.210 HD
ENDBRANCH   1   2
BRANCH   1   4
ATOM      4  C   UNL     1      16.445  -0.818  24.253  0.00  0.00    +0.175 C 
BRANCH   4   5
ATOM      5  C   UNL     1      16.933  -0.345  25.630  0.00  0.00    +0.176 C 
ATOM      6  O   UNL     1      18.198   0.347  25.443  0.00  0.00    -0.332 OA
ATOM      7  C   UNL     1      18.767   0.965  26.644  0.00  0.00    +0.277 C 
ATOM      8  C   UNL     1      18.906  -0.083  27.777  0.00  0.00    +0.110 C 
ATOM      9  C   UNL     1      17.595  -0.867  27.992  0.00  0.00    +0.143 C 
ATOM     10  C   UNL     1      17.091  -1.464  26.677  0.00  0.00    +0.133 C 
BRANCH  10  11
ATOM     11  N   UNL     1      15.797  -2.134  26.879  0.00  0.00    -0.308 N 
ATOM     12  H   UNL     1      14.988  -1.555  27.058  0.00  0.00    +0.149 HD
ATOM     13  C   UNL     1      15.620  -3.458  26.840  0.00  0.00    +0.210 C 
ATOM     14  C   UNL     1      16.876  -4.314  26.591  0.00  0.00    +0.109 C 
ATOM     15  O   UNL     1      14.522  -3.991  26.998  0.00  0.00    -0.276 OA
ENDBRANCH  10  11
BRANCH   7  16
ATOM     16  C   UNL     1      17.884   2.133  27.129  0.00  0.00    +0.414 C 
ATOM     17  O   UNL     1      17.066   2.649  26.368  0.00  0.00    -0.240 OA
ATOM     18  O   UNL     1      17.990   2.560  28.279  0.00  0.00    -0.240 OA
ENDBRANCH   7  16
BRANCH   7  19
ATOM     19  O   UNL     1      20.091   1.457  26.312  0.00  0.00    -0.343 OA
ATOM     20  C   UNL     1      20.562   1.100  24.988  0.00  0.00    +0.198 C 
ENDBRANCH   7  19
BRANCH   9  21
ATOM     21  O   UNL     1      17.811  -1.918  28.934  0.00  0.00    -0.390 OA
ATOM     22  H   UNL     1      18.578  -1.713  29.473  0.00  0.00    +0.210 HD
ENDBRANCH   9  21
ENDBRANCH   4   5
BRANCH   4  23
ATOM     23  O   UNL     1      15.272  -1.644  24.399  0.00  0.00    -0.387 OA
ATOM     24  H   UNL     1      15.034  -1.702  25.327  0.00  0.00    +0.210 HD
ENDBRANCH   4  23
ENDBRANCH   1   4
BRANCH   1  25
ATOM     25  C   UNL     1      18.188  -0.648  22.466  0.00  0.00    +0.141 C 
BRANCH  25  28
ATOM     26  C   UNL     1      17.625   1.473  21.330  0.00  0.00    +0.401 C 
ATOM     27  O   UNL     1      18.411   1.291  20.397  0.00  0.00    -0.226 OA
ATOM     28  N   UNL     1      17.461   0.622  22.343  0.00  0.00    -0.279 N 
ATOM     29  H   UNL     1      16.799   0.863  23.067  0.00  0.00    +0.152 HD
BRANCH  26  30
ATOM     30  O   UNL     1      16.834   2.664  21.349  0.00  0.00    -0.444 OA
BRANCH  30  31
ATOM     31  C   UNL     1      16.660   3.100  22.700  0.00  0.00    +0.292 C 
BRANCH  31  33
ATOM     32  N   UNL     1      17.157   5.530  22.676  0.00  0.00    -0.131 NA
ATOM     33  C   UNL     1      17.537   4.251  22.987  0.00  0.00    +0.120 A 
ATOM     34  C   UNL     1      18.774   4.284  23.590  0.00  0.00    +0.137 A 
ATOM     35  N   UNL     1      19.049   5.616  23.699  0.00  0.00    -0.247 N 
ATOM     36  N   UNL     1      18.098   6.360  23.108  0.00  0.00    -0.065 NA
BRANCH  35  37
ATOM     37  C   UNL     1      20.159   6.247  24.390  0.00  0.00    +0.180 C 
BRANCH  37  38
ATOM     38  C   UNL     1      19.782   6.587  25.814  0.00  0.00    -0.022 A 
ATOM     39  C   UNL     1      19.678   7.930  26.216  0.00  0.00    +0.054 A 
ATOM     40  C   UNL     1      19.253   8.260  27.511  0.00  0.00    +0.162 A 
ATOM     41  C   UNL     1      18.935   7.233  28.422  0.00  0.00    +0.162 A 
ATOM     42  C   UNL     1      19.039   5.899  28.020  0.00  0.00    +0.050 A 
ATOM     43  C   UNL     1      19.461   5.578  26.727  0.00  0.00    +0.009 A 
BRANCH  40  44
ATOM     44  O   UNL     1      19.106   9.545  27.973  0.00  0.00    -0.491 OA
ATOM     45  C   UNL     1      18.376  10.460  27.168  0.00  0.00    +0.277 C 
ENDBRANCH  40  44
BRANCH  41  46
ATOM     46  O   UNL     1      18.533   7.637  29.672  0.00  0.00    -0.491 OA
ATOM     47  C   UNL     1      19.529   7.763  30.677  0.00  0.00    +0.277 C 
ENDBRANCH  41  46
ENDBRANCH  37  38
ENDBRANCH  35  37
ENDBRANCH  31  33
ENDBRANCH  30  31
ENDBRANCH  26  30
ENDBRANCH  25  28
ENDBRANCH   1  25
TORSDOF 17
