REMARK VINA RESULT:    -6.371     14.641     17.986
REMARK INTER + INTRA:         -12.874
REMARK INTER:                 -11.043
REMARK INTRA:                  -1.830
REMARK UNBOUND:                -1.847
REMARK  Name = lig_assembled_2.pdb
REMARK  16 active torsions:
REMARK  status: ('A' for Active; 'I' for Inactive)
REMARK    1  A    between atoms: _2  and  _9
REMARK    2  A    between atoms: _4  and  _18
REMARK    3  A    between atoms: _6  and  _7
REMARK    4  A    between atoms: _6  and  _18
REMARK    5  A    between atoms: _14  and  _34
REMARK    6  A    between atoms: _16  and  _22
REMARK    7  A    between atoms: _17  and  _21
REMARK    8  A    between atoms: _21  and  _22
REMARK    9  A    between atoms: _24  and  _25
REMARK   10  A    between atoms: _26  and  _27
REMARK   11  A    between atoms: _28  and  _30
REMARK   12  A    between atoms: _30  and  _31
REMARK   13  A    between atoms: _30  and  _32
REMARK   14  A    between atoms: _32  and  _33
REMARK   15  A    between atoms: _32  and  _34
REMARK   16  A    between atoms: _35  and  _37
REMARK                            x       y       z     vdW  Elec       q    Type
REMARK                         _______ _______ _______ _____ _____    ______ ____
ROOT
ATOM      1  C   UNL     1      18.640   5.851  23.942  0.00  0.00    +0.163 C 
ENDROOT
BRANCH   1   2
ATOM      2  O   UNL     1      17.507   5.907  23.061  0.00  0.00    -0.388 OA
ATOM      3  H   UNL     1      16.794   6.390  23.485  0.00  0.00    +0.210 HD
ENDBRANCH   1   2
BRANCH   1   4
ATOM      4  C   UNL     1      19.678   6.887  23.524  0.00  0.00    +0.141 C 
BRANCH   4   7
ATOM      5  C   UNL     1      21.172   7.726  25.305  0.00  0.00    +0.401 C 
ATOM      6  O   UNL     1      22.055   6.895  25.086  0.00  0.00    -0.226 OA
ATOM      7  N   UNL     1      20.025   7.792  24.627  0.00  0.00    -0.279 N 
ATOM      8  H   UNL     1      19.357   8.504  24.887  0.00  0.00    +0.152 HD
BRANCH   5   9
ATOM      9  O   UNL     1      21.364   8.686  26.347  0.00  0.00    -0.444 OA
BRANCH   9  10
ATOM     10  C   UNL     1      20.486   9.796  26.142  0.00  0.00    +0.292 C 
BRANCH  10  12
ATOM     11  N   UNL     1      18.557  10.849  27.281  0.00  0.00    -0.131 NA
ATOM     12  C   UNL     1      19.605   9.975  27.312  0.00  0.00    +0.121 A 
ATOM     13  C   UNL     1      19.641   9.359  28.543  0.00  0.00    +0.143 A 
ATOM     14  N   UNL     1      18.565   9.875  29.229  0.00  0.00    -0.220 N 
ATOM     15  N   UNL     1      17.935  10.788  28.450  0.00  0.00    -0.060 NA
BRANCH  14  16
ATOM     16  C   UNL     1      18.097   9.541  30.527  0.00  0.00    +0.067 A 
ATOM     17  C   UNL     1      17.936   8.203  30.914  0.00  0.00    +0.029 A 
ATOM     18  C   UNL     1      17.439   7.897  32.185  0.00  0.00    +0.022 A 
ATOM     19  C   UNL     1      17.104   8.920  33.069  0.00  0.00    +0.041 A 
ATOM     20 CL   UNL     1      16.471   8.533  34.621  0.00  0.00    -0.084 Cl
ATOM     21  C   UNL     1      17.273  10.252  32.700  0.00  0.00    +0.022 A 
ATOM     22  C   UNL     1      17.771  10.566  31.432  0.00  0.00    +0.029 A 
ENDBRANCH  14  16
ENDBRANCH  10  12
ENDBRANCH   9  10
ENDBRANCH   5   9
ENDBRANCH   4   7
ENDBRANCH   1   4
BRANCH   1  23
ATOM     23  C   UNL     1      19.277   4.451  23.931  0.00  0.00    +0.175 C 
BRANCH  23  24
ATOM     24  C   UNL     1      18.497   3.454  24.801  0.00  0.00    +0.176 C 
ATOM     25  O   UNL     1      19.372   3.018  25.877  0.00  0.00    -0.332 OA
ATOM     26  C   UNL     1      18.759   2.137  26.875  0.00  0.00    +0.277 C 
ATOM     27  C   UNL     1      18.119   0.905  26.190  0.00  0.00    +0.110 C 
ATOM     28  C   UNL     1      17.204   1.317  25.018  0.00  0.00    +0.143 C 
ATOM     29  C   UNL     1      17.941   2.235  24.042  0.00  0.00    +0.133 C 
BRANCH  29  30
ATOM     30  N   UNL     1      17.034   2.690  22.977  0.00  0.00    -0.308 N 
ATOM     31  H   UNL     1      16.276   3.307  23.235  0.00  0.00    +0.149 HD
ATOM     32  C   UNL     1      17.146   2.342  21.692  0.00  0.00    +0.210 C 
ATOM     33  C   UNL     1      18.296   1.381  21.336  0.00  0.00    +0.109 C 
ATOM     34  O   UNL     1      16.380   2.751  20.819  0.00  0.00    -0.276 OA
ENDBRANCH  29  30
BRANCH  26  35
ATOM     35  C   UNL     1      17.685   2.892  27.685  0.00  0.00    +0.414 C 
ATOM     36  O   UNL     1      18.002   3.542  28.681  0.00  0.00    -0.240 OA
ATOM     37  O   UNL     1      16.503   2.853  27.343  0.00  0.00    -0.240 OA
ENDBRANCH  26  35
BRANCH  28  38
ATOM     38  O   UNL     1      16.757   0.152  24.323  0.00  0.00    -0.390 OA
ATOM     39  H   UNL     1      17.494  -0.451  24.201  0.00  0.00    +0.210 HD
ENDBRANCH  28  38
BRANCH  26  40
ATOM     40  O   UNL     1      19.806   1.672  27.766  0.00  0.00    -0.343 OA
ATOM     41  C   UNL     1      21.105   1.498  27.147  0.00  0.00    +0.198 C 
ENDBRANCH  26  40
ENDBRANCH  23  24
BRANCH  23  42
ATOM     42  O   UNL     1      20.648   4.526  24.370  0.00  0.00    -0.387 OA
ATOM     43  H   UNL     1      20.841   5.418  24.670  0.00  0.00    +0.210 HD
ENDBRANCH  23  42
ENDBRANCH   1  23
TORSDOF 14
