REMARK VINA RESULT:    -6.173     14.234     16.603
REMARK INTER + INTRA:         -13.054
REMARK INTER:                 -10.434
REMARK INTRA:                  -2.621
REMARK UNBOUND:                -2.370
REMARK  Name = lig_assembled_87.pdb
REMARK  17 active torsions:
REMARK  status: ('A' for Active; 'I' for Inactive)
REMARK    1  A    between atoms: _2  and  _10
REMARK    2  A    between atoms: _3  and  _13
REMARK    3  A    between atoms: _5  and  _21
REMARK    4  A    between atoms: _7  and  _8
REMARK    5  A    between atoms: _7  and  _21
REMARK    6  A    between atoms: _17  and  _37
REMARK    7  A    between atoms: _19  and  _25
REMARK    8  A    between atoms: _20  and  _24
REMARK    9  A    between atoms: _24  and  _25
REMARK   10  A    between atoms: _27  and  _28
REMARK   11  A    between atoms: _29  and  _30
REMARK   12  A    between atoms: _31  and  _33
REMARK   13  A    between atoms: _33  and  _34
REMARK   14  A    between atoms: _33  and  _35
REMARK   15  A    between atoms: _35  and  _36
REMARK   16  A    between atoms: _35  and  _37
REMARK   17  A    between atoms: _38  and  _40
REMARK                            x       y       z     vdW  Elec       q    Type
REMARK                         _______ _______ _______ _____ _____    ______ ____
ROOT
ATOM      1  C   UNL     1      18.482  10.423  29.928  0.00  0.00    +0.163 C 
ENDROOT
BRANCH   1   2
ATOM      2  O   UNL     1      17.146  10.716  30.366  0.00  0.00    -0.388 OA
ATOM      3  H   UNL     1      16.891  11.589  30.056  0.00  0.00    +0.210 HD
ENDBRANCH   1   2
BRANCH   1   4
ATOM      4  C   UNL     1      18.652  10.821  28.466  0.00  0.00    +0.141 C 
BRANCH   4   7
ATOM      5  C   UNL     1      19.844   9.752  26.584  0.00  0.00    +0.401 C 
ATOM      6  O   UNL     1      20.386  10.796  26.212  0.00  0.00    -0.226 OA
ATOM      7  N   UNL     1      19.013   9.674  27.624  0.00  0.00    -0.279 N 
ATOM      8  H   UNL     1      18.610   8.775  27.846  0.00  0.00    +0.152 HD
BRANCH   5   9
ATOM      9  O   UNL     1      20.103   8.542  25.869  0.00  0.00    -0.444 OA
BRANCH   9  10
ATOM     10  C   UNL     1      19.320   7.482  26.424  0.00  0.00    +0.292 C 
BRANCH  10  12
ATOM     11  N   UNL     1      20.459   6.170  24.667  0.00  0.00    -0.131 NA
ATOM     12  C   UNL     1      19.484   6.256  25.621  0.00  0.00    +0.120 A 
ATOM     13  C   UNL     1      18.789   5.069  25.663  0.00  0.00    +0.137 A 
ATOM     14  N   UNL     1      19.464   4.250  24.798  0.00  0.00    -0.248 N 
ATOM     15  N   UNL     1      20.389   4.967  24.126  0.00  0.00    -0.065 NA
BRANCH  14  16
ATOM     16  C   UNL     1      19.320   2.810  24.515  0.00  0.00    +0.112 C 
ATOM     17  C   UNL     1      19.671   2.394  23.060  0.00  0.00    +0.045 C 
ATOM     18  C   UNL     1      18.536   1.727  22.265  0.00  0.00    +0.059 C 
ATOM     19  C   UNL     1      18.351   0.253  22.652  0.00  0.00    +0.020 C 
ATOM     20  C   UNL     1      17.229   0.264  23.689  0.00  0.00    +0.020 C 
ATOM     21  C   UNL     1      16.982   1.750  23.949  0.00  0.00    +0.059 C 
ATOM     22  N   UNL     1      17.224   2.262  22.604  0.00  0.00    -0.299 NA
ATOM     23  C   UNL     1      16.996   3.672  22.370  0.00  0.00    +0.105 C 
ATOM     24  C   UNL     1      17.944   2.275  25.016  0.00  0.00    +0.045 C 
ENDBRANCH  14  16
ENDBRANCH  10  12
ENDBRANCH   9  10
ENDBRANCH   5   9
ENDBRANCH   4   7
ENDBRANCH   1   4
BRANCH   1  25
ATOM     25  C   UNL     1      18.799   8.926  30.093  0.00  0.00    +0.175 C 
BRANCH  25  26
ATOM     26  C   UNL     1      18.009   8.292  31.248  0.00  0.00    +0.176 C 
ATOM     27  O   UNL     1      18.075   9.196  32.385  0.00  0.00    -0.332 OA
ATOM     28  C   UNL     1      17.284   8.803  33.554  0.00  0.00    +0.277 C 
ATOM     29  C   UNL     1      17.658   7.369  34.003  0.00  0.00    +0.110 C 
ATOM     30  C   UNL     1      17.633   6.377  32.822  0.00  0.00    +0.143 C 
ATOM     31  C   UNL     1      18.485   6.887  31.659  0.00  0.00    +0.133 C 
BRANCH  31  32
ATOM     32  N   UNL     1      18.383   5.977  30.508  0.00  0.00    -0.308 N 
ATOM     33  H   UNL     1      17.494   5.915  30.032  0.00  0.00    +0.149 HD
ATOM     34  C   UNL     1      19.389   5.226  30.050  0.00  0.00    +0.210 C 
ATOM     35  C   UNL     1      20.724   5.323  30.812  0.00  0.00    +0.109 C 
ATOM     36  O   UNL     1      19.279   4.484  29.074  0.00  0.00    -0.276 OA
ENDBRANCH  31  32
BRANCH  28  37
ATOM     37  C   UNL     1      15.775   8.868  33.241  0.00  0.00    +0.414 C 
ATOM     38  O   UNL     1      15.025   7.966  33.612  0.00  0.00    -0.240 OA
ATOM     39  O   UNL     1      15.307   9.821  32.617  0.00  0.00    -0.240 OA
ENDBRANCH  28  37
BRANCH  30  40
ATOM     40  O   UNL     1      18.128   5.108  33.248  0.00  0.00    -0.390 OA
ATOM     41  H   UNL     1      18.836   4.827  32.663  0.00  0.00    +0.210 HD
ENDBRANCH  30  40
BRANCH  28  42
ATOM     42  O   UNL     1      17.597   9.718  34.636  0.00  0.00    -0.343 OA
ATOM     43  C   UNL     1      18.846  10.440  34.485  0.00  0.00    +0.198 C 
ENDBRANCH  28  42
ENDBRANCH  25  26
BRANCH  25  44
ATOM     44  O   UNL     1      20.213   8.737  30.297  0.00  0.00    -0.387 OA
ATOM     45  H   UNL     1      20.672   8.826  29.458  0.00  0.00    +0.210 HD
ENDBRANCH  25  44
ENDBRANCH   1  25
TORSDOF 14
