REMARK VINA RESULT:    -6.298      1.525      2.136
REMARK INTER + INTRA:         -13.235
REMARK INTER:                 -11.679
REMARK INTRA:                  -1.556
REMARK UNBOUND:                -2.334
REMARK  Name = lig_assembled_15.pdb
REMARK  16 active torsions:
REMARK  status: ('A' for Active; 'I' for Inactive)
REMARK    1  A    between atoms: _2  and  _9
REMARK    2  A    between atoms: _4  and  _18
REMARK    3  A    between atoms: _6  and  _7
REMARK    4  A    between atoms: _6  and  _18
REMARK    5  A    between atoms: _14  and  _34
REMARK    6  A    between atoms: _16  and  _22
REMARK    7  A    between atoms: _17  and  _21
REMARK    8  A    between atoms: _21  and  _22
REMARK    9  A    between atoms: _24  and  _25
REMARK   10  A    between atoms: _26  and  _27
REMARK   11  A    between atoms: _28  and  _30
REMARK   12  A    between atoms: _30  and  _31
REMARK   13  A    between atoms: _30  and  _32
REMARK   14  A    between atoms: _32  and  _33
REMARK   15  A    between atoms: _32  and  _34
REMARK   16  A    between atoms: _35  and  _37
REMARK                            x       y       z     vdW  Elec       q    Type
REMARK                         _______ _______ _______ _____ _____    ______ ____
ROOT
ATOM      1  C   UNL     1       3.270   3.432  32.933  0.00  0.00    +0.163 C 
ENDROOT
BRANCH   1   2
ATOM      2  O   UNL     1       3.609   4.749  32.466  0.00  0.00    -0.388 OA
ATOM      3  H   UNL     1       3.125   5.403  32.975  0.00  0.00    +0.210 HD
ENDBRANCH   1   2
BRANCH   1   4
ATOM      4  C   UNL     1       1.765   3.213  32.829  0.00  0.00    +0.141 C 
BRANCH   4   7
ATOM      5  C   UNL     1       1.183   3.159  30.428  0.00  0.00    +0.401 C 
ATOM      6  O   UNL     1       1.630   2.024  30.249  0.00  0.00    -0.226 OA
ATOM      7  N   UNL     1       1.210   3.795  31.601  0.00  0.00    -0.279 N 
ATOM      8  H   UNL     1       0.827   4.728  31.646  0.00  0.00    +0.152 HD
BRANCH   5   9
ATOM      9  O   UNL     1       0.600   3.858  29.326  0.00  0.00    -0.444 OA
BRANCH   9  10
ATOM     10  C   UNL     1       0.217   2.921  28.315  0.00  0.00    +0.292 C 
BRANCH  10  12
ATOM     11  N   UNL     1       2.112   3.832  27.011  0.00  0.00    -0.131 NA
ATOM     12  C   UNL     1       0.880   3.247  27.038  0.00  0.00    +0.121 A 
ATOM     13  C   UNL     1       0.452   3.043  25.746  0.00  0.00    +0.143 A 
ATOM     14  N   UNL     1       1.481   3.498  24.955  0.00  0.00    -0.220 N 
ATOM     15  N   UNL     1       2.468   3.988  25.743  0.00  0.00    -0.060 NA
BRANCH  14  16
ATOM     16  C   UNL     1       1.591   3.471  23.539  0.00  0.00    +0.067 A 
ATOM     17  C   UNL     1       1.706   2.255  22.849  0.00  0.00    +0.029 A 
ATOM     18  C   UNL     1       1.856   2.251  21.458  0.00  0.00    +0.017 A 
ATOM     19  C   UNL     1       1.886   3.454  20.758  0.00  0.00    +0.018 A 
ATOM     20 BR   UNL     1       2.115   3.440  18.881  0.00  0.00    -0.050 Br
ATOM     21  C   UNL     1       1.757   4.667  21.431  0.00  0.00    +0.017 A 
ATOM     22  C   UNL     1       1.607   4.677  22.821  0.00  0.00    +0.029 A 
ENDBRANCH  14  16
ENDBRANCH  10  12
ENDBRANCH   9  10
ENDBRANCH   5   9
ENDBRANCH   4   7
ENDBRANCH   1   4
BRANCH   1  23
ATOM     23  C   UNL     1       3.720   3.233  34.391  0.00  0.00    +0.175 C 
BRANCH  23  24
ATOM     24  C   UNL     1       5.248   3.278  34.535  0.00  0.00    +0.176 C 
ATOM     25  O   UNL     1       5.676   4.654  34.340  0.00  0.00    -0.332 OA
ATOM     26  C   UNL     1       7.104   4.910  34.547  0.00  0.00    +0.277 C 
ATOM     27  C   UNL     1       7.956   3.966  33.663  0.00  0.00    +0.110 C 
ATOM     28  C   UNL     1       7.517   2.494  33.813  0.00  0.00    +0.143 C 
ATOM     29  C   UNL     1       6.014   2.344  33.580  0.00  0.00    +0.133 C 
BRANCH  29  30
ATOM     30  N   UNL     1       5.593   0.953  33.811  0.00  0.00    -0.308 N 
ATOM     31  H   UNL     1       5.677   0.584  34.748  0.00  0.00    +0.149 HD
ATOM     32  C   UNL     1       5.108   0.146  32.864  0.00  0.00    +0.210 C 
ATOM     33  C   UNL     1       5.017   0.729  31.441  0.00  0.00    +0.109 C 
ATOM     34  O   UNL     1       4.750  -1.011  33.090  0.00  0.00    -0.276 OA
ENDBRANCH  29  30
BRANCH  26  35
ATOM     35  C   UNL     1       7.486   4.713  36.028  0.00  0.00    +0.414 C 
ATOM     36  O   UNL     1       6.637   4.360  36.846  0.00  0.00    -0.240 OA
ATOM     37  O   UNL     1       8.642   4.906  36.406  0.00  0.00    -0.240 OA
ENDBRANCH  26  35
BRANCH  28  38
ATOM     38  O   UNL     1       8.223   1.683  32.873  0.00  0.00    -0.390 OA
ATOM     39  H   UNL     1       9.061   1.409  33.252  0.00  0.00    +0.210 HD
ENDBRANCH  28  38
BRANCH  26  40
ATOM     40  O   UNL     1       7.377   6.278  34.150  0.00  0.00    -0.343 OA
ATOM     41  C   UNL     1       6.292   7.212  34.383  0.00  0.00    +0.198 C 
ENDBRANCH  26  40
ENDBRANCH  23  24
BRANCH  23  42
ATOM     42  O   UNL     1       3.209   1.986  34.902  0.00  0.00    -0.387 OA
ATOM     43  H   UNL     1       2.425   2.153  35.430  0.00  0.00    +0.210 HD
ENDBRANCH  23  42
ENDBRANCH   1  23
TORSDOF 14
