REMARK VINA RESULT:    -5.012     19.042     23.539
REMARK INTER + INTRA:         -12.856
REMARK INTER:                 -11.023
REMARK INTRA:                  -1.833
REMARK UNBOUND:                -3.888
REMARK  Name = lig_assembled_46.pdb
REMARK  17 active torsions:
REMARK  status: ('A' for Active; 'I' for Inactive)
REMARK    1  A    between atoms: _2  and  _9
REMARK    2  A    between atoms: _4  and  _19
REMARK    3  A    between atoms: _6  and  _7
REMARK    4  A    between atoms: _6  and  _19
REMARK    5  A    between atoms: _9  and  _10
REMARK    6  A    between atoms: _15  and  _35
REMARK    7  A    between atoms: _17  and  _23
REMARK    8  A    between atoms: _18  and  _22
REMARK    9  A    between atoms: _22  and  _23
REMARK   10  A    between atoms: _25  and  _26
REMARK   11  A    between atoms: _27  and  _28
REMARK   12  A    between atoms: _29  and  _31
REMARK   13  A    between atoms: _31  and  _32
REMARK   14  A    between atoms: _31  and  _33
REMARK   15  A    between atoms: _33  and  _34
REMARK   16  A    between atoms: _33  and  _35
REMARK   17  A    between atoms: _36  and  _38
REMARK                            x       y       z     vdW  Elec       q    Type
REMARK                         _______ _______ _______ _____ _____    ______ ____
ROOT
ATOM      1  C   UNL     1      -1.408  18.740  12.339  0.00  0.00    +0.163 C 
ENDROOT
BRANCH   1   2
ATOM      2  O   UNL     1       0.026  18.793  12.429  0.00  0.00    -0.388 OA
ATOM      3  H   UNL     1       0.302  18.536  13.312  0.00  0.00    +0.210 HD
ENDBRANCH   1   2
BRANCH   1   4
ATOM      4  C   UNL     1      -2.029  19.730  13.319  0.00  0.00    +0.141 C 
BRANCH   4   7
ATOM      5  C   UNL     1      -0.823  21.298  14.800  0.00  0.00    +0.401 C 
ATOM      6  O   UNL     1      -1.275  22.308  14.255  0.00  0.00    -0.226 OA
ATOM      7  N   UNL     1      -1.117  20.053  14.423  0.00  0.00    -0.279 N 
ATOM      8  H   UNL     1      -0.689  19.288  14.926  0.00  0.00    +0.152 HD
BRANCH   5   9
ATOM      9  O   UNL     1       0.077  21.446  15.901  0.00  0.00    -0.444 OA
BRANCH   9  10
ATOM     10  C   UNL     1      -0.443  22.416  16.815  0.00  0.00    +0.292 C 
BRANCH  10  12
ATOM     11  N   UNL     1       0.557  22.352  19.078  0.00  0.00    -0.131 NA
ATOM     12  C   UNL     1      -0.388  21.901  18.197  0.00  0.00    +0.120 A 
ATOM     13  C   UNL     1      -1.205  20.994  18.837  0.00  0.00    +0.137 A 
ATOM     14  N   UNL     1      -0.742  20.981  20.122  0.00  0.00    -0.247 N 
ATOM     15  N   UNL     1       0.327  21.789  20.259  0.00  0.00    -0.065 NA
BRANCH  14  16
ATOM     16  C   UNL     1      -1.404  20.437  21.295  0.00  0.00    +0.180 C 
BRANCH  16  17
ATOM     17  C   UNL     1      -1.578  18.939  21.255  0.00  0.00    -0.026 A 
ATOM     18  C   UNL     1      -0.511  18.097  20.904  0.00  0.00    +0.005 A 
ATOM     19  C   UNL     1      -0.655  16.709  20.963  0.00  0.00    +0.000 A 
ATOM     20  C   UNL     1      -1.860  16.147  21.374  0.00  0.00    +0.000 A 
ATOM     21  C   UNL     1      -2.930  16.971  21.717  0.00  0.00    +0.000 A 
ATOM     22  C   UNL     1      -2.791  18.359  21.658  0.00  0.00    +0.005 A 
ENDBRANCH  16  17
ENDBRANCH  14  16
ENDBRANCH  10  12
ENDBRANCH   9  10
ENDBRANCH   5   9
ENDBRANCH   4   7
ENDBRANCH   1   4
BRANCH   1  23
ATOM     23  C   UNL     1      -1.925  17.323  12.643  0.00  0.00    +0.175 C 
BRANCH  23  24
ATOM     24  C   UNL     1      -0.938  16.237  12.189  0.00  0.00    +0.176 C 
ATOM     25  O   UNL     1      -0.417  16.623  10.888  0.00  0.00    -0.332 OA
ATOM     26  C   UNL     1       0.628  15.752  10.340  0.00  0.00    +0.277 C 
ATOM     27  C   UNL     1       0.138  14.284  10.293  0.00  0.00    +0.110 C 
ATOM     28  C   UNL     1      -0.454  13.838  11.646  0.00  0.00    +0.143 C 
ATOM     29  C   UNL     1      -1.528  14.816  12.124  0.00  0.00    +0.133 C 
BRANCH  29  30
ATOM     30  N   UNL     1      -2.023  14.429  13.455  0.00  0.00    -0.308 N 
ATOM     31  H   UNL     1      -1.385  14.501  14.235  0.00  0.00    +0.149 HD
ATOM     32  C   UNL     1      -3.260  13.987  13.698  0.00  0.00    +0.210 C 
ATOM     33  C   UNL     1      -4.200  13.864  12.484  0.00  0.00    +0.109 C 
ATOM     34  O   UNL     1      -3.652  13.683  14.826  0.00  0.00    -0.276 OA
ENDBRANCH  29  30
BRANCH  26  35
ATOM     35  C   UNL     1       1.914  15.840  11.187  0.00  0.00    +0.414 C 
ATOM     36  O   UNL     1       2.904  15.176  10.883  0.00  0.00    -0.240 OA
ATOM     37  O   UNL     1       1.962  16.575  12.174  0.00  0.00    -0.240 OA
ENDBRANCH  26  35
BRANCH  26  38
ATOM     38  O   UNL     1       0.906  16.185   8.983  0.00  0.00    -0.343 OA
ATOM     39  C   UNL     1       1.314  17.570   8.854  0.00  0.00    +0.198 C 
ENDBRANCH  26  38
BRANCH  28  40
ATOM     40  O   UNL     1      -1.028  12.537  11.516  0.00  0.00    -0.390 OA
ATOM     41  H   UNL     1      -1.751  12.567  10.885  0.00  0.00    +0.210 HD
ENDBRANCH  28  40
ENDBRANCH  23  24
BRANCH  23  42
ATOM     42  O   UNL     1      -3.209  17.119  12.021  0.00  0.00    -0.387 OA
ATOM     43  H   UNL     1      -3.897  17.146  12.689  0.00  0.00    +0.210 HD
ENDBRANCH  23  42
ENDBRANCH   1  23
TORSDOF 15
