REMARK VINA RESULT:    -6.487      1.340      1.983
REMARK INTER + INTRA:         -13.080
REMARK INTER:                 -11.099
REMARK INTRA:                  -1.981
REMARK UNBOUND:                -1.853
REMARK  Name = lig_assembled_86.pdb
REMARK  17 active torsions:
REMARK  status: ('A' for Active; 'I' for Inactive)
REMARK    1  A    between atoms: _2  and  _10
REMARK    2  A    between atoms: _3  and  _13
REMARK    3  A    between atoms: _5  and  _21
REMARK    4  A    between atoms: _7  and  _8
REMARK    5  A    between atoms: _7  and  _21
REMARK    6  A    between atoms: _17  and  _37
REMARK    7  A    between atoms: _19  and  _25
REMARK    8  A    between atoms: _20  and  _24
REMARK    9  A    between atoms: _24  and  _25
REMARK   10  A    between atoms: _27  and  _28
REMARK   11  A    between atoms: _29  and  _30
REMARK   12  A    between atoms: _31  and  _33
REMARK   13  A    between atoms: _33  and  _34
REMARK   14  A    between atoms: _33  and  _35
REMARK   15  A    between atoms: _35  and  _36
REMARK   16  A    between atoms: _35  and  _37
REMARK   17  A    between atoms: _38  and  _40
REMARK                            x       y       z     vdW  Elec       q    Type
REMARK                         _______ _______ _______ _____ _____    ______ ____
ROOT
ATOM      1  C   UNL     1       4.195   3.647  32.427  0.00  0.00    +0.163 C 
ENDROOT
BRANCH   1   2
ATOM      2  O   UNL     1       3.407   4.018  33.570  0.00  0.00    -0.388 OA
ATOM      3  H   UNL     1       3.742   3.567  34.349  0.00  0.00    +0.210 HD
ENDBRANCH   1   2
BRANCH   1   4
ATOM      4  C   UNL     1       3.426   2.654  31.563  0.00  0.00    +0.141 C 
BRANCH   4   7
ATOM      5  C   UNL     1       1.319   3.751  30.882  0.00  0.00    +0.401 C 
ATOM      6  O   UNL     1       0.779   3.606  31.981  0.00  0.00    -0.226 OA
ATOM      7  N   UNL     1       2.552   3.331  30.597  0.00  0.00    -0.279 N 
ATOM      8  H   UNL     1       2.905   3.487  29.663  0.00  0.00    +0.152 HD
BRANCH   5   9
ATOM      9  O   UNL     1       0.597   4.402  29.834  0.00  0.00    -0.444 OA
BRANCH   9  10
ATOM     10  C   UNL     1      -0.144   3.431  29.090  0.00  0.00    +0.292 C 
BRANCH  10  12
ATOM     11  N   UNL     1       1.634   3.743  27.389  0.00  0.00    -0.131 NA
ATOM     12  C   UNL     1       0.355   3.362  27.703  0.00  0.00    +0.120 A 
ATOM     13  C   UNL     1      -0.277   2.935  26.560  0.00  0.00    +0.137 A 
ATOM     14  N   UNL     1       0.676   3.044  25.593  0.00  0.00    -0.248 N 
ATOM     15  N   UNL     1       1.815   3.560  26.087  0.00  0.00    -0.065 NA
BRANCH  14  16
ATOM     16  C   UNL     1       0.560   2.667  24.193  0.00  0.00    +0.112 C 
ATOM     17  C   UNL     1      -0.682   3.296  23.529  0.00  0.00    +0.045 C 
ATOM     18  C   UNL     1      -0.422   3.929  22.159  0.00  0.00    +0.059 C 
ATOM     19  C   UNL     1       0.281   5.283  22.300  0.00  0.00    +0.020 C 
ATOM     20  C   UNL     1       1.767   4.961  22.173  0.00  0.00    +0.020 C 
ATOM     21  C   UNL     1       1.820   3.436  22.051  0.00  0.00    +0.059 C 
ATOM     22  N   UNL     1       0.553   3.181  21.366  0.00  0.00    -0.299 NA
ATOM     23  C   UNL     1       0.240   1.793  21.083  0.00  0.00    +0.105 C 
ATOM     24  C   UNL     1       1.902   2.769  23.431  0.00  0.00    +0.045 C 
ENDBRANCH  14  16
ENDBRANCH  10  12
ENDBRANCH   9  10
ENDBRANCH   5   9
ENDBRANCH   4   7
ENDBRANCH   1   4
BRANCH   1  25
ATOM     25  C   UNL     1       5.533   3.024  32.860  0.00  0.00    +0.175 C 
BRANCH  25  26
ATOM     26  C   UNL     1       6.012   3.566  34.214  0.00  0.00    +0.176 C 
ATOM     27  O   UNL     1       6.416   4.950  34.025  0.00  0.00    -0.332 OA
ATOM     28  C   UNL     1       6.807   5.669  35.241  0.00  0.00    +0.277 C 
ATOM     29  C   UNL     1       7.919   4.897  35.992  0.00  0.00    +0.110 C 
ATOM     30  C   UNL     1       7.549   3.412  36.189  0.00  0.00    +0.143 C 
ATOM     31  C   UNL     1       7.157   2.764  34.862  0.00  0.00    +0.133 C 
BRANCH  31  32
ATOM     32  N   UNL     1       6.723   1.374  35.075  0.00  0.00    -0.308 N 
ATOM     33  H   UNL     1       5.999   1.206  35.760  0.00  0.00    +0.149 HD
ATOM     34  C   UNL     1       7.223   0.320  34.424  0.00  0.00    +0.210 C 
ATOM     35  C   UNL     1       8.343   0.607  33.407  0.00  0.00    +0.109 C 
ATOM     36  O   UNL     1       6.830  -0.831  34.613  0.00  0.00    -0.276 OA
ENDBRANCH  31  32
BRANCH  28  37
ATOM     37  C   UNL     1       5.594   5.863  36.175  0.00  0.00    +0.414 C 
ATOM     38  O   UNL     1       4.456   5.925  35.710  0.00  0.00    -0.240 OA
ATOM     39  O   UNL     1       5.752   5.957  37.393  0.00  0.00    -0.240 OA
ENDBRANCH  28  37
BRANCH  30  40
ATOM     40  O   UNL     1       8.660   2.709  36.747  0.00  0.00    -0.390 OA
ATOM     41  H   UNL     1       8.509   2.562  37.684  0.00  0.00    +0.210 HD
ENDBRANCH  30  40
BRANCH  28  42
ATOM     42  O   UNL     1       7.332   6.963  34.849  0.00  0.00    -0.343 OA
ATOM     43  C   UNL     1       8.138   7.627  35.855  0.00  0.00    +0.198 C 
ENDBRANCH  28  42
ENDBRANCH  25  26
BRANCH  25  44
ATOM     44  O   UNL     1       6.537   3.252  31.850  0.00  0.00    -0.387 OA
ATOM     45  H   UNL     1       6.226   3.920  31.235  0.00  0.00    +0.210 HD
ENDBRANCH  25  44
ENDBRANCH   1  25
TORSDOF 14
