REMARK VINA RESULT:    -5.861     14.368     18.481
REMARK INTER + INTRA:         -12.998
REMARK INTER:                 -10.795
REMARK INTRA:                  -2.203
REMARK UNBOUND:                -2.511
REMARK  Name = lig_assembled_6.pdb
REMARK  17 active torsions:
REMARK  status: ('A' for Active; 'I' for Inactive)
REMARK    1  A    between atoms: _2  and  _10
REMARK    2  A    between atoms: _3  and  _13
REMARK    3  A    between atoms: _5  and  _21
REMARK    4  A    between atoms: _7  and  _8
REMARK    5  A    between atoms: _7  and  _21
REMARK    6  A    between atoms: _17  and  _37
REMARK    7  A    between atoms: _19  and  _25
REMARK    8  A    between atoms: _20  and  _24
REMARK    9  A    between atoms: _24  and  _25
REMARK   10  A    between atoms: _27  and  _28
REMARK   11  A    between atoms: _29  and  _30
REMARK   12  A    between atoms: _31  and  _33
REMARK   13  A    between atoms: _33  and  _34
REMARK   14  A    between atoms: _33  and  _35
REMARK   15  A    between atoms: _35  and  _36
REMARK   16  A    between atoms: _35  and  _37
REMARK   17  A    between atoms: _38  and  _40
REMARK                            x       y       z     vdW  Elec       q    Type
REMARK                         _______ _______ _______ _____ _____    ______ ____
ROOT
ATOM      1  C   UNL     1      16.786   0.934  26.179  0.00  0.00    +0.163 C 
ENDROOT
BRANCH   1   2
ATOM      2  O   UNL     1      15.664   0.052  26.345  0.00  0.00    -0.388 OA
ATOM      3  H   UNL     1      14.960   0.512  26.808  0.00  0.00    +0.210 HD
ENDBRANCH   1   2
BRANCH   1   4
ATOM      4  C   UNL     1      16.389   2.358  26.552  0.00  0.00    +0.141 C 
BRANCH   4   7
ATOM      5  C   UNL     1      18.170   3.625  27.704  0.00  0.00    +0.401 C 
ATOM      6  O   UNL     1      17.833   3.256  28.831  0.00  0.00    -0.226 OA
ATOM      7  N   UNL     1      17.548   3.259  26.583  0.00  0.00    -0.279 N 
ATOM      8  H   UNL     1      17.893   3.622  25.705  0.00  0.00    +0.152 HD
BRANCH   5   9
ATOM      9  O   UNL     1      19.292   4.502  27.566  0.00  0.00    -0.444 OA
BRANCH   9  10
ATOM     10  C   UNL     1      18.982   5.528  26.620  0.00  0.00    +0.292 C 
BRANCH  10  12
ATOM     11  N   UNL     1      19.020   8.002  26.533  0.00  0.00    -0.131 NA
ATOM     12  C   UNL     1      19.020   6.853  27.269  0.00  0.00    +0.121 A 
ATOM     13  C   UNL     1      19.048   7.175  28.606  0.00  0.00    +0.143 A 
ATOM     14  N   UNL     1      19.032   8.551  28.640  0.00  0.00    -0.220 N 
ATOM     15  N   UNL     1      19.035   9.029  27.373  0.00  0.00    -0.060 NA
BRANCH  14  16
ATOM     16  C   UNL     1      18.976   9.411  29.770  0.00  0.00    +0.067 A 
ATOM     17  C   UNL     1      18.064   9.169  30.809  0.00  0.00    +0.034 A 
ATOM     18  C   UNL     1      17.976  10.057  31.886  0.00  0.00    +0.086 A 
ATOM     19  C   UNL     1      18.801  11.187  31.926  0.00  0.00    +0.273 A 
ATOM     20  C   UNL     1      19.733  11.423  30.909  0.00  0.00    +0.086 A 
ATOM     21  C   UNL     1      19.820  10.532  29.833  0.00  0.00    +0.034 A 
BRANCH  19  22
ATOM     22  N   UNL     1      18.673  12.138  33.038  0.00  0.00    +0.080 N 
ATOM     23  O   UNL     1      19.703  12.707  33.430  0.00  0.00    +0.041 OA
ATOM     24  O   UNL     1      17.547  12.310  33.523  0.00  0.00    -0.576 OA
ENDBRANCH  19  22
ENDBRANCH  14  16
ENDBRANCH  10  12
ENDBRANCH   9  10
ENDBRANCH   5   9
ENDBRANCH   4   7
ENDBRANCH   1   4
BRANCH   1  25
ATOM     25  C   UNL     1      17.298   0.906  24.728  0.00  0.00    +0.175 C 
BRANCH  25  26
ATOM     26  C   UNL     1      17.400  -0.524  24.179  0.00  0.00    +0.176 C 
ATOM     27  O   UNL     1      17.703  -1.410  25.291  0.00  0.00    -0.332 OA
ATOM     28  C   UNL     1      17.734  -2.841  24.973  0.00  0.00    +0.277 C 
ATOM     29  C   UNL     1      18.713  -3.114  23.805  0.00  0.00    +0.110 C 
ATOM     30  C   UNL     1      18.451  -2.173  22.610  0.00  0.00    +0.143 C 
ATOM     31  C   UNL     1      18.436  -0.711  23.055  0.00  0.00    +0.133 C 
BRANCH  31  32
ATOM     32  N   UNL     1      18.099   0.169  21.925  0.00  0.00    -0.308 N 
ATOM     33  H   UNL     1      17.147   0.159  21.587  0.00  0.00    +0.149 HD
ATOM     34  C   UNL     1      18.969   0.979  21.316  0.00  0.00    +0.210 C 
ATOM     35  C   UNL     1      20.418   0.952  21.838  0.00  0.00    +0.109 C 
ATOM     36  O   UNL     1      18.655   1.716  20.381  0.00  0.00    -0.276 OA
ENDBRANCH  31  32
BRANCH  28  37
ATOM     37  C   UNL     1      16.327  -3.348  24.594  0.00  0.00    +0.414 C 
ATOM     38  O   UNL     1      16.196  -4.304  23.831  0.00  0.00    -0.240 OA
ATOM     39  O   UNL     1      15.322  -2.801  25.052  0.00  0.00    -0.240 OA
ENDBRANCH  28  37
BRANCH  30  40
ATOM     40  O   UNL     1      19.466  -2.355  21.622  0.00  0.00    -0.390 OA
ATOM     41  H   UNL     1      19.202  -3.050  21.015  0.00  0.00    +0.210 HD
ENDBRANCH  30  40
BRANCH  28  42
ATOM     42  O   UNL     1      18.210  -3.552  26.144  0.00  0.00    -0.343 OA
ATOM     43  C   UNL     1      17.899  -2.920  27.412  0.00  0.00    +0.198 C 
ENDBRANCH  28  42
ENDBRANCH  25  26
BRANCH  25  44
ATOM     44  O   UNL     1      18.577   1.564  24.640  0.00  0.00    -0.387 OA
ATOM     45  H   UNL     1      18.453   2.465  24.333  0.00  0.00    +0.210 HD
ENDBRANCH  25  44
ENDBRANCH   1  25
TORSDOF 15
