REMARK VINA RESULT:    -6.618     14.467     18.533
REMARK INTER + INTRA:         -13.717
REMARK INTER:                 -11.756
REMARK INTRA:                  -1.961
REMARK UNBOUND:                -1.875
REMARK  Name = lig_assembled_82.pdb
REMARK  19 active torsions:
REMARK  status: ('A' for Active; 'I' for Inactive)
REMARK    1  A    between atoms: _2  and  _9
REMARK    2  A    between atoms: _4  and  _22
REMARK    3  A    between atoms: _5  and  _16
REMARK    4  A    between atoms: _6  and  _7
REMARK    5  A    between atoms: _6  and  _22
REMARK    6  A    between atoms: _9  and  _10
REMARK    7  A    between atoms: _16  and  _17
REMARK    8  A    between atoms: _18  and  _38
REMARK    9  A    between atoms: _20  and  _26
REMARK   10  A    between atoms: _21  and  _25
REMARK   11  A    between atoms: _25  and  _26
REMARK   12  A    between atoms: _28  and  _29
REMARK   13  A    between atoms: _30  and  _31
REMARK   14  A    between atoms: _32  and  _34
REMARK   15  A    between atoms: _34  and  _35
REMARK   16  A    between atoms: _34  and  _36
REMARK   17  A    between atoms: _36  and  _37
REMARK   18  A    between atoms: _36  and  _38
REMARK   19  A    between atoms: _39  and  _41
REMARK                            x       y       z     vdW  Elec       q    Type
REMARK                         _______ _______ _______ _____ _____    ______ ____
ROOT
ATOM      1  C   UNL     1      18.314   5.592  23.672  0.00  0.00    +0.163 C 
ENDROOT
BRANCH   1   2
ATOM      2  O   UNL     1      17.287   5.595  22.667  0.00  0.00    -0.388 OA
ATOM      3  H   UNL     1      17.588   5.101  21.900  0.00  0.00    +0.210 HD
ENDBRANCH   1   2
BRANCH   1   4
ATOM      4  C   UNL     1      19.302   6.724  23.412  0.00  0.00    +0.141 C 
BRANCH   4   7
ATOM      5  C   UNL     1      20.716   7.608  25.236  0.00  0.00    +0.401 C 
ATOM      6  O   UNL     1      21.726   6.999  24.875  0.00  0.00    -0.226 OA
ATOM      7  N   UNL     1      19.538   7.533  24.614  0.00  0.00    -0.279 N 
ATOM      8  H   UNL     1      18.765   8.062  24.992  0.00  0.00    +0.152 HD
BRANCH   5   9
ATOM      9  O   UNL     1      20.786   8.447  26.391  0.00  0.00    -0.444 OA
BRANCH   9  10
ATOM     10  C   UNL     1      19.540   9.127  26.565  0.00  0.00    +0.292 C 
BRANCH  10  12
ATOM     11  N   UNL     1      18.595  10.233  28.566  0.00  0.00    -0.131 NA
ATOM     12  C   UNL     1      19.128   9.113  27.972  0.00  0.00    +0.120 A 
ATOM     13  C   UNL     1      19.182   8.102  28.914  0.00  0.00    +0.137 A 
ATOM     14  N   UNL     1      18.795   8.707  30.076  0.00  0.00    -0.247 N 
ATOM     15  N   UNL     1      18.359   9.959  29.842  0.00  0.00    -0.065 NA
BRANCH  14  16
ATOM     16  C   UNL     1      18.895   8.198  31.446  0.00  0.00    +0.176 C 
BRANCH  16  17
ATOM     17  C   UNL     1      17.737   8.631  32.312  0.00  0.00    -0.049 C 
ATOM     18  C   UNL     1      17.979   9.727  33.301  0.00  0.00    +0.023 C 
ATOM     19  C   UNL     1      16.806  10.772  33.579  0.00  0.00    -0.025 C 
ATOM     20  C   UNL     1      15.721  11.339  32.655  0.00  0.00    +0.012 C 
ATOM     21  C   UNL     1      16.206   9.542  34.408  0.00  0.00    -0.000 C 
ATOM     22  C   UNL     1      15.582   8.409  33.534  0.00  0.00    +0.031 C 
ATOM     23  C   UNL     1      17.536  11.998  34.181  0.00  0.00    +0.012 C 
ATOM     24  C   UNL     1      17.677   9.189  34.758  0.00  0.00    +0.012 C 
ATOM     25  C   UNL     1      16.543   8.019  32.422  0.00  0.00    -0.025 C 
ENDBRANCH  16  17
ENDBRANCH  14  16
ENDBRANCH  10  12
ENDBRANCH   9  10
ENDBRANCH   5   9
ENDBRANCH   4   7
ENDBRANCH   1   4
BRANCH   1  26
ATOM     26  C   UNL     1      19.064   4.249  23.689  0.00  0.00    +0.175 C 
BRANCH  26  27
ATOM     27  C   UNL     1      18.301   3.171  24.474  0.00  0.00    +0.176 C 
ATOM     28  O   UNL     1      19.112   2.795  25.620  0.00  0.00    -0.332 OA
ATOM     29  C   UNL     1      18.493   1.846  26.550  0.00  0.00    +0.277 C 
ATOM     30  C   UNL     1      18.031   0.574  25.797  0.00  0.00    +0.110 C 
ATOM     31  C   UNL     1      17.191   0.925  24.551  0.00  0.00    +0.143 C 
ATOM     32  C   UNL     1      17.928   1.921  23.655  0.00  0.00    +0.133 C 
BRANCH  32  33
ATOM     33  N   UNL     1      17.082   2.314  22.517  0.00  0.00    -0.308 N 
ATOM     34  H   UNL     1      16.279   2.897  22.705  0.00  0.00    +0.149 HD
ATOM     35  C   UNL     1      17.307   1.950  21.251  0.00  0.00    +0.210 C 
ATOM     36  C   UNL     1      18.524   1.039  21.002  0.00  0.00    +0.109 C 
ATOM     37  O   UNL     1      16.590   2.306  20.316  0.00  0.00    -0.276 OA
ENDBRANCH  32  33
BRANCH  29  38
ATOM     38  C   UNL     1      17.288   2.488  27.267  0.00  0.00    +0.414 C 
ATOM     39  O   UNL     1      17.466   3.301  28.173  0.00  0.00    -0.240 OA
ATOM     40  O   UNL     1      16.137   2.195  26.938  0.00  0.00    -0.240 OA
ENDBRANCH  29  38
BRANCH  29  41
ATOM     41  O   UNL     1      19.493   1.460  27.528  0.00  0.00    -0.343 OA
ATOM     42  C   UNL     1      19.227   0.210  28.215  0.00  0.00    +0.198 C 
ENDBRANCH  29  41
BRANCH  31  43
ATOM     43  O   UNL     1      16.915  -0.262  23.807  0.00  0.00    -0.390 OA
ATOM     44  H   UNL     1      17.736  -0.727  23.629  0.00  0.00    +0.210 HD
ENDBRANCH  31  43
ENDBRANCH  26  27
BRANCH  26  45
ATOM     45  O   UNL     1      20.384   4.424  24.240  0.00  0.00    -0.387 OA
ATOM     46  H   UNL     1      20.706   5.303  24.028  0.00  0.00    +0.210 HD
ENDBRANCH  26  45
ENDBRANCH   1  26
TORSDOF 15
