REMARK VINA RESULT:    -6.118     13.116     15.033
REMARK INTER + INTRA:         -13.260
REMARK INTER:                 -11.304
REMARK INTRA:                  -1.955
REMARK UNBOUND:                -1.955
REMARK  Name = lig_assembled_78.pdb
REMARK  18 active torsions:
REMARK  status: ('A' for Active; 'I' for Inactive)
REMARK    1  A    between atoms: _2  and  _9
REMARK    2  A    between atoms: _4  and  _21
REMARK    3  A    between atoms: _6  and  _7
REMARK    4  A    between atoms: _6  and  _21
REMARK    5  A    between atoms: _9  and  _41
REMARK    6  A    between atoms: _10  and  _41
REMARK    7  A    between atoms: _17  and  _37
REMARK    8  A    between atoms: _19  and  _25
REMARK    9  A    between atoms: _20  and  _24
REMARK   10  A    between atoms: _24  and  _25
REMARK   11  A    between atoms: _27  and  _28
REMARK   12  A    between atoms: _29  and  _30
REMARK   13  A    between atoms: _31  and  _33
REMARK   14  A    between atoms: _33  and  _34
REMARK   15  A    between atoms: _33  and  _35
REMARK   16  A    between atoms: _35  and  _36
REMARK   17  A    between atoms: _35  and  _37
REMARK   18  A    between atoms: _38  and  _40
REMARK                            x       y       z     vdW  Elec       q    Type
REMARK                         _______ _______ _______ _____ _____    ______ ____
ROOT
ATOM      1  C   UNL     1      18.900  10.605  29.966  0.00  0.00    +0.163 C 
ENDROOT
BRANCH   1   2
ATOM      2  O   UNL     1      17.556  10.877  29.537  0.00  0.00    -0.388 OA
ATOM      3  H   UNL     1      17.049  11.225  30.274  0.00  0.00    +0.210 HD
ENDBRANCH   1   2
BRANCH   1   4
ATOM      4  C   UNL     1      18.973   9.276  30.738  0.00  0.00    +0.175 C 
BRANCH   4   5
ATOM      5  C   UNL     1      17.877   9.169  31.808  0.00  0.00    +0.176 C 
ATOM      6  O   UNL     1      17.965  10.346  32.658  0.00  0.00    -0.332 OA
ATOM      7  C   UNL     1      16.921  10.469  33.680  0.00  0.00    +0.277 C 
ATOM      8  C   UNL     1      16.869   9.194  34.557  0.00  0.00    +0.110 C 
ATOM      9  C   UNL     1      16.808   7.914  33.697  0.00  0.00    +0.143 C 
ATOM     10  C   UNL     1      17.936   7.891  32.665  0.00  0.00    +0.133 C 
BRANCH  10  11
ATOM     11  N   UNL     1      17.815   6.710  31.796  0.00  0.00    -0.308 N 
ATOM     12  H   UNL     1      17.007   6.649  31.192  0.00  0.00    +0.149 HD
ATOM     13  C   UNL     1      18.703   5.713  31.752  0.00  0.00    +0.210 C 
ATOM     14  C   UNL     1      19.910   5.822  32.703  0.00  0.00    +0.109 C 
ATOM     15  O   UNL     1      18.583   4.743  31.003  0.00  0.00    -0.276 OA
ENDBRANCH  10  11
BRANCH   7  16
ATOM     16  C   UNL     1      15.542  10.703  33.029  0.00  0.00    +0.414 C 
ATOM     17  O   UNL     1      15.454  11.319  31.967  0.00  0.00    -0.240 OA
ATOM     18  O   UNL     1      14.518  10.276  33.564  0.00  0.00    -0.240 OA
ENDBRANCH   7  16
BRANCH   7  19
ATOM     19  O   UNL     1      17.257  11.595  34.531  0.00  0.00    -0.343 OA
ATOM     20  C   UNL     1      17.072  11.367  35.950  0.00  0.00    +0.198 C 
ENDBRANCH   7  19
BRANCH   9  21
ATOM     21  O   UNL     1      16.914   6.764  34.537  0.00  0.00    -0.390 OA
ATOM     22  H   UNL     1      16.747   5.972  34.020  0.00  0.00    +0.210 HD
ENDBRANCH   9  21
ENDBRANCH   4   5
BRANCH   4  23
ATOM     23  O   UNL     1      20.273   9.123  31.341  0.00  0.00    -0.387 OA
ATOM     24  H   UNL     1      20.511   8.193  31.357  0.00  0.00    +0.210 HD
ENDBRANCH   4  23
ENDBRANCH   1   4
BRANCH   1  25
ATOM     25  C   UNL     1      19.831  10.544  28.759  0.00  0.00    +0.141 C 
BRANCH  25  28
ATOM     26  C   UNL     1      19.608   8.659  27.178  0.00  0.00    +0.401 C 
ATOM     27  O   UNL     1      20.543   8.018  27.663  0.00  0.00    -0.226 OA
ATOM     28  N   UNL     1      19.210   9.851  27.623  0.00  0.00    -0.279 N 
ATOM     29  H   UNL     1      18.439  10.303  27.153  0.00  0.00    +0.152 HD
BRANCH  26  30
ATOM     30  O   UNL     1      18.894   8.111  26.066  0.00  0.00    -0.444 OA
BRANCH  30  31
ATOM     31  C   UNL     1      19.818   7.522  25.148  0.00  0.00    +0.292 C 
BRANCH  31  33
ATOM     32  N   UNL     1      18.135   6.633  23.562  0.00  0.00    -0.131 NA
ATOM     33  C   UNL     1      19.179   6.411  24.419  0.00  0.00    +0.120 A 
ATOM     34  C   UNL     1      19.465   5.064  24.439  0.00  0.00    +0.139 A 
ATOM     35  N   UNL     1      18.601   4.531  23.529  0.00  0.00    -0.230 N 
ATOM     36  N   UNL     1      17.772   5.469  23.039  0.00  0.00    -0.064 NA
BRANCH  35  37
ATOM     37  C   UNL     1      18.443   3.153  23.135  0.00  0.00    +0.316 C 
BRANCH  37  38
ATOM     38  S   UNL     1      17.070   2.345  23.915  0.00  0.00    +0.017 S 
ATOM     39  O   UNL     1      17.193   2.441  25.356  0.00  0.00    -0.168 OA
ATOM     40  O   UNL     1      15.857   2.773  23.240  0.00  0.00    -0.168 OA
BRANCH  38  41
ATOM     41  C   UNL     1      17.300   0.623  23.523  0.00  0.00    +0.090 A 
ATOM     42  C   UNL     1      18.014   0.274  22.371  0.00  0.00    +0.027 A 
ATOM     43  C   UNL     1      18.218  -1.072  22.074  0.00  0.00    +0.002 A 
ATOM     44  C   UNL     1      17.730  -2.060  22.932  0.00  0.00    +0.000 A 
ATOM     45  C   UNL     1      17.036  -1.706  24.089  0.00  0.00    +0.002 A 
ATOM     46  C   UNL     1      16.818  -0.361  24.391  0.00  0.00    +0.027 A 
ENDBRANCH  38  41
ENDBRANCH  37  38
ENDBRANCH  35  37
ENDBRANCH  31  33
ENDBRANCH  30  31
ENDBRANCH  26  30
ENDBRANCH  25  28
ENDBRANCH   1  25
TORSDOF 16
