REMARK VINA RESULT:    -5.503     14.103     18.223
REMARK INTER + INTRA:         -12.583
REMARK INTER:                 -10.022
REMARK INTRA:                  -2.561
REMARK UNBOUND:                -2.094
REMARK  Name = lig_assembled_19.pdb
REMARK  20 active torsions:
REMARK  status: ('A' for Active; 'I' for Inactive)
REMARK    1  A    between atoms: _2  and  _9
REMARK    2  A    between atoms: _4  and  _18
REMARK    3  A    between atoms: _5  and  _11
REMARK    4  A    between atoms: _6  and  _7
REMARK    5  A    between atoms: _6  and  _18
REMARK    6  A    between atoms: _9  and  _10
REMARK    7  A    between atoms: _10  and  _13
REMARK    8  A    between atoms: _11  and  _13
REMARK    9  A    between atoms: _14  and  _34
REMARK   10  A    between atoms: _16  and  _22
REMARK   11  A    between atoms: _17  and  _21
REMARK   12  A    between atoms: _21  and  _22
REMARK   13  A    between atoms: _24  and  _25
REMARK   14  A    between atoms: _26  and  _27
REMARK   15  A    between atoms: _28  and  _30
REMARK   16  A    between atoms: _30  and  _31
REMARK   17  A    between atoms: _30  and  _32
REMARK   18  A    between atoms: _32  and  _33
REMARK   19  A    between atoms: _32  and  _34
REMARK   20  A    between atoms: _35  and  _37
REMARK                            x       y       z     vdW  Elec       q    Type
REMARK                         _______ _______ _______ _____ _____    ______ ____
ROOT
ATOM      1  C   UNL     1      19.364   6.272  24.097  0.00  0.00    +0.163 C 
ENDROOT
BRANCH   1   2
ATOM      2  O   UNL     1      18.262   6.367  23.180  0.00  0.00    -0.388 OA
ATOM      3  H   UNL     1      17.444   6.162  23.639  0.00  0.00    +0.210 HD
ENDBRANCH   1   2
BRANCH   1   4
ATOM      4  C   UNL     1      20.140   4.960  23.890  0.00  0.00    +0.175 C 
BRANCH   4   5
ATOM      5  C   UNL     1      19.314   3.730  24.293  0.00  0.00    +0.176 C 
ATOM      6  O   UNL     1      18.238   3.578  23.328  0.00  0.00    -0.332 OA
ATOM      7  C   UNL     1      17.401   2.386  23.494  0.00  0.00    +0.277 C 
ATOM      8  C   UNL     1      16.828   2.322  24.931  0.00  0.00    +0.110 C 
ATOM      9  C   UNL     1      17.932   2.511  25.993  0.00  0.00    +0.143 C 
ATOM     10  C   UNL     1      18.742   3.779  25.723  0.00  0.00    +0.133 C 
BRANCH  10  11
ATOM     11  N   UNL     1      19.845   3.902  26.689  0.00  0.00    -0.308 N 
ATOM     12  H   UNL     1      20.587   3.217  26.648  0.00  0.00    +0.149 HD
ATOM     13  C   UNL     1      19.929   4.859  27.617  0.00  0.00    +0.210 C 
ATOM     14  C   UNL     1      18.769   5.871  27.671  0.00  0.00    +0.109 C 
ATOM     15  O   UNL     1      20.872   4.946  28.405  0.00  0.00    -0.276 OA
ENDBRANCH  10  11
BRANCH   7  16
ATOM     16  C   UNL     1      18.211   1.105  23.205  0.00  0.00    +0.414 C 
ATOM     17  O   UNL     1      17.773   0.005  23.539  0.00  0.00    -0.240 OA
ATOM     18  O   UNL     1      19.302   1.171  22.637  0.00  0.00    -0.240 OA
ENDBRANCH   7  16
BRANCH   9  19
ATOM     19  O   UNL     1      17.342   2.597  27.291  0.00  0.00    -0.390 OA
ATOM     20  H   UNL     1      16.505   3.063  27.232  0.00  0.00    +0.210 HD
ENDBRANCH   9  19
BRANCH   7  21
ATOM     21  O   UNL     1      16.292   2.482  22.563  0.00  0.00    -0.343 OA
ATOM     22  C   UNL     1      16.656   2.878  21.216  0.00  0.00    +0.198 C 
ENDBRANCH   7  21
ENDBRANCH   4   5
BRANCH   4  23
ATOM     23  O   UNL     1      21.377   4.993  24.630  0.00  0.00    -0.387 OA
ATOM     24  H   UNL     1      21.586   5.900  24.866  0.00  0.00    +0.210 HD
ENDBRANCH   4  23
ENDBRANCH   1   4
BRANCH   1  25
ATOM     25  C   UNL     1      20.306   7.457  23.905  0.00  0.00    +0.141 C 
BRANCH  25  28
ATOM     26  C   UNL     1      21.137   8.259  26.089  0.00  0.00    +0.401 C 
ATOM     27  O   UNL     1      22.009   7.393  26.182  0.00  0.00    -0.226 OA
ATOM     28  N   UNL     1      20.292   8.360  25.062  0.00  0.00    -0.279 N 
ATOM     29  H   UNL     1      19.604   9.100  25.081  0.00  0.00    +0.152 HD
BRANCH  26  30
ATOM     30  O   UNL     1      21.001   9.223  27.137  0.00  0.00    -0.444 OA
BRANCH  30  31
ATOM     31  C   UNL     1      19.751   9.904  27.001  0.00  0.00    +0.292 C 
BRANCH  31  33
ATOM     32  N   UNL     1      17.917  10.711  28.459  0.00  0.00    -0.131 NA
ATOM     33  C   UNL     1      19.045   9.949  28.294  0.00  0.00    +0.120 A 
ATOM     34  C   UNL     1      19.332   9.310  29.479  0.00  0.00    +0.137 A 
ATOM     35  N   UNL     1      18.351   9.733  30.324  0.00  0.00    -0.248 N 
ATOM     36  N   UNL     1      17.499  10.569  29.710  0.00  0.00    -0.065 NA
BRANCH  35  37
ATOM     37  C   UNL     1      18.159   9.373  31.712  0.00  0.00    +0.186 C 
BRANCH  37  38
ATOM     38  C   UNL     1      17.287   8.131  31.860  0.00  0.00    +0.255 C 
BRANCH  38  39
ATOM     39  O   UNL     1      15.907   8.462  32.118  0.00  0.00    -0.463 OA
BRANCH  39  40
ATOM     40  C   UNL     1      15.652   9.058  33.313  0.00  0.00    +0.304 C 
ATOM     41  O   UNL     1      15.217  10.193  33.449  0.00  0.00    -0.251 OA
ATOM     42  C   UNL     1      15.942   8.126  34.449  0.00  0.00    +0.136 C 
ENDBRANCH  39  40
ENDBRANCH  38  39
ENDBRANCH  37  38
ENDBRANCH  35  37
ENDBRANCH  31  33
ENDBRANCH  30  31
ENDBRANCH  26  30
ENDBRANCH  25  28
ENDBRANCH   1  25
TORSDOF 17
