REMARK VINA RESULT:    -5.649     14.721     18.135
REMARK INTER + INTRA:         -12.189
REMARK INTER:                 -10.106
REMARK INTRA:                  -2.083
REMARK UNBOUND:                -2.413
REMARK  Name = lig_assembled_8.pdb
REMARK  16 active torsions:
REMARK  status: ('A' for Active; 'I' for Inactive)
REMARK    1  A    between atoms: _2  and  _9
REMARK    2  A    between atoms: _4  and  _18
REMARK    3  A    between atoms: _6  and  _7
REMARK    4  A    between atoms: _6  and  _18
REMARK    5  A    between atoms: _14  and  _34
REMARK    6  A    between atoms: _16  and  _22
REMARK    7  A    between atoms: _17  and  _21
REMARK    8  A    between atoms: _21  and  _22
REMARK    9  A    between atoms: _24  and  _25
REMARK   10  A    between atoms: _26  and  _27
REMARK   11  A    between atoms: _28  and  _30
REMARK   12  A    between atoms: _30  and  _31
REMARK   13  A    between atoms: _30  and  _32
REMARK   14  A    between atoms: _32  and  _33
REMARK   15  A    between atoms: _32  and  _34
REMARK   16  A    between atoms: _35  and  _37
REMARK                            x       y       z     vdW  Elec       q    Type
REMARK                         _______ _______ _______ _____ _____    ______ ____
ROOT
ATOM      1  C   UNL     1      19.268   6.557  24.696  0.00  0.00    +0.163 C 
ENDROOT
BRANCH   1   2
ATOM      2  O   UNL     1      18.483   7.037  23.591  0.00  0.00    -0.388 OA
ATOM      3  H   UNL     1      19.065   7.286  22.869  0.00  0.00    +0.210 HD
ENDBRANCH   1   2
BRANCH   1   4
ATOM      4  C   UNL     1      20.078   7.701  25.296  0.00  0.00    +0.141 C 
BRANCH   4   7
ATOM      5  C   UNL     1      19.673   9.797  26.540  0.00  0.00    +0.401 C 
ATOM      6  O   UNL     1      20.845  10.175  26.470  0.00  0.00    -0.226 OA
ATOM      7  N   UNL     1      19.228   8.650  26.025  0.00  0.00    -0.279 N 
ATOM      8  H   UNL     1      18.251   8.422  26.143  0.00  0.00    +0.152 HD
BRANCH   5   9
ATOM      9  O   UNL     1      18.717  10.619  27.215  0.00  0.00    -0.444 OA
BRANCH   9  10
ATOM     10  C   UNL     1      19.363  11.335  28.270  0.00  0.00    +0.292 C 
BRANCH  10  12
ATOM     11  N   UNL     1      19.580  11.207  30.725  0.00  0.00    -0.131 NA
ATOM     12  C   UNL     1      19.058  10.713  29.572  0.00  0.00    +0.121 A 
ATOM     13  C   UNL     1      18.265   9.630  29.870  0.00  0.00    +0.143 A 
ATOM     14  N   UNL     1      18.312   9.505  31.248  0.00  0.00    -0.219 N 
ATOM     15  N   UNL     1      19.129  10.468  31.728  0.00  0.00    -0.060 NA
BRANCH  14  16
ATOM     16  C   UNL     1      17.627   8.559  32.071  0.00  0.00    +0.081 A 
ATOM     17  C   UNL     1      18.056   7.213  32.036  0.00  0.00    +0.029 A 
ATOM     18  C   UNL     1      17.425   6.223  32.793  0.00  0.00    +0.002 A 
ATOM     19  C   UNL     1      16.351   6.551  33.606  0.00  0.00    +0.001 A 
ATOM     20  C   UNL     1      15.914   7.871  33.664  0.00  0.00    +0.017 A 
ATOM     21  C   UNL     1      16.540   8.882  32.909  0.00  0.00    +0.043 A 
ATOM     22 BR   UNL     1      15.769  10.606  33.160  0.00  0.00    -0.048 Br
ENDBRANCH  14  16
ENDBRANCH  10  12
ENDBRANCH   9  10
ENDBRANCH   5   9
ENDBRANCH   4   7
ENDBRANCH   1   4
BRANCH   1  23
ATOM     23  C   UNL     1      20.218   5.433  24.248  0.00  0.00    +0.175 C 
BRANCH  23  24
ATOM     24  C   UNL     1      19.609   4.040  24.467  0.00  0.00    +0.176 C 
ATOM     25  O   UNL     1      18.532   3.867  23.505  0.00  0.00    -0.332 OA
ATOM     26  C   UNL     1      17.898   2.545  23.495  0.00  0.00    +0.277 C 
ATOM     27  C   UNL     1      17.399   2.173  24.913  0.00  0.00    +0.110 C 
ATOM     28  C   UNL     1      18.501   2.371  25.974  0.00  0.00    +0.143 C 
ATOM     29  C   UNL     1      19.094   3.779  25.894  0.00  0.00    +0.133 C 
BRANCH  29  30
ATOM     30  N   UNL     1      20.201   3.927  26.851  0.00  0.00    -0.308 N 
ATOM     31  H   UNL     1      21.049   3.406  26.677  0.00  0.00    +0.149 HD
ATOM     32  C   UNL     1      20.159   4.705  27.936  0.00  0.00    +0.210 C 
ATOM     33  C   UNL     1      18.844   5.466  28.189  0.00  0.00    +0.109 C 
ATOM     34  O   UNL     1      21.108   4.822  28.713  0.00  0.00    -0.276 OA
ENDBRANCH  29  30
BRANCH  26  35
ATOM     35  C   UNL     1      18.885   1.469  22.996  0.00  0.00    +0.414 C 
ATOM     36  O   UNL     1      18.778   0.305  23.379  0.00  0.00    -0.240 OA
ATOM     37  O   UNL     1      19.787   1.765  22.212  0.00  0.00    -0.240 OA
ENDBRANCH  26  35
BRANCH  28  38
ATOM     38  O   UNL     1      17.957   2.164  27.278  0.00  0.00    -0.390 OA
ATOM     39  H   UNL     1      18.606   2.413  27.940  0.00  0.00    +0.210 HD
ENDBRANCH  28  38
BRANCH  26  40
ATOM     40  O   UNL     1      16.751   2.605  22.608  0.00  0.00    -0.343 OA
ATOM     41  C   UNL     1      16.817   3.636  21.591  0.00  0.00    +0.198 C 
ENDBRANCH  26  40
ENDBRANCH  23  24
BRANCH  23  42
ATOM     42  O   UNL     1      21.476   5.540  24.944  0.00  0.00    -0.387 OA
ATOM     43  H   UNL     1      21.799   6.442  24.885  0.00  0.00    +0.210 HD
ENDBRANCH  23  42
ENDBRANCH   1  23
TORSDOF 14
