REMARK VINA RESULT:    -5.723      4.141      9.923
REMARK INTER + INTRA:         -13.693
REMARK INTER:                 -11.533
REMARK INTRA:                  -2.160
REMARK UNBOUND:                -2.450
REMARK  Name = lig_assembled_10.pdb
REMARK  21 active torsions:
REMARK  status: ('A' for Active; 'I' for Inactive)
REMARK    1  A    between atoms: _2  and  _9
REMARK    2  A    between atoms: _4  and  _20
REMARK    3  A    between atoms: _5  and  _9
REMARK    4  A    between atoms: _5  and  _12
REMARK    5  A    between atoms: _6  and  _7
REMARK    6  A    between atoms: _6  and  _20
REMARK    7  A    between atoms: _9  and  _10
REMARK    8  A    between atoms: _10  and  _11
REMARK    9  A    between atoms: _11  and  _14
REMARK   10  A    between atoms: _16  and  _36
REMARK   11  A    between atoms: _18  and  _24
REMARK   12  A    between atoms: _19  and  _23
REMARK   13  A    between atoms: _23  and  _24
REMARK   14  A    between atoms: _26  and  _27
REMARK   15  A    between atoms: _28  and  _29
REMARK   16  A    between atoms: _30  and  _32
REMARK   17  A    between atoms: _32  and  _33
REMARK   18  A    between atoms: _32  and  _34
REMARK   19  A    between atoms: _34  and  _35
REMARK   20  A    between atoms: _34  and  _36
REMARK   21  A    between atoms: _37  and  _39
REMARK                            x       y       z     vdW  Elec       q    Type
REMARK                         _______ _______ _______ _____ _____    ______ ____
ROOT
ATOM      1  C   UNL     1      18.005   5.084  23.557  0.00  0.00    +0.163 C 
ENDROOT
BRANCH   1   2
ATOM      2  O   UNL     1      17.157   5.042  22.398  0.00  0.00    -0.388 OA
ATOM      3  H   UNL     1      16.992   5.936  22.089  0.00  0.00    +0.210 HD
ENDBRANCH   1   2
BRANCH   1   4
ATOM      4  C   UNL     1      18.866   3.812  23.655  0.00  0.00    +0.175 C 
BRANCH   4   5
ATOM      5  C   UNL     1      18.105   2.649  24.308  0.00  0.00    +0.176 C 
ATOM      6  O   UNL     1      18.781   2.315  25.552  0.00  0.00    -0.332 OA
ATOM      7  C   UNL     1      18.130   1.288  26.370  0.00  0.00    +0.277 C 
ATOM      8  C   UNL     1      17.897   0.002  25.540  0.00  0.00    +0.110 C 
ATOM      9  C   UNL     1      17.210   0.310  24.193  0.00  0.00    +0.143 C 
ATOM     10  C   UNL     1      17.968   1.394  23.426  0.00  0.00    +0.133 C 
BRANCH  10  11
ATOM     11  N   UNL     1      17.256   1.741  22.186  0.00  0.00    -0.308 N 
ATOM     12  H   UNL     1      16.373   2.225  22.268  0.00  0.00    +0.149 HD
ATOM     13  C   UNL     1      17.700   1.457  20.958  0.00  0.00    +0.210 C 
ATOM     14  C   UNL     1      19.036   0.696  20.867  0.00  0.00    +0.109 C 
ATOM     15  O   UNL     1      17.090   1.773  19.936  0.00  0.00    -0.276 OA
ENDBRANCH  10  11
BRANCH   7  16
ATOM     16  C   UNL     1      16.781   1.798  26.919  0.00  0.00    +0.414 C 
ATOM     17  O   UNL     1      15.757   1.135  26.763  0.00  0.00    -0.240 OA
ATOM     18  O   UNL     1      16.718   2.873  27.517  0.00  0.00    -0.240 OA
ENDBRANCH   7  16
BRANCH   7  19
ATOM     19  O   UNL     1      19.015   0.965  27.474  0.00  0.00    -0.343 OA
ATOM     20  C   UNL     1      18.871  -0.377  28.003  0.00  0.00    +0.198 C 
ENDBRANCH   7  19
BRANCH   9  21
ATOM     21  O   UNL     1      17.152  -0.876  23.399  0.00  0.00    -0.390 OA
ATOM     22  H   UNL     1      16.754  -1.584  23.910  0.00  0.00    +0.210 HD
ENDBRANCH   9  21
ENDBRANCH   4   5
BRANCH   4  23
ATOM     23  O   UNL     1      20.077   4.088  24.388  0.00  0.00    -0.387 OA
ATOM     24  H   UNL     1      20.519   4.847  24.002  0.00  0.00    +0.210 HD
ENDBRANCH   4  23
ENDBRANCH   1   4
BRANCH   1  25
ATOM     25  C   UNL     1      18.912   6.309  23.496  0.00  0.00    +0.141 C 
BRANCH  25  28
ATOM     26  C   UNL     1      19.041   7.331  25.742  0.00  0.00    +0.401 C 
ATOM     27  O   UNL     1      19.849   6.505  26.174  0.00  0.00    -0.226 OA
ATOM     28  N   UNL     1      18.546   7.312  24.504  0.00  0.00    -0.279 N 
ATOM     29  H   UNL     1      17.881   8.027  24.245  0.00  0.00    +0.152 HD
BRANCH  26  30
ATOM     30  O   UNL     1      18.592   8.380  26.604  0.00  0.00    -0.444 OA
BRANCH  30  31
ATOM     31  C   UNL     1      19.617   8.693  27.550  0.00  0.00    +0.292 C 
BRANCH  31  33
ATOM     32  N   UNL     1      19.086   7.689  29.751  0.00  0.00    -0.131 NA
ATOM     33  C   UNL     1      19.051   8.768  28.910  0.00  0.00    +0.120 A 
ATOM     34  C   UNL     1      18.444   9.823  29.555  0.00  0.00    +0.138 A 
ATOM     35  N   UNL     1      18.170   9.341  30.798  0.00  0.00    -0.237 N 
ATOM     36  N   UNL     1      18.536   8.047  30.902  0.00  0.00    -0.065 NA
BRANCH  35  37
ATOM     37  C   UNL     1      17.576   9.983  31.959  0.00  0.00    +0.227 C 
BRANCH  37  38
ATOM     38  C   UNL     1      18.347  11.176  32.482  0.00  0.00    +0.330 C 
ATOM     39  O   UNL     1      19.560  11.132  32.657  0.00  0.00    -0.249 OA
BRANCH  38  40
ATOM     40  O   UNL     1      17.656  12.312  32.708  0.00  0.00    -0.479 OA
ATOM     41  H   UNL     1      18.055  12.957  33.348  0.00  0.00    +0.295 HD
ENDBRANCH  38  40
ENDBRANCH  37  38
BRANCH  37  42
ATOM     42  C   UNL     1      17.173   9.013  33.079  0.00  0.00    +0.158 C 
BRANCH  42  43
ATOM     43  C   UNL     1      15.830   8.387  32.828  0.00  0.00    +0.307 C 
ATOM     44  O   UNL     1      14.773   9.004  32.872  0.00  0.00    -0.251 OA
BRANCH  43  45
ATOM     45  O   UNL     1      15.897   7.091  32.469  0.00  0.00    -0.481 OA
ATOM     46  H   UNL     1      15.915   6.454  33.209  0.00  0.00    +0.295 HD
ENDBRANCH  43  45
ENDBRANCH  42  43
ENDBRANCH  37  42
ENDBRANCH  35  37
ENDBRANCH  31  33
ENDBRANCH  30  31
ENDBRANCH  26  30
ENDBRANCH  25  28
ENDBRANCH   1  25
TORSDOF 19
