REMARK VINA RESULT:    -5.467     19.415     22.320
REMARK INTER + INTRA:         -12.942
REMARK INTER:                 -10.250
REMARK INTRA:                  -2.692
REMARK UNBOUND:                -3.800
REMARK  Name = lig_assembled_65.pdb
REMARK  16 active torsions:
REMARK  status: ('A' for Active; 'I' for Inactive)
REMARK    1  A    between atoms: _8  and  _20
REMARK    2  A    between atoms: _9  and  _15
REMARK    3  A    between atoms: _10  and  _11
REMARK    4  A    between atoms: _10  and  _20
REMARK    5  A    between atoms: _16  and  _36
REMARK    6  A    between atoms: _18  and  _24
REMARK    7  A    between atoms: _19  and  _23
REMARK    8  A    between atoms: _23  and  _24
REMARK    9  A    between atoms: _26  and  _27
REMARK   10  A    between atoms: _28  and  _29
REMARK   11  A    between atoms: _30  and  _32
REMARK   12  A    between atoms: _32  and  _33
REMARK   13  A    between atoms: _32  and  _34
REMARK   14  A    between atoms: _34  and  _35
REMARK   15  A    between atoms: _34  and  _36
REMARK   16  A    between atoms: _37  and  _39
REMARK                            x       y       z     vdW  Elec       q    Type
REMARK                         _______ _______ _______ _____ _____    ______ ____
ROOT
ATOM      1  C   UNL     1      11.874  26.386  21.798  0.00  0.00    +0.163 C 
ENDROOT
BRANCH   1   2
ATOM      2  O   UNL     1      11.802  27.814  21.647  0.00  0.00    -0.388 OA
ATOM      3  H   UNL     1      10.967  28.131  22.000  0.00  0.00    +0.210 HD
ENDBRANCH   1   2
BRANCH   1   4
ATOM      4  C   UNL     1      11.848  25.715  20.429  0.00  0.00    +0.141 C 
BRANCH   4   7
ATOM      5  C   UNL     1      12.544  23.578  19.401  0.00  0.00    +0.401 C 
ATOM      6  O   UNL     1      12.198  23.905  18.263  0.00  0.00    -0.226 OA
ATOM      7  N   UNL     1      12.411  24.359  20.474  0.00  0.00    -0.279 N 
ATOM      8  H   UNL     1      12.715  23.999  21.367  0.00  0.00    +0.152 HD
BRANCH   5   9
ATOM      9  O   UNL     1      13.119  22.286  19.608  0.00  0.00    -0.444 OA
BRANCH   9  10
ATOM     10  C   UNL     1      14.463  22.278  19.119  0.00  0.00    +0.292 C 
BRANCH  10  12
ATOM     11  N   UNL     1      15.935  20.865  20.524  0.00  0.00    -0.131 NA
ATOM     12  C   UNL     1      15.415  22.096  20.232  0.00  0.00    +0.121 A 
ATOM     13  C   UNL     1      15.925  23.019  21.114  0.00  0.00    +0.149 A 
ATOM     14  N   UNL     1      16.755  22.296  21.944  0.00  0.00    -0.155 N 
ATOM     15  C   UNL     1      17.514  22.791  23.045  0.00  0.00    +0.416 C 
ATOM     16  N   UNL     1      18.272  21.933  23.737  0.00  0.00    +0.041 NA
ATOM     17  C   UNL     1      18.937  22.466  24.760  0.00  0.00    +0.339 C 
ATOM     18  C   UNL     1      19.792  21.553  25.582  0.00  0.00    +0.149 C 
ATOM     19  N   UNL     1      18.884  23.751  25.109  0.00  0.00    +0.007 NA
ATOM     20  C   UNL     1      18.095  24.512  24.367  0.00  0.00    +0.386 C 
ATOM     21  N   UNL     1      18.002  25.847  24.701  0.00  0.00    -0.296 N 
ATOM     22  H   UNL     1      18.810  26.139  25.233  0.00  0.00    +0.148 HD
ATOM     23  H   UNL     1      17.741  26.408  23.903  0.00  0.00    +0.148 HD
ATOM     24  N   UNL     1      17.406  24.100  23.318  0.00  0.00    -0.290 NA
ATOM     25  N   UNL     1      16.751  20.994  21.563  0.00  0.00    -0.055 NA
ENDBRANCH  10  12
ENDBRANCH   9  10
ENDBRANCH   5   9
ENDBRANCH   4   7
ENDBRANCH   1   4
BRANCH   1  26
ATOM     26  C   UNL     1      10.705  25.863  22.650  0.00  0.00    +0.175 C 
BRANCH  26  27
ATOM     27  C   UNL     1      11.175  25.326  24.009  0.00  0.00    +0.176 C 
ATOM     28  O   UNL     1      12.468  24.691  23.816  0.00  0.00    -0.332 OA
ATOM     29  C   UNL     1      13.126  24.208  25.035  0.00  0.00    +0.277 C 
ATOM     30  C   UNL     1      12.186  23.257  25.816  0.00  0.00    +0.110 C 
ATOM     31  C   UNL     1      10.788  23.877  26.018  0.00  0.00    +0.143 C 
ATOM     32  C   UNL     1      10.199  24.348  24.688  0.00  0.00    +0.133 C 
BRANCH  32  33
ATOM     33  N   UNL     1       8.905  25.015  24.905  0.00  0.00    -0.308 N 
ATOM     34  H   UNL     1       8.908  25.906  25.381  0.00  0.00    +0.149 HD
ATOM     35  C   UNL     1       7.728  24.519  24.513  0.00  0.00    +0.210 C 
ATOM     36  C   UNL     1       7.755  23.147  23.814  0.00  0.00    +0.109 C 
ATOM     37  O   UNL     1       6.661  25.107  24.695  0.00  0.00    -0.276 OA
ENDBRANCH  32  33
BRANCH  29  38
ATOM     38  C   UNL     1      13.533  25.389  25.940  0.00  0.00    +0.414 C 
ATOM     39  O   UNL     1      13.682  26.513  25.464  0.00  0.00    -0.240 OA
ATOM     40  O   UNL     1      13.713  25.217  27.147  0.00  0.00    -0.240 OA
ENDBRANCH  29  38
BRANCH  29  41
ATOM     41  O   UNL     1      14.307  23.463  24.642  0.00  0.00    -0.343 OA
ATOM     42  C   UNL     1      14.551  22.254  25.405  0.00  0.00    +0.198 C 
ENDBRANCH  29  41
BRANCH  31  43
ATOM     43  O   UNL     1       9.913  22.913  26.605  0.00  0.00    -0.390 OA
ATOM     44  H   UNL     1      10.422  22.149  26.888  0.00  0.00    +0.210 HD
ENDBRANCH  31  43
ENDBRANCH  26  27
BRANCH  26  45
ATOM     45  O   UNL     1       9.987  24.840  21.932  0.00  0.00    -0.387 OA
ATOM     46  H   UNL     1       9.088  24.787  22.264  0.00  0.00    +0.210 HD
ENDBRANCH  26  45
ENDBRANCH   1  26
TORSDOF 13
