REMARK VINA RESULT:    -5.875     14.226     15.672
REMARK INTER + INTRA:         -16.500
REMARK INTER:                 -13.459
REMARK INTRA:                  -3.040
REMARK UNBOUND:                -2.725
REMARK  Name = lig_assembled_30.pdb
REMARK  27 active torsions:
REMARK  status: ('A' for Active; 'I' for Inactive)
REMARK    1  A    between atoms: _2  and  _9
REMARK    2  A    between atoms: _4  and  _25
REMARK    3  A    between atoms: _5  and  _18
REMARK    4  A    between atoms: _5  and  _19
REMARK    5  A    between atoms: _6  and  _7
REMARK    6  A    between atoms: _6  and  _25
REMARK    7  A    between atoms: _9  and  _10
REMARK    8  A    between atoms: _10  and  _11
REMARK    9  A    between atoms: _11  and  _12
REMARK   10  A    between atoms: _12  and  _13
REMARK   11  A    between atoms: _13  and  _14
REMARK   12  A    between atoms: _14  and  _15
REMARK   13  A    between atoms: _15  and  _16
REMARK   14  A    between atoms: _16  and  _17
REMARK   15  A    between atoms: _17  and  _18
REMARK   16  A    between atoms: _21  and  _41
REMARK   17  A    between atoms: _23  and  _29
REMARK   18  A    between atoms: _24  and  _28
REMARK   19  A    between atoms: _28  and  _29
REMARK   20  A    between atoms: _31  and  _32
REMARK   21  A    between atoms: _33  and  _34
REMARK   22  A    between atoms: _35  and  _37
REMARK   23  A    between atoms: _37  and  _38
REMARK   24  A    between atoms: _37  and  _39
REMARK   25  A    between atoms: _39  and  _40
REMARK   26  A    between atoms: _39  and  _41
REMARK   27  A    between atoms: _42  and  _44
REMARK                            x       y       z     vdW  Elec       q    Type
REMARK                         _______ _______ _______ _____ _____    ______ ____
ROOT
ATOM      1  C   UNL     1       2.901   3.622  33.007  0.00  0.00    +0.401 C 
ATOM      2  O   UNL     1       2.422   2.884  33.871  0.00  0.00    -0.226 OA
ATOM      3  N   UNL     1       4.210   3.767  32.793  0.00  0.00    -0.279 N 
ATOM      4  H   UNL     1       4.506   4.389  32.054  0.00  0.00    +0.152 HD
ENDROOT
BRANCH   1   5
ATOM      5  O   UNL     1       2.020   4.375  32.170  0.00  0.00    -0.444 OA
BRANCH   5   6
ATOM      6  C   UNL     1       0.993   3.518  31.665  0.00  0.00    +0.292 C 
BRANCH   6   8
ATOM      7  N   UNL     1       0.062   4.150  29.460  0.00  0.00    -0.131 NA
ATOM      8  C   UNL     1       1.020   3.499  30.191  0.00  0.00    +0.120 A 
ATOM      9  C   UNL     1       1.908   2.891  29.331  0.00  0.00    +0.137 A 
ATOM     10  N   UNL     1       1.432   3.210  28.095  0.00  0.00    -0.251 N 
ATOM     11  N   UNL     1       0.325   3.964  28.173  0.00  0.00    -0.065 NA
BRANCH  10  12
ATOM     12  C   UNL     1       1.954   2.800  26.809  0.00  0.00    +0.145 C 
BRANCH  12  13
ATOM     13  C   UNL     1       1.292   3.573  25.674  0.00  0.00    +0.023 C 
BRANCH  13  14
ATOM     14  C   UNL     1       2.305   4.029  24.626  0.00  0.00    +0.002 C 
BRANCH  14  15
ATOM     15  C   UNL     1       1.715   3.884  23.224  0.00  0.00    +0.000 C 
BRANCH  15  16
ATOM     16  C   UNL     1       1.306   5.233  22.638  0.00  0.00    +0.000 C 
BRANCH  16  17
ATOM     17  C   UNL     1      -0.058   5.136  21.954  0.00  0.00    +0.000 C 
BRANCH  17  18
ATOM     18  C   UNL     1      -1.023   4.290  22.781  0.00  0.00    +0.000 C 
BRANCH  18  19
ATOM     19  C   UNL     1      -1.963   5.159  23.615  0.00  0.00    +0.001 C 
BRANCH  19  20
ATOM     20  C   UNL     1      -1.803   4.845  25.102  0.00  0.00    +0.011 C 
BRANCH  20  21
ATOM     21  C   UNL     1      -2.696   3.687  25.538  0.00  0.00    +0.120 C 
BRANCH  21  22
ATOM     22  C   UNL     1      -2.854   3.646  27.041  0.00  0.00    +0.305 C 
ATOM     23  O   UNL     1      -3.289   2.702  27.683  0.00  0.00    -0.251 OA
BRANCH  22  24
ATOM     24  O   UNL     1      -2.455   4.795  27.632  0.00  0.00    -0.481 OA
ATOM     25  H   UNL     1      -1.545   5.060  27.401  0.00  0.00    +0.295 HD
ENDBRANCH  22  24
ENDBRANCH  21  22
ENDBRANCH  20  21
ENDBRANCH  19  20
ENDBRANCH  18  19
ENDBRANCH  17  18
ENDBRANCH  16  17
ENDBRANCH  15  16
ENDBRANCH  14  15
ENDBRANCH  13  14
ENDBRANCH  12  13
ENDBRANCH  10  12
ENDBRANCH   6   8
ENDBRANCH   5   6
ENDBRANCH   1   5
BRANCH   3  26
ATOM     26  C   UNL     1       5.244   3.074  33.571  0.00  0.00    +0.141 C 
BRANCH  26  27
ATOM     27  C   UNL     1       6.519   2.864  32.761  0.00  0.00    +0.163 C 
BRANCH  27  28
ATOM     28  O   UNL     1       6.302   3.249  31.394  0.00  0.00    -0.388 OA
ATOM     29  H   UNL     1       7.127   3.563  31.014  0.00  0.00    +0.210 HD
ENDBRANCH  27  28
BRANCH  27  30
ATOM     30  C   UNL     1       7.665   3.677  33.387  0.00  0.00    +0.175 C 
BRANCH  30  31
ATOM     31  C   UNL     1       7.308   4.196  34.787  0.00  0.00    +0.176 C 
ATOM     32  O   UNL     1       7.347   5.650  34.748  0.00  0.00    -0.332 OA
ATOM     33  C   UNL     1       6.927   6.328  35.978  0.00  0.00    +0.277 C 
ATOM     34  C   UNL     1       7.748   5.815  37.186  0.00  0.00    +0.110 C 
ATOM     35  C   UNL     1       7.762   4.273  37.251  0.00  0.00    +0.143 C 
ATOM     36  C   UNL     1       8.211   3.672  35.919  0.00  0.00    +0.133 C 
BRANCH  36  37
ATOM     37  N   UNL     1       8.137   2.203  35.965  0.00  0.00    -0.308 N 
ATOM     38  H   UNL     1       7.255   1.783  36.225  0.00  0.00    +0.149 HD
ATOM     39  C   UNL     1       9.159   1.389  35.688  0.00  0.00    +0.210 C 
ATOM     40  C   UNL     1      10.496   2.060  35.322  0.00  0.00    +0.109 C 
ATOM     41  O   UNL     1       9.064   0.161  35.721  0.00  0.00    -0.276 OA
ENDBRANCH  36  37
BRANCH  33  42
ATOM     42  C   UNL     1       5.424   6.101  36.242  0.00  0.00    +0.414 C 
ATOM     43  O   UNL     1       4.661   5.851  35.309  0.00  0.00    -0.240 OA
ATOM     44  O   UNL     1       4.975   6.168  37.387  0.00  0.00    -0.240 OA
ENDBRANCH  33  42
BRANCH  35  45
ATOM     45  O   UNL     1       8.650   3.843  38.284  0.00  0.00    -0.390 OA
ATOM     46  H   UNL     1       8.329   4.155  39.133  0.00  0.00    +0.210 HD
ENDBRANCH  35  45
BRANCH  33  47
ATOM     47  O   UNL     1       7.186   7.747  35.818  0.00  0.00    -0.343 OA
ATOM     48  C   UNL     1       7.512   8.162  34.467  0.00  0.00    +0.198 C 
ENDBRANCH  33  47
ENDBRANCH  30  31
BRANCH  30  49
ATOM     49  O   UNL     1       8.022   4.776  32.525  0.00  0.00    -0.387 OA
ATOM     50  H   UNL     1       7.292   5.397  32.478  0.00  0.00    +0.210 HD
ENDBRANCH  30  49
ENDBRANCH  27  30
ENDBRANCH  26  27
ENDBRANCH   3  26
TORSDOF 25
