REMARK VINA RESULT:    -5.932      1.559      4.214
REMARK INTER + INTRA:         -14.547
REMARK INTER:                 -12.142
REMARK INTRA:                  -2.405
REMARK UNBOUND:                -3.588
REMARK  Name = lig_assembled_58.pdb
REMARK  18 active torsions:
REMARK  status: ('A' for Active; 'I' for Inactive)
REMARK    1  A    between atoms: _2  and  _9
REMARK    2  A    between atoms: _4  and  _25
REMARK    3  A    between atoms: _6  and  _7
REMARK    4  A    between atoms: _6  and  _25
REMARK    5  A    between atoms: _9  and  _10
REMARK    6  A    between atoms: _9  and  _16
REMARK    7  A    between atoms: _21  and  _41
REMARK    8  A    between atoms: _23  and  _29
REMARK    9  A    between atoms: _24  and  _28
REMARK   10  A    between atoms: _28  and  _29
REMARK   11  A    between atoms: _31  and  _32
REMARK   12  A    between atoms: _33  and  _34
REMARK   13  A    between atoms: _35  and  _37
REMARK   14  A    between atoms: _37  and  _38
REMARK   15  A    between atoms: _37  and  _39
REMARK   16  A    between atoms: _39  and  _40
REMARK   17  A    between atoms: _39  and  _41
REMARK   18  A    between atoms: _42  and  _44
REMARK                            x       y       z     vdW  Elec       q    Type
REMARK                         _______ _______ _______ _____ _____    ______ ____
ROOT
ATOM      1  C   UNL     1      20.161   7.085  29.754  0.00  0.00    +0.141 C 
ENDROOT
BRANCH   1   4
ATOM      2  C   UNL     1      19.536   6.794  27.381  0.00  0.00    +0.401 C 
ATOM      3  O   UNL     1      19.469   8.004  27.153  0.00  0.00    -0.226 OA
ATOM      4  N   UNL     1      19.847   6.276  28.570  0.00  0.00    -0.279 N 
ATOM      5  H   UNL     1      19.867   5.270  28.662  0.00  0.00    +0.152 HD
BRANCH   2   6
ATOM      6  O   UNL     1      19.264   5.871  26.323  0.00  0.00    -0.444 OA
BRANCH   6   7
ATOM      7  C   UNL     1      19.808   4.591  26.654  0.00  0.00    +0.292 C 
BRANCH   7   9
ATOM      8  N   UNL     1      17.731   3.368  27.262  0.00  0.00    -0.131 NA
ATOM      9  C   UNL     1      18.804   3.535  26.428  0.00  0.00    +0.120 A 
ATOM     10  C   UNL     1      18.724   2.614  25.409  0.00  0.00    +0.138 A 
ATOM     11  N   UNL     1      17.505   2.020  25.586  0.00  0.00    -0.240 N 
ATOM     12  N   UNL     1      16.951   2.424  26.751  0.00  0.00    -0.064 NA
BRANCH  11  13
ATOM     13  C   UNL     1      16.776   1.096  24.697  0.00  0.00    +0.169 C 
BRANCH  13  14
ATOM     14  C   UNL     1      17.155   1.369  23.234  0.00  0.00    -0.019 A 
ATOM     15  C   UNL     1      16.665   2.513  22.579  0.00  0.00    +0.006 A 
ATOM     16  C   UNL     1      16.956   2.741  21.232  0.00  0.00    +0.000 A 
ATOM     17  C   UNL     1      17.750   1.842  20.521  0.00  0.00    +0.000 A 
ATOM     18  C   UNL     1      18.242   0.704  21.150  0.00  0.00    +0.000 A 
ATOM     19  C   UNL     1      17.937   0.465  22.489  0.00  0.00    +0.006 A 
ENDBRANCH  13  14
BRANCH  13  20
ATOM     20  C   UNL     1      16.900  -0.370  25.134  0.00  0.00    -0.019 A 
ATOM     21  C   UNL     1      15.970  -1.337  24.712  0.00  0.00    +0.006 A 
ATOM     22  C   UNL     1      16.087  -2.671  25.115  0.00  0.00    +0.000 A 
ATOM     23  C   UNL     1      17.146  -3.067  25.926  0.00  0.00    +0.000 A 
ATOM     24  C   UNL     1      18.107  -2.140  26.309  0.00  0.00    +0.000 A 
ATOM     25  C   UNL     1      17.996  -0.812  25.902  0.00  0.00    +0.006 A 
ENDBRANCH  13  20
ENDBRANCH  11  13
ENDBRANCH   7   9
ENDBRANCH   6   7
ENDBRANCH   2   6
ENDBRANCH   1   4
BRANCH   1  26
ATOM     26  C   UNL     1      18.952   7.249  30.669  0.00  0.00    +0.163 C 
BRANCH  26  27
ATOM     27  O   UNL     1      18.256   5.997  30.793  0.00  0.00    -0.388 OA
ATOM     28  H   UNL     1      17.491   6.111  31.362  0.00  0.00    +0.210 HD
ENDBRANCH  26  27
BRANCH  26  29
ATOM     29  C   UNL     1      19.413   7.761  32.044  0.00  0.00    +0.175 C 
BRANCH  29  30
ATOM     30  C   UNL     1      18.329   8.593  32.744  0.00  0.00    +0.176 C 
ATOM     31  O   UNL     1      17.264   7.690  33.150  0.00  0.00    -0.332 OA
ATOM     32  C   UNL     1      16.183   8.295  33.933  0.00  0.00    +0.277 C 
ATOM     33  C   UNL     1      15.582   9.507  33.179  0.00  0.00    +0.110 C 
ATOM     34  C   UNL     1      16.679  10.480  32.700  0.00  0.00    +0.143 C 
ATOM     35  C   UNL     1      17.754   9.745  31.899  0.00  0.00    +0.133 C 
BRANCH  35  36
ATOM     36  N   UNL     1      18.837  10.666  31.522  0.00  0.00    -0.308 N 
ATOM     37  H   UNL     1      19.424  11.031  32.259  0.00  0.00    +0.149 HD
ATOM     38  C   UNL     1      19.096  11.052  30.270  0.00  0.00    +0.210 C 
ATOM     39  C   UNL     1      18.168  10.499  29.172  0.00  0.00    +0.109 C 
ATOM     40  O   UNL     1      20.020  11.814  29.982  0.00  0.00    -0.276 OA
ENDBRANCH  35  36
BRANCH  32  41
ATOM     41  C   UNL     1      16.697   8.751  35.315  0.00  0.00    +0.414 C 
ATOM     42  O   UNL     1      16.321   9.820  35.794  0.00  0.00    -0.240 OA
ATOM     43  O   UNL     1      17.486   8.050  35.949  0.00  0.00    -0.240 OA
ENDBRANCH  32  41
BRANCH  34  44
ATOM     44  O   UNL     1      16.098  11.498  31.884  0.00  0.00    -0.390 OA
ATOM     45  H   UNL     1      15.719  12.180  32.443  0.00  0.00    +0.210 HD
ENDBRANCH  34  44
BRANCH  32  46
ATOM     46  O   UNL     1      15.140   7.300  34.104  0.00  0.00    -0.343 OA
ATOM     47  C   UNL     1      15.553   5.933  33.857  0.00  0.00    +0.198 C 
ENDBRANCH  32  46
ENDBRANCH  29  30
BRANCH  29  48
ATOM     48  O   UNL     1      20.622   8.534  31.906  0.00  0.00    -0.387 OA
ATOM     49  H   UNL     1      20.432   9.459  32.083  0.00  0.00    +0.210 HD
ENDBRANCH  29  48
ENDBRANCH  26  29
ENDBRANCH   1  26
TORSDOF 16
