REMARK VINA RESULT:    -6.657      1.983      3.436
REMARK INTER + INTRA:         -16.348
REMARK INTER:                 -13.693
REMARK INTRA:                  -2.655
REMARK UNBOUND:                -3.269
REMARK  Name = lig_assembled_84.pdb
REMARK  21 active torsions:
REMARK  status: ('A' for Active; 'I' for Inactive)
REMARK    1  A    between atoms: _2  and  _11
REMARK    2  A    between atoms: _3  and  _14
REMARK    3  A    between atoms: _4  and  _17
REMARK    4  A    between atoms: _6  and  _28
REMARK    5  A    between atoms: _8  and  _9
REMARK    6  A    between atoms: _8  and  _28
REMARK    7  A    between atoms: _11  and  _12
REMARK    8  A    between atoms: _12  and  _13
REMARK    9  A    between atoms: _12  and  _14
REMARK   10  A    between atoms: _24  and  _44
REMARK   11  A    between atoms: _26  and  _32
REMARK   12  A    between atoms: _27  and  _31
REMARK   13  A    between atoms: _31  and  _32
REMARK   14  A    between atoms: _34  and  _35
REMARK   15  A    between atoms: _36  and  _37
REMARK   16  A    between atoms: _38  and  _40
REMARK   17  A    between atoms: _40  and  _41
REMARK   18  A    between atoms: _40  and  _42
REMARK   19  A    between atoms: _42  and  _43
REMARK   20  A    between atoms: _42  and  _44
REMARK   21  A    between atoms: _45  and  _47
REMARK                            x       y       z     vdW  Elec       q    Type
REMARK                         _______ _______ _______ _____ _____    ______ ____
ROOT
ATOM      1  C   UNL     1       5.124   0.595  32.143  0.00  0.00    +0.401 C 
ATOM      2  O   UNL     1       5.534  -0.397  31.536  0.00  0.00    -0.226 OA
ATOM      3  N   UNL     1       5.787   1.188  33.136  0.00  0.00    -0.279 N 
ATOM      4  H   UNL     1       5.373   2.003  33.566  0.00  0.00    +0.152 HD
ENDROOT
BRANCH   1   5
ATOM      5  O   UNL     1       3.865   1.164  31.774  0.00  0.00    -0.444 OA
BRANCH   5   6
ATOM      6  C   UNL     1       4.058   2.517  31.351  0.00  0.00    +0.292 C 
BRANCH   6   8
ATOM      7  N   UNL     1       2.265   4.000  32.207  0.00  0.00    -0.131 NA
ATOM      8  C   UNL     1       2.763   3.208  31.205  0.00  0.00    +0.120 A 
ATOM      9  C   UNL     1       1.861   3.179  30.165  0.00  0.00    +0.137 A 
ATOM     10  N   UNL     1       0.809   3.916  30.622  0.00  0.00    -0.251 N 
ATOM     11  N   UNL     1       1.064   4.427  31.839  0.00  0.00    -0.065 NA
BRANCH  10  12
ATOM     12  C   UNL     1      -0.503   4.058  30.021  0.00  0.00    +0.149 C 
BRANCH  12  13
ATOM     13  C   UNL     1      -0.720   3.199  28.763  0.00  0.00    +0.021 C 
ATOM     14  C   UNL     1      -1.830   2.162  28.981  0.00  0.00    +0.010 C 
BRANCH  13  15
ATOM     15  C   UNL     1      -1.089   4.076  27.542  0.00  0.00    +0.089 C 
BRANCH  15  16
ATOM     16  N   UNL     1      -0.007   4.311  26.576  0.00  0.00    -0.299 NA
ATOM     17  C   UNL     1      -0.564   4.855  25.310  0.00  0.00    +0.103 C 
ATOM     18  C   UNL     1       0.548   5.197  24.297  0.00  0.00    +0.120 C 
ATOM     19  N   UNL     1       1.343   3.997  24.013  0.00  0.00    -0.327 N 
ATOM     20  C   UNL     1       1.898   3.342  25.206  0.00  0.00    +0.120 C 
ATOM     21  C   UNL     1       0.771   3.089  26.250  0.00  0.00    +0.103 C 
BRANCH  19  22
ATOM     22  C   UNL     1       1.592   3.557  22.733  0.00  0.00    +0.030 A 
ATOM     23  C   UNL     1       1.626   4.451  21.646  0.00  0.00    +0.024 A 
ATOM     24  C   UNL     1       1.853   4.019  20.335  0.00  0.00    +0.022 A 
ATOM     25  C   UNL     1       2.059   2.673  20.083  0.00  0.00    +0.041 A 
ATOM     26 CL   UNL     1       2.333   2.133  18.473  0.00  0.00    -0.084 Cl
ATOM     27  C   UNL     1       2.037   1.757  21.129  0.00  0.00    +0.022 A 
ATOM     28  C   UNL     1       1.803   2.202  22.438  0.00  0.00    +0.024 A 
ENDBRANCH  19  22
ENDBRANCH  15  16
ENDBRANCH  13  15
ENDBRANCH  12  13
ENDBRANCH  10  12
ENDBRANCH   6   8
ENDBRANCH   5   6
ENDBRANCH   1   5
BRANCH   3  29
ATOM     29  C   UNL     1       7.085   0.723  33.640  0.00  0.00    +0.141 C 
BRANCH  29  30
ATOM     30  C   UNL     1       8.219   1.664  33.246  0.00  0.00    +0.163 C 
BRANCH  30  31
ATOM     31  O   UNL     1       7.725   2.685  32.363  0.00  0.00    -0.388 OA
ATOM     32  H   UNL     1       7.282   2.276  31.616  0.00  0.00    +0.210 HD
ENDBRANCH  30  31
BRANCH  30  33
ATOM     33  C   UNL     1       8.837   2.284  34.511  0.00  0.00    +0.175 C 
BRANCH  33  34
ATOM     34  C   UNL     1       7.923   3.346  35.140  0.00  0.00    +0.176 C 
ATOM     35  O   UNL     1       7.977   4.534  34.303  0.00  0.00    -0.332 OA
ATOM     36  C   UNL     1       7.079   5.625  34.692  0.00  0.00    +0.277 C 
ATOM     37  C   UNL     1       7.314   6.017  36.172  0.00  0.00    +0.110 C 
ATOM     38  C   UNL     1       7.298   4.782  37.097  0.00  0.00    +0.143 C 
ATOM     39  C   UNL     1       8.265   3.709  36.597  0.00  0.00    +0.133 C 
BRANCH  39  40
ATOM     40  N   UNL     1       8.176   2.504  37.437  0.00  0.00    -0.308 N 
ATOM     41  H   UNL     1       7.283   2.035  37.497  0.00  0.00    +0.149 HD
ATOM     42  C   UNL     1       9.199   1.990  38.126  0.00  0.00    +0.210 C 
ATOM     43  C   UNL     1      10.540   2.742  38.035  0.00  0.00    +0.109 C 
ATOM     44  O   UNL     1       9.099   0.970  38.809  0.00  0.00    -0.276 OA
ENDBRANCH  39  40
BRANCH  36  45
ATOM     45  C   UNL     1       5.604   5.217  34.495  0.00  0.00    +0.414 C 
ATOM     46  O   UNL     1       4.702   5.899  34.980  0.00  0.00    -0.240 OA
ATOM     47  O   UNL     1       5.317   4.207  33.851  0.00  0.00    -0.240 OA
ENDBRANCH  36  45
BRANCH  36  48
ATOM     48  O   UNL     1       7.383   6.775  33.861  0.00  0.00    -0.343 OA
ATOM     49  C   UNL     1       7.451   8.040  34.567  0.00  0.00    +0.198 C 
ENDBRANCH  36  48
BRANCH  38  50
ATOM     50  O   UNL     1       7.667   5.168  38.422  0.00  0.00    -0.390 OA
ATOM     51  H   UNL     1       7.357   6.060  38.594  0.00  0.00    +0.210 HD
ENDBRANCH  38  50
ENDBRANCH  33  34
BRANCH  33  52
ATOM     52  O   UNL     1      10.125   2.853  34.207  0.00  0.00    -0.387 OA
ATOM     53  H   UNL     1      10.359   3.496  34.881  0.00  0.00    +0.210 HD
ENDBRANCH  33  52
ENDBRANCH  30  33
ENDBRANCH  29  30
ENDBRANCH   3  29
TORSDOF 18
