REMARK VINA RESULT:    -5.577      2.341      3.963
REMARK INTER + INTRA:         -12.624
REMARK INTER:                 -10.774
REMARK INTRA:                  -1.849
REMARK UNBOUND:                -1.667
REMARK  Name = lig_assembled_43.pdb
REMARK  20 active torsions:
REMARK  status: ('A' for Active; 'I' for Inactive)
REMARK    1  A    between atoms: _2  and  _9
REMARK    2  A    between atoms: _4  and  _18
REMARK    3  A    between atoms: _6  and  _7
REMARK    4  A    between atoms: _6  and  _18
REMARK    5  A    between atoms: _9  and  _10
REMARK    6  A    between atoms: _10  and  _11
REMARK    7  A    between atoms: _11  and  _12
REMARK    8  A    between atoms: _12  and  _13
REMARK    9  A    between atoms: _14  and  _34
REMARK   10  A    between atoms: _16  and  _22
REMARK   11  A    between atoms: _17  and  _21
REMARK   12  A    between atoms: _21  and  _22
REMARK   13  A    between atoms: _24  and  _25
REMARK   14  A    between atoms: _26  and  _27
REMARK   15  A    between atoms: _28  and  _30
REMARK   16  A    between atoms: _30  and  _31
REMARK   17  A    between atoms: _30  and  _32
REMARK   18  A    between atoms: _32  and  _33
REMARK   19  A    between atoms: _32  and  _34
REMARK   20  A    between atoms: _35  and  _37
REMARK                            x       y       z     vdW  Elec       q    Type
REMARK                         _______ _______ _______ _____ _____    ______ ____
ROOT
ATOM      1  C   UNL     1       6.246   4.791  34.401  0.00  0.00    +0.163 C 
ENDROOT
BRANCH   1   2
ATOM      2  O   UNL     1       6.413   4.643  35.821  0.00  0.00    -0.388 OA
ATOM      3  H   UNL     1       5.609   4.918  36.268  0.00  0.00    +0.210 HD
ENDBRANCH   1   2
BRANCH   1   4
ATOM      4  C   UNL     1       7.118   3.780  33.636  0.00  0.00    +0.175 C 
BRANCH   4   5
ATOM      5  C   UNL     1       7.967   2.917  34.582  0.00  0.00    +0.176 C 
ATOM      6  O   UNL     1       9.365   3.234  34.341  0.00  0.00    -0.332 OA
ATOM      7  C   UNL     1      10.326   2.578  35.233  0.00  0.00    +0.277 C 
ATOM      8  C   UNL     1      10.125   1.043  35.210  0.00  0.00    +0.110 C 
ATOM      9  C   UNL     1       8.647   0.658  35.430  0.00  0.00    +0.143 C 
ATOM     10  C   UNL     1       7.736   1.400  34.451  0.00  0.00    +0.133 C 
BRANCH  10  11
ATOM     11  N   UNL     1       6.324   1.092  34.728  0.00  0.00    -0.308 N 
ATOM     12  H   UNL     1       5.968   1.297  35.651  0.00  0.00    +0.149 HD
ATOM     13  C   UNL     1       5.482   0.560  33.838  0.00  0.00    +0.210 C 
ATOM     14  C   UNL     1       6.061   0.235  32.449  0.00  0.00    +0.109 C 
ATOM     15  O   UNL     1       4.300   0.326  34.093  0.00  0.00    -0.276 OA
ENDBRANCH  10  11
BRANCH   7  16
ATOM     16  C   UNL     1      10.173   3.096  36.678  0.00  0.00    +0.414 C 
ATOM     17  O   UNL     1       9.870   4.270  36.887  0.00  0.00    -0.240 OA
ATOM     18  O   UNL     1      10.352   2.341  37.635  0.00  0.00    -0.240 OA
ENDBRANCH   7  16
BRANCH   9  19
ATOM     19  O   UNL     1       8.484  -0.749  35.250  0.00  0.00    -0.390 OA
ATOM     20  H   UNL     1       8.802  -1.000  34.380  0.00  0.00    +0.210 HD
ENDBRANCH   9  19
BRANCH   7  21
ATOM     21  O   UNL     1      11.662   2.872  34.748  0.00  0.00    -0.343 OA
ATOM     22  C   UNL     1      12.674   1.901  35.115  0.00  0.00    +0.198 C 
ENDBRANCH   7  21
ENDBRANCH   4   5
BRANCH   4  23
ATOM     23  O   UNL     1       7.966   4.467  32.695  0.00  0.00    -0.387 OA
ATOM     24  H   UNL     1       7.699   5.388  32.636  0.00  0.00    +0.210 HD
ENDBRANCH   4  23
ENDBRANCH   1   4
BRANCH   1  25
ATOM     25  C   UNL     1       4.782   4.590  34.023  0.00  0.00    +0.141 C 
BRANCH  25  28
ATOM     26  C   UNL     1       3.484   3.557  32.193  0.00  0.00    +0.401 C 
ATOM     27  O   UNL     1       2.422   4.095  32.516  0.00  0.00    -0.226 OA
ATOM     28  N   UNL     1       4.635   3.728  32.845  0.00  0.00    -0.279 N 
ATOM     29  H   UNL     1       5.451   3.236  32.509  0.00  0.00    +0.152 HD
BRANCH  26  30
ATOM     30  O   UNL     1       3.506   2.690  31.056  0.00  0.00    -0.444 OA
BRANCH  30  31
ATOM     31  C   UNL     1       2.173   2.275  30.745  0.00  0.00    +0.292 C 
BRANCH  31  33
ATOM     32  N   UNL     1       1.272   3.817  29.030  0.00  0.00    -0.131 NA
ATOM     33  C   UNL     1       1.842   2.612  29.349  0.00  0.00    +0.120 A 
ATOM     34  C   UNL     1       2.009   1.875  28.198  0.00  0.00    +0.137 A 
ATOM     35  N   UNL     1       1.517   2.684  27.218  0.00  0.00    -0.251 N 
ATOM     36  N   UNL     1       1.076   3.849  27.718  0.00  0.00    -0.065 NA
BRANCH  35  37
ATOM     37  C   UNL     1       1.404   2.403  25.803  0.00  0.00    +0.145 C 
BRANCH  37  38
ATOM     38  C   UNL     1       2.434   3.185  24.994  0.00  0.00    +0.024 C 
BRANCH  38  39
ATOM     39  C   UNL     1       1.819   4.405  24.305  0.00  0.00    +0.006 C 
BRANCH  39  40
ATOM     40  C   UNL     1       0.936   3.971  23.132  0.00  0.00    +0.026 C 
BRANCH  40  41
ATOM     41  C   UNL     1       1.742   3.402  22.002  0.00  0.00    -0.034 C 
ATOM     42  C   UNL     1       1.771   3.924  20.770  0.00  0.00    +0.004 C 
ENDBRANCH  40  41
ENDBRANCH  39  40
ENDBRANCH  38  39
ENDBRANCH  37  38
ENDBRANCH  35  37
ENDBRANCH  31  33
ENDBRANCH  30  31
ENDBRANCH  26  30
ENDBRANCH  25  28
ENDBRANCH   1  25
TORSDOF 18
