REMARK VINA RESULT:    -5.943     14.468     15.780
REMARK INTER + INTRA:         -16.659
REMARK INTER:                 -14.179
REMARK INTRA:                  -2.480
REMARK UNBOUND:                -2.725
REMARK  Name = lig_assembled_30.pdb
REMARK  27 active torsions:
REMARK  status: ('A' for Active; 'I' for Inactive)
REMARK    1  A    between atoms: _2  and  _9
REMARK    2  A    between atoms: _4  and  _25
REMARK    3  A    between atoms: _5  and  _18
REMARK    4  A    between atoms: _5  and  _19
REMARK    5  A    between atoms: _6  and  _7
REMARK    6  A    between atoms: _6  and  _25
REMARK    7  A    between atoms: _9  and  _10
REMARK    8  A    between atoms: _10  and  _11
REMARK    9  A    between atoms: _11  and  _12
REMARK   10  A    between atoms: _12  and  _13
REMARK   11  A    between atoms: _13  and  _14
REMARK   12  A    between atoms: _14  and  _15
REMARK   13  A    between atoms: _15  and  _16
REMARK   14  A    between atoms: _16  and  _17
REMARK   15  A    between atoms: _17  and  _18
REMARK   16  A    between atoms: _21  and  _41
REMARK   17  A    between atoms: _23  and  _29
REMARK   18  A    between atoms: _24  and  _28
REMARK   19  A    between atoms: _28  and  _29
REMARK   20  A    between atoms: _31  and  _32
REMARK   21  A    between atoms: _33  and  _34
REMARK   22  A    between atoms: _35  and  _37
REMARK   23  A    between atoms: _37  and  _38
REMARK   24  A    between atoms: _37  and  _39
REMARK   25  A    between atoms: _39  and  _40
REMARK   26  A    between atoms: _39  and  _41
REMARK   27  A    between atoms: _42  and  _44
REMARK                            x       y       z     vdW  Elec       q    Type
REMARK                         _______ _______ _______ _____ _____    ______ ____
ROOT
ATOM      1  C   UNL     1       1.531   3.039  29.443  0.00  0.00    +0.401 C 
ATOM      2  O   UNL     1       1.609   1.846  29.141  0.00  0.00    -0.226 OA
ATOM      3  N   UNL     1       2.129   3.580  30.505  0.00  0.00    -0.279 N 
ATOM      4  H   UNL     1       2.014   4.571  30.664  0.00  0.00    +0.152 HD
ENDROOT
BRANCH   1   5
ATOM      5  O   UNL     1       0.762   3.916  28.615  0.00  0.00    -0.444 OA
BRANCH   5   6
ATOM      6  C   UNL     1       0.304   3.205  27.462  0.00  0.00    +0.292 C 
BRANCH   6   8
ATOM      7  N   UNL     1       2.241   3.785  26.034  0.00  0.00    -0.131 NA
ATOM      8  C   UNL     1       0.886   3.786  26.238  0.00  0.00    +0.120 A 
ATOM      9  C   UNL     1       0.268   4.387  25.164  0.00  0.00    +0.137 A 
ATOM     10  N   UNL     1       1.301   4.729  24.346  0.00  0.00    -0.251 N 
ATOM     11  N   UNL     1       2.484   4.370  24.867  0.00  0.00    -0.065 NA
BRANCH  10  12
ATOM     12  C   UNL     1       1.238   5.432  23.082  0.00  0.00    +0.145 C 
BRANCH  12  13
ATOM     13  C   UNL     1       1.859   4.607  21.960  0.00  0.00    +0.023 C 
BRANCH  13  14
ATOM     14  C   UNL     1       1.036   3.360  21.644  0.00  0.00    +0.002 C 
BRANCH  14  15
ATOM     15  C   UNL     1       1.910   2.312  20.957  0.00  0.00    +0.000 C 
BRANCH  15  16
ATOM     16  C   UNL     1       1.156   1.005  20.731  0.00  0.00    +0.000 C 
BRANCH  16  17
ATOM     17  C   UNL     1       0.496   0.990  19.351  0.00  0.00    +0.000 C 
BRANCH  17  18
ATOM     18  C   UNL     1       1.487   1.408  18.269  0.00  0.00    +0.000 C 
BRANCH  18  19
ATOM     19  C   UNL     1       0.808   2.217  17.164  0.00  0.00    +0.001 C 
BRANCH  19  20
ATOM     20  C   UNL     1       0.026   3.386  17.762  0.00  0.00    +0.011 C 
BRANCH  20  21
ATOM     21  C   UNL     1       0.466   4.725  17.178  0.00  0.00    +0.120 C 
BRANCH  21  22
ATOM     22  C   UNL     1      -0.713   5.643  16.950  0.00  0.00    +0.305 C 
ATOM     23  O   UNL     1      -1.774   5.596  17.553  0.00  0.00    -0.251 OA
BRANCH  22  24
ATOM     24  O   UNL     1      -0.476   6.555  15.980  0.00  0.00    -0.481 OA
ATOM     25  H   UNL     1      -0.166   6.164  15.142  0.00  0.00    +0.295 HD
ENDBRANCH  22  24
ENDBRANCH  21  22
ENDBRANCH  20  21
ENDBRANCH  19  20
ENDBRANCH  18  19
ENDBRANCH  17  18
ENDBRANCH  16  17
ENDBRANCH  15  16
ENDBRANCH  14  15
ENDBRANCH  13  14
ENDBRANCH  12  13
ENDBRANCH  10  12
ENDBRANCH   6   8
ENDBRANCH   5   6
ENDBRANCH   1   5
BRANCH   3  26
ATOM     26  C   UNL     1       2.945   2.816  31.457  0.00  0.00    +0.141 C 
BRANCH  26  27
ATOM     27  C   UNL     1       3.592   3.718  32.503  0.00  0.00    +0.163 C 
BRANCH  27  28
ATOM     28  O   UNL     1       2.686   3.931  33.597  0.00  0.00    -0.388 OA
ATOM     29  H   UNL     1       1.807   4.112  33.254  0.00  0.00    +0.210 HD
ENDBRANCH  27  28
BRANCH  27  30
ATOM     30  C   UNL     1       4.904   3.079  32.992  0.00  0.00    +0.175 C 
BRANCH  30  31
ATOM     31  C   UNL     1       5.436   3.753  34.265  0.00  0.00    +0.176 C 
ATOM     32  O   UNL     1       5.446   5.189  34.039  0.00  0.00    -0.332 OA
ATOM     33  C   UNL     1       5.827   6.010  35.193  0.00  0.00    +0.277 C 
ATOM     34  C   UNL     1       7.200   5.557  35.748  0.00  0.00    +0.110 C 
ATOM     35  C   UNL     1       7.248   4.031  35.974  0.00  0.00    +0.143 C 
ATOM     36  C   UNL     1       6.830   3.276  34.712  0.00  0.00    +0.133 C 
BRANCH  36  37
ATOM     37  N   UNL     1       6.796   1.827  34.966  0.00  0.00    -0.308 N 
ATOM     38  H   UNL     1       6.135   1.484  35.648  0.00  0.00    +0.149 HD
ATOM     39  C   UNL     1       7.581   0.937  34.353  0.00  0.00    +0.210 C 
ATOM     40  C   UNL     1       8.595   1.496  33.337  0.00  0.00    +0.109 C 
ATOM     41  O   UNL     1       7.521  -0.273  34.575  0.00  0.00    -0.276 OA
ENDBRANCH  36  37
BRANCH  33  42
ATOM     42  C   UNL     1       4.764   5.915  36.307  0.00  0.00    +0.414 C 
ATOM     43  O   UNL     1       5.051   6.217  37.465  0.00  0.00    -0.240 OA
ATOM     44  O   UNL     1       3.621   5.537  36.048  0.00  0.00    -0.240 OA
ENDBRANCH  33  42
BRANCH  35  45
ATOM     45  O   UNL     1       8.572   3.640  36.339  0.00  0.00    -0.390 OA
ATOM     46  H   UNL     1       8.763   2.773  35.974  0.00  0.00    +0.210 HD
ENDBRANCH  35  45
BRANCH  33  47
ATOM     47  O   UNL     1       5.945   7.385  34.746  0.00  0.00    -0.343 OA
ATOM     48  C   UNL     1       7.299   7.824  34.465  0.00  0.00    +0.198 C 
ENDBRANCH  33  47
ENDBRANCH  30  31
BRANCH  30  49
ATOM     49  O   UNL     1       5.899   3.129  31.950  0.00  0.00    -0.387 OA
ATOM     50  H   UNL     1       5.584   2.647  31.182  0.00  0.00    +0.210 HD
ENDBRANCH  30  49
ENDBRANCH  27  30
ENDBRANCH  26  27
ENDBRANCH   3  26
TORSDOF 25
