REMARK VINA RESULT:    -6.559     14.648     16.484
REMARK INTER + INTRA:         -13.669
REMARK INTER:                 -11.752
REMARK INTRA:                  -1.917
REMARK UNBOUND:                -1.933
REMARK  Name = lig_assembled_39.pdb
REMARK  17 active torsions:
REMARK  status: ('A' for Active; 'I' for Inactive)
REMARK    1  A    between atoms: _2  and  _9
REMARK    2  A    between atoms: _4  and  _19
REMARK    3  A    between atoms: _6  and  _7
REMARK    4  A    between atoms: _6  and  _19
REMARK    5  A    between atoms: _9  and  _10
REMARK    6  A    between atoms: _15  and  _35
REMARK    7  A    between atoms: _17  and  _23
REMARK    8  A    between atoms: _18  and  _22
REMARK    9  A    between atoms: _22  and  _23
REMARK   10  A    between atoms: _25  and  _26
REMARK   11  A    between atoms: _27  and  _28
REMARK   12  A    between atoms: _29  and  _31
REMARK   13  A    between atoms: _31  and  _32
REMARK   14  A    between atoms: _31  and  _33
REMARK   15  A    between atoms: _33  and  _34
REMARK   16  A    between atoms: _33  and  _35
REMARK   17  A    between atoms: _36  and  _38
REMARK                            x       y       z     vdW  Elec       q    Type
REMARK                         _______ _______ _______ _____ _____    ______ ____
ROOT
ATOM      1  C   UNL     1       5.003   3.010  32.108  0.00  0.00    +0.163 C 
ENDROOT
BRANCH   1   2
ATOM      2  O   UNL     1       4.214   4.009  32.775  0.00  0.00    -0.388 OA
ATOM      3  H   UNL     1       3.296   3.924  32.508  0.00  0.00    +0.210 HD
ENDBRANCH   1   2
BRANCH   1   4
ATOM      4  C   UNL     1       4.312   1.654  32.199  0.00  0.00    +0.141 C 
BRANCH   4   7
ATOM      5  C   UNL     1       2.012   1.824  31.312  0.00  0.00    +0.401 C 
ATOM      6  O   UNL     1       1.546   2.299  32.350  0.00  0.00    -0.226 OA
ATOM      7  N   UNL     1       3.293   1.487  31.155  0.00  0.00    -0.279 N 
ATOM      8  H   UNL     1       3.578   1.095  30.269  0.00  0.00    +0.152 HD
BRANCH   5   9
ATOM      9  O   UNL     1       1.144   1.608  30.196  0.00  0.00    -0.444 OA
BRANCH   9  10
ATOM     10  C   UNL     1       0.535   2.845  29.818  0.00  0.00    +0.292 C 
BRANCH  10  12
ATOM     11  N   UNL     1       0.048   3.926  27.645  0.00  0.00    -0.131 NA
ATOM     12  C   UNL     1       0.899   3.195  28.432  0.00  0.00    +0.120 A 
ATOM     13  C   UNL     1       2.045   2.917  27.722  0.00  0.00    +0.137 A 
ATOM     14  N   UNL     1       1.863   3.576  26.541  0.00  0.00    -0.247 N 
ATOM     15  N   UNL     1       0.638   4.129  26.475  0.00  0.00    -0.065 NA
BRANCH  14  16
ATOM     16  C   UNL     1       2.829   3.778  25.471  0.00  0.00    +0.181 C 
BRANCH  16  17
ATOM     17  C   UNL     1       2.190   3.880  24.098  0.00  0.00    -0.012 A 
ATOM     18  C   UNL     1       1.770   5.123  23.583  0.00  0.00    +0.006 A 
ATOM     19  C   UNL     1       1.175   5.231  22.323  0.00  0.00    +0.000 A 
ATOM     20  C   UNL     1       0.963   4.094  21.556  0.00  0.00    +0.001 A 
ATOM     21  C   UNL     1       1.328   2.846  22.057  0.00  0.00    +0.015 A 
ATOM     22  C   UNL     1       1.925   2.736  23.321  0.00  0.00    +0.023 A 
ATOM     23 BR   UNL     1       2.325   0.977  23.923  0.00  0.00    -0.050 Br
ENDBRANCH  16  17
ENDBRANCH  14  16
ENDBRANCH  10  12
ENDBRANCH   9  10
ENDBRANCH   5   9
ENDBRANCH   4   7
ENDBRANCH   1   4
BRANCH   1  24
ATOM     24  C   UNL     1       6.408   2.914  32.727  0.00  0.00    +0.175 C 
BRANCH  24  25
ATOM     25  C   UNL     1       6.480   3.589  34.104  0.00  0.00    +0.176 C 
ATOM     26  O   UNL     1       6.874   4.974  33.904  0.00  0.00    -0.332 OA
ATOM     27  C   UNL     1       6.892   5.809  35.109  0.00  0.00    +0.277 C 
ATOM     28  C   UNL     1       7.782   5.164  36.200  0.00  0.00    +0.110 C 
ATOM     29  C   UNL     1       7.422   3.681  36.426  0.00  0.00    +0.143 C 
ATOM     30  C   UNL     1       7.429   2.907  35.107  0.00  0.00    +0.133 C 
BRANCH  30  31
ATOM     31  N   UNL     1       7.000   1.516  35.323  0.00  0.00    -0.308 N 
ATOM     32  H   UNL     1       6.040   1.356  35.597  0.00  0.00    +0.149 HD
ATOM     33  C   UNL     1       7.795   0.452  35.181  0.00  0.00    +0.210 C 
ATOM     34  C   UNL     1       9.258   0.732  34.788  0.00  0.00    +0.109 C 
ATOM     35  O   UNL     1       7.404  -0.702  35.354  0.00  0.00    -0.276 OA
ENDBRANCH  30  31
BRANCH  27  36
ATOM     36  C   UNL     1       5.465   6.007  35.659  0.00  0.00    +0.414 C 
ATOM     37  O   UNL     1       4.494   5.924  34.908  0.00  0.00    -0.240 OA
ATOM     38  O   UNL     1       5.284   6.250  36.853  0.00  0.00    -0.240 OA
ENDBRANCH  27  36
BRANCH  27  39
ATOM     39  O   UNL     1       7.462   7.095  34.755  0.00  0.00    -0.343 OA
ATOM     40  C   UNL     1       8.210   7.746  35.814  0.00  0.00    +0.198 C 
ENDBRANCH  27  39
BRANCH  29  41
ATOM     41  O   UNL     1       8.360   3.088  37.324  0.00  0.00    -0.390 OA
ATOM     42  H   UNL     1       8.577   2.203  37.023  0.00  0.00    +0.210 HD
ENDBRANCH  29  41
ENDBRANCH  24  25
BRANCH  24  43
ATOM     43  O   UNL     1       7.383   3.495  31.838  0.00  0.00    -0.387 OA
ATOM     44  H   UNL     1       8.046   2.837  31.616  0.00  0.00    +0.210 HD
ENDBRANCH  24  43
ENDBRANCH   1  24
TORSDOF 15
