REMARK VINA RESULT:    -6.923      9.413     19.098
REMARK INTER + INTRA:         -14.086
REMARK INTER:                 -12.016
REMARK INTRA:                  -2.069
REMARK UNBOUND:                -1.294
REMARK  Name = lig_assembled_24.pdb
REMARK  19 active torsions:
REMARK  status: ('A' for Active; 'I' for Inactive)
REMARK    1  A    between atoms: _2  and  _9
REMARK    2  A    between atoms: _4  and  _21
REMARK    3  A    between atoms: _6  and  _7
REMARK    4  A    between atoms: _6  and  _21
REMARK    5  A    between atoms: _9  and  _10
REMARK    6  A    between atoms: _13  and  _16
REMARK    7  A    between atoms: _14  and  _16
REMARK    8  A    between atoms: _17  and  _37
REMARK    9  A    between atoms: _19  and  _25
REMARK   10  A    between atoms: _20  and  _24
REMARK   11  A    between atoms: _24  and  _25
REMARK   12  A    between atoms: _27  and  _28
REMARK   13  A    between atoms: _29  and  _30
REMARK   14  A    between atoms: _31  and  _33
REMARK   15  A    between atoms: _33  and  _34
REMARK   16  A    between atoms: _33  and  _35
REMARK   17  A    between atoms: _35  and  _36
REMARK   18  A    between atoms: _35  and  _37
REMARK   19  A    between atoms: _38  and  _40
REMARK                            x       y       z     vdW  Elec       q    Type
REMARK                         _______ _______ _______ _____ _____    ______ ____
ROOT
ATOM      1  C   UNL     1      -3.803   8.527  13.489  0.00  0.00    +0.163 C 
ENDROOT
BRANCH   1   2
ATOM      2  O   UNL     1      -4.977   8.642  14.311  0.00  0.00    -0.388 OA
ATOM      3  H   UNL     1      -5.690   9.032  13.799  0.00  0.00    +0.210 HD
ENDBRANCH   1   2
BRANCH   1   4
ATOM      4  C   UNL     1      -2.805   9.656  13.796  0.00  0.00    +0.175 C 
BRANCH   4   5
ATOM      5  C   UNL     1      -3.024  10.882  12.898  0.00  0.00    +0.176 C 
ATOM      6  O   UNL     1      -1.748  11.230  12.295  0.00  0.00    -0.332 OA
ATOM      7  C   UNL     1      -1.784  12.320  11.316  0.00  0.00    +0.277 C 
ATOM      8  C   UNL     1      -2.430  13.583  11.938  0.00  0.00    +0.110 C 
ATOM      9  C   UNL     1      -3.776  13.258  12.619  0.00  0.00    +0.143 C 
ATOM     10  C   UNL     1      -3.623  12.107  13.614  0.00  0.00    +0.133 C 
BRANCH  10  11
ATOM     11  N   UNL     1      -4.928  11.749  14.193  0.00  0.00    -0.308 N 
ATOM     12  H   UNL     1      -5.635  11.385  13.570  0.00  0.00    +0.149 HD
ATOM     13  C   UNL     1      -5.238  11.875  15.486  0.00  0.00    +0.210 C 
ATOM     14  C   UNL     1      -4.147  12.458  16.403  0.00  0.00    +0.109 C 
ATOM     15  O   UNL     1      -6.334  11.553  15.945  0.00  0.00    -0.276 OA
ENDBRANCH  10  11
BRANCH   7  16
ATOM     16  C   UNL     1      -2.576  11.902  10.060  0.00  0.00    +0.414 C 
ATOM     17  O   UNL     1      -3.450  12.638   9.603  0.00  0.00    -0.240 OA
ATOM     18  O   UNL     1      -2.341  10.828   9.503  0.00  0.00    -0.240 OA
ENDBRANCH   7  16
BRANCH   7  19
ATOM     19  O   UNL     1      -0.418  12.640  10.948  0.00  0.00    -0.343 OA
ATOM     20  C   UNL     1      -0.271  13.784  10.070  0.00  0.00    +0.198 C 
ENDBRANCH   7  19
BRANCH   9  21
ATOM     21  O   UNL     1      -4.260  14.413  13.306  0.00  0.00    -0.390 OA
ATOM     22  H   UNL     1      -4.643  14.150  14.146  0.00  0.00    +0.210 HD
ENDBRANCH   9  21
ENDBRANCH   4   5
BRANCH   4  23
ATOM     23  O   UNL     1      -1.453   9.175  13.658  0.00  0.00    -0.387 OA
ATOM     24  H   UNL     1      -1.015   9.650  12.948  0.00  0.00    +0.210 HD
ENDBRANCH   4  23
ENDBRANCH   1   4
BRANCH   1  25
ATOM     25  C   UNL     1      -3.134   7.177  13.722  0.00  0.00    +0.141 C 
BRANCH  25  28
ATOM     26  C   UNL     1      -1.980   6.657  15.845  0.00  0.00    +0.401 C 
ATOM     27  O   UNL     1      -0.849   6.780  15.370  0.00  0.00    -0.226 OA
ATOM     28  N   UNL     1      -3.104   6.819  15.146  0.00  0.00    -0.279 N 
ATOM     29  H   UNL     1      -3.986   6.688  15.622  0.00  0.00    +0.152 HD
BRANCH  26  30
ATOM     30  O   UNL     1      -2.120   6.317  17.227  0.00  0.00    -0.444 OA
BRANCH  30  31
ATOM     31  C   UNL     1      -2.374   4.916  17.351  0.00  0.00    +0.292 C 
BRANCH  31  33
ATOM     32  N   UNL     1      -1.416   2.952  18.515  0.00  0.00    -0.131 NA
ATOM     33  C   UNL     1      -1.334   4.276  18.178  0.00  0.00    +0.120 A 
ATOM     34  C   UNL     1      -0.180   4.805  18.711  0.00  0.00    +0.137 A 
ATOM     35  N   UNL     1       0.435   3.740  19.300  0.00  0.00    -0.247 N 
ATOM     36  N   UNL     1      -0.334   2.635  19.210  0.00  0.00    -0.065 NA
BRANCH  35  37
ATOM     37  C   UNL     1       1.745   3.623  19.921  0.00  0.00    +0.180 C 
BRANCH  37  38
ATOM     38  C   UNL     1       1.750   3.779  21.422  0.00  0.00    -0.026 A 
ATOM     39  C   UNL     1       1.718   5.052  22.006  0.00  0.00    +0.009 A 
ATOM     40  C   UNL     1       1.721   5.187  23.397  0.00  0.00    +0.046 A 
ATOM     41  C   UNL     1       1.739   4.061  24.222  0.00  0.00    +0.120 A 
ATOM     42  C   UNL     1       1.796   2.793  23.648  0.00  0.00    +0.046 A 
ATOM     43  C   UNL     1       1.801   2.651  22.256  0.00  0.00    +0.009 A 
BRANCH  41  44
ATOM     44  O   UNL     1       1.760   4.319  25.565  0.00  0.00    -0.495 OA
ATOM     45  C   UNL     1       1.938   3.181  26.403  0.00  0.00    +0.277 C 
ENDBRANCH  41  44
ENDBRANCH  37  38
ENDBRANCH  35  37
ENDBRANCH  31  33
ENDBRANCH  30  31
ENDBRANCH  26  30
ENDBRANCH  25  28
ENDBRANCH   1  25
TORSDOF 16
