REMARK VINA RESULT:    -5.370      5.551     11.721
REMARK INTER + INTRA:         -12.735
REMARK INTER:                 -10.206
REMARK INTRA:                  -2.529
REMARK UNBOUND:                -2.970
REMARK  Name = lig_assembled_22.pdb
REMARK  20 active torsions:
REMARK  status: ('A' for Active; 'I' for Inactive)
REMARK    1  A    between atoms: _2  and  _9
REMARK    2  A    between atoms: _4  and  _18
REMARK    3  A    between atoms: _5  and  _9
REMARK    4  A    between atoms: _5  and  _12
REMARK    5  A    between atoms: _6  and  _7
REMARK    6  A    between atoms: _6  and  _18
REMARK    7  A    between atoms: _9  and  _10
REMARK    8  A    between atoms: _9  and  _11
REMARK    9  A    between atoms: _14  and  _34
REMARK   10  A    between atoms: _16  and  _22
REMARK   11  A    between atoms: _17  and  _21
REMARK   12  A    between atoms: _21  and  _22
REMARK   13  A    between atoms: _24  and  _25
REMARK   14  A    between atoms: _26  and  _27
REMARK   15  A    between atoms: _28  and  _30
REMARK   16  A    between atoms: _30  and  _31
REMARK   17  A    between atoms: _30  and  _32
REMARK   18  A    between atoms: _32  and  _33
REMARK   19  A    between atoms: _32  and  _34
REMARK   20  A    between atoms: _35  and  _37
REMARK                            x       y       z     vdW  Elec       q    Type
REMARK                         _______ _______ _______ _____ _____    ______ ____
ROOT
ATOM      1  C   UNL     1      16.094   1.931  25.678  0.00  0.00    +0.163 C 
ENDROOT
BRANCH   1   2
ATOM      2  O   UNL     1      16.604   2.868  26.640  0.00  0.00    -0.388 OA
ATOM      3  H   UNL     1      17.326   3.367  26.251  0.00  0.00    +0.210 HD
ENDBRANCH   1   2
BRANCH   1   4
ATOM      4  C   UNL     1      16.279   0.506  26.189  0.00  0.00    +0.141 C 
BRANCH   4   7
ATOM      5  C   UNL     1      16.237  -1.475  24.713  0.00  0.00    +0.401 C 
ATOM      6  O   UNL     1      17.452  -1.675  24.789  0.00  0.00    -0.226 OA
ATOM      7  N   UNL     1      15.606  -0.476  25.329  0.00  0.00    -0.279 N 
ATOM      8  H   UNL     1      14.608  -0.388  25.197  0.00  0.00    +0.152 HD
BRANCH   5   9
ATOM      9  O   UNL     1      15.438  -2.354  23.917  0.00  0.00    -0.444 OA
BRANCH   9  10
ATOM     10  C   UNL     1      16.229  -3.467  23.492  0.00  0.00    +0.292 C 
BRANCH  10  12
ATOM     11  N   UNL     1      14.506  -4.522  22.073  0.00  0.00    -0.131 NA
ATOM     12  C   UNL     1      15.361  -4.605  23.136  0.00  0.00    +0.120 A 
ATOM     13  C   UNL     1      15.233  -5.846  23.720  0.00  0.00    +0.138 A 
ATOM     14  N   UNL     1      14.282  -6.476  22.965  0.00  0.00    -0.235 N 
ATOM     15  N   UNL     1      13.849  -5.667  21.979  0.00  0.00    -0.064 NA
BRANCH  14  16
ATOM     16  C   UNL     1      13.713  -7.816  23.117  0.00  0.00    +0.155 C 
ATOM     17  C   UNL     1      13.575  -8.226  24.600  0.00  0.00    +0.048 C 
ATOM     18  C   UNL     1      14.640  -8.828  22.418  0.00  0.00    +0.048 C 
BRANCH  16  19
ATOM     19  C   UNL     1      12.318  -7.877  22.490  0.00  0.00    +0.332 C 
ATOM     20  O   UNL     1      11.283  -7.603  23.086  0.00  0.00    -0.248 OA
BRANCH  19  21
ATOM     21  O   UNL     1      12.283  -8.264  21.192  0.00  0.00    -0.479 OA
ATOM     22  H   UNL     1      11.430  -8.609  20.864  0.00  0.00    +0.295 HD
ENDBRANCH  19  21
ENDBRANCH  16  19
ENDBRANCH  14  16
ENDBRANCH  10  12
ENDBRANCH   9  10
ENDBRANCH   5   9
ENDBRANCH   4   7
ENDBRANCH   1   4
BRANCH   1  23
ATOM     23  C   UNL     1      16.809   2.089  24.325  0.00  0.00    +0.175 C 
BRANCH  23  24
ATOM     24  C   UNL     1      18.318   2.317  24.491  0.00  0.00    +0.176 C 
ATOM     25  O   UNL     1      18.524   3.715  24.831  0.00  0.00    -0.332 OA
ATOM     26  C   UNL     1      19.907   4.097  25.133  0.00  0.00    +0.277 C 
ATOM     27  C   UNL     1      20.846   3.698  23.969  0.00  0.00    +0.110 C 
ATOM     28  C   UNL     1      20.640   2.226  23.551  0.00  0.00    +0.143 C 
ATOM     29  C   UNL     1      19.167   1.939  23.263  0.00  0.00    +0.133 C 
BRANCH  29  30
ATOM     30  N   UNL     1      18.971   0.514  22.950  0.00  0.00    -0.308 N 
ATOM     31  H   UNL     1      19.299  -0.165  23.622  0.00  0.00    +0.149 HD
ATOM     32  C   UNL     1      18.389   0.061  21.836  0.00  0.00    +0.210 C 
ATOM     33  C   UNL     1      17.924   1.121  20.820  0.00  0.00    +0.109 C 
ATOM     34  O   UNL     1      18.226  -1.138  21.608  0.00  0.00    -0.276 OA
ENDBRANCH  29  30
BRANCH  26  35
ATOM     35  C   UNL     1      20.388   3.425  26.436  0.00  0.00    +0.414 C 
ATOM     36  O   UNL     1      21.585   3.201  26.614  0.00  0.00    -0.240 OA
ATOM     37  O   UNL     1      19.579   3.107  27.309  0.00  0.00    -0.240 OA
ENDBRANCH  26  35
BRANCH  26  38
ATOM     38  O   UNL     1      19.952   5.540  25.283  0.00  0.00    -0.343 OA
ATOM     39  C   UNL     1      18.686   6.160  25.622  0.00  0.00    +0.198 C 
ENDBRANCH  26  38
BRANCH  28  40
ATOM     40  O   UNL     1      21.412   1.946  22.382  0.00  0.00    -0.390 OA
ATOM     41  H   UNL     1      20.921   1.351  21.809  0.00  0.00    +0.210 HD
ENDBRANCH  28  40
ENDBRANCH  23  24
BRANCH  23  42
ATOM     42  O   UNL     1      16.222   3.173  23.577  0.00  0.00    -0.387 OA
ATOM     43  H   UNL     1      16.004   2.870  22.692  0.00  0.00    +0.210 HD
ENDBRANCH  23  42
ENDBRANCH   1  23
TORSDOF 16
