REMARK VINA RESULT:    -5.642     10.614     13.929
REMARK INTER + INTRA:         -13.235
REMARK INTER:                 -11.622
REMARK INTRA:                  -1.613
REMARK UNBOUND:                -3.800
REMARK  Name = lig_assembled_65.pdb
REMARK  16 active torsions:
REMARK  status: ('A' for Active; 'I' for Inactive)
REMARK    1  A    between atoms: _8  and  _20
REMARK    2  A    between atoms: _9  and  _15
REMARK    3  A    between atoms: _10  and  _11
REMARK    4  A    between atoms: _10  and  _20
REMARK    5  A    between atoms: _16  and  _36
REMARK    6  A    between atoms: _18  and  _24
REMARK    7  A    between atoms: _19  and  _23
REMARK    8  A    between atoms: _23  and  _24
REMARK    9  A    between atoms: _26  and  _27
REMARK   10  A    between atoms: _28  and  _29
REMARK   11  A    between atoms: _30  and  _32
REMARK   12  A    between atoms: _32  and  _33
REMARK   13  A    between atoms: _32  and  _34
REMARK   14  A    between atoms: _34  and  _35
REMARK   15  A    between atoms: _34  and  _36
REMARK   16  A    between atoms: _37  and  _39
REMARK                            x       y       z     vdW  Elec       q    Type
REMARK                         _______ _______ _______ _____ _____    ______ ____
ROOT
ATOM      1  C   UNL     1       7.344   2.499  34.390  0.00  0.00    +0.163 C 
ENDROOT
BRANCH   1   2
ATOM      2  O   UNL     1       7.453   2.483  35.822  0.00  0.00    -0.388 OA
ATOM      3  H   UNL     1       7.676   1.597  36.117  0.00  0.00    +0.210 HD
ENDBRANCH   1   2
BRANCH   1   4
ATOM      4  C   UNL     1       8.202   1.390  33.789  0.00  0.00    +0.141 C 
BRANCH   4   7
ATOM      5  C   UNL     1      10.438   1.489  34.836  0.00  0.00    +0.401 C 
ATOM      6  O   UNL     1      10.072   0.961  35.888  0.00  0.00    -0.226 OA
ATOM      7  N   UNL     1       9.629   1.734  33.804  0.00  0.00    -0.279 N 
ATOM      8  H   UNL     1      10.021   2.180  32.987  0.00  0.00    +0.152 HD
BRANCH   5   9
ATOM      9  O   UNL     1      11.807   1.876  34.692  0.00  0.00    -0.444 OA
BRANCH   9  10
ATOM     10  C   UNL     1      12.246   2.533  35.884  0.00  0.00    +0.292 C 
BRANCH  10  12
ATOM     11  N   UNL     1      13.671   3.780  34.289  0.00  0.00    -0.131 NA
ATOM     12  C   UNL     1      13.179   3.627  35.556  0.00  0.00    +0.121 A 
ATOM     13  C   UNL     1      13.696   4.614  36.360  0.00  0.00    +0.149 A 
ATOM     14  N   UNL     1      14.518   5.352  35.534  0.00  0.00    -0.155 N 
ATOM     15  C   UNL     1      15.305   6.485  35.892  0.00  0.00    +0.416 C 
ATOM     16  N   UNL     1      16.043   7.078  34.946  0.00  0.00    +0.041 NA
ATOM     17  C   UNL     1      16.764   8.117  35.360  0.00  0.00    +0.339 C 
ATOM     18  C   UNL     1      17.621   8.813  34.350  0.00  0.00    +0.149 C 
ATOM     19  N   UNL     1      16.784   8.571  36.613  0.00  0.00    +0.007 NA
ATOM     20  C   UNL     1      16.030   7.906  37.474  0.00  0.00    +0.386 C 
ATOM     21  N   UNL     1      16.031   8.336  38.784  0.00  0.00    -0.296 N 
ATOM     22  H   UNL     1      16.320   9.303  38.842  0.00  0.00    +0.148 HD
ATOM     23  H   UNL     1      15.179   8.074  39.258  0.00  0.00    +0.148 HD
ATOM     24  N   UNL     1      15.258   6.877  37.174  0.00  0.00    -0.290 NA
ATOM     25  N   UNL     1      14.481   4.832  34.281  0.00  0.00    -0.055 NA
ENDBRANCH  10  12
ENDBRANCH   9  10
ENDBRANCH   5   9
ENDBRANCH   4   7
ENDBRANCH   1   4
BRANCH   1  26
ATOM     26  C   UNL     1       7.786   3.857  33.819  0.00  0.00    +0.175 C 
BRANCH  26  27
ATOM     27  C   UNL     1       7.161   5.035  34.580  0.00  0.00    +0.176 C 
ATOM     28  O   UNL     1       7.874   5.183  35.839  0.00  0.00    -0.332 OA
ATOM     29  C   UNL     1       7.481   6.333  36.659  0.00  0.00    +0.277 C 
ATOM     30  C   UNL     1       5.955   6.314  36.921  0.00  0.00    +0.110 C 
ATOM     31  C   UNL     1       5.155   6.127  35.615  0.00  0.00    +0.143 C 
ATOM     32  C   UNL     1       5.648   4.904  34.840  0.00  0.00    +0.133 C 
BRANCH  32  33
ATOM     33  N   UNL     1       4.937   4.786  33.558  0.00  0.00    -0.308 N 
ATOM     34  H   UNL     1       5.133   5.476  32.845  0.00  0.00    +0.149 HD
ATOM     35  C   UNL     1       4.051   3.828  33.273  0.00  0.00    +0.210 C 
ATOM     36  C   UNL     1       3.756   2.808  34.390  0.00  0.00    +0.109 C 
ATOM     37  O   UNL     1       3.482   3.745  32.185  0.00  0.00    -0.276 OA
ENDBRANCH  32  33
BRANCH  29  38
ATOM     38  C   UNL     1       7.869   7.657  35.966  0.00  0.00    +0.414 C 
ATOM     39  O   UNL     1       7.874   7.736  34.738  0.00  0.00    -0.240 OA
ATOM     40  O   UNL     1       8.176   8.644  36.635  0.00  0.00    -0.240 OA
ENDBRANCH  29  38
BRANCH  29  41
ATOM     41  O   UNL     1       8.166   6.230  37.933  0.00  0.00    -0.343 OA
ATOM     42  C   UNL     1       9.442   5.542  37.889  0.00  0.00    +0.198 C 
ENDBRANCH  29  41
BRANCH  31  43
ATOM     43  O   UNL     1       3.769   5.963  35.919  0.00  0.00    -0.390 OA
ATOM     44  H   UNL     1       3.320   5.569  35.168  0.00  0.00    +0.210 HD
ENDBRANCH  31  43
ENDBRANCH  26  27
BRANCH  26  45
ATOM     45  O   UNL     1       7.454   3.939  32.418  0.00  0.00    -0.387 OA
ATOM     46  H   UNL     1       7.062   3.110  32.133  0.00  0.00    +0.210 HD
ENDBRANCH  26  45
ENDBRANCH   1  26
TORSDOF 13
