REMARK VINA RESULT:    -6.082      7.334     12.176
REMARK INTER + INTRA:         -14.196
REMARK INTER:                 -11.709
REMARK INTRA:                  -2.488
REMARK UNBOUND:                -3.313
REMARK  Name = lig_assembled_71.pdb
REMARK  17 active torsions:
REMARK  status: ('A' for Active; 'I' for Inactive)
REMARK    1  A    between atoms: _2  and  _12
REMARK    2  A    between atoms: _7  and  _22
REMARK    3  A    between atoms: _9  and  _10
REMARK    4  A    between atoms: _9  and  _22
REMARK    5  A    between atoms: _12  and  _13
REMARK    6  A    between atoms: _18  and  _38
REMARK    7  A    between atoms: _20  and  _26
REMARK    8  A    between atoms: _21  and  _25
REMARK    9  A    between atoms: _25  and  _26
REMARK   10  A    between atoms: _28  and  _29
REMARK   11  A    between atoms: _30  and  _31
REMARK   12  A    between atoms: _32  and  _34
REMARK   13  A    between atoms: _34  and  _35
REMARK   14  A    between atoms: _34  and  _36
REMARK   15  A    between atoms: _36  and  _37
REMARK   16  A    between atoms: _36  and  _38
REMARK   17  A    between atoms: _39  and  _41
REMARK                            x       y       z     vdW  Elec       q    Type
REMARK                         _______ _______ _______ _____ _____    ______ ____
ROOT
ATOM      1  C   UNL     1       9.552   5.027  38.177  0.00  0.00    +0.163 C 
ENDROOT
BRANCH   1   2
ATOM      2  O   UNL     1       9.378   6.350  37.644  0.00  0.00    -0.388 OA
ATOM      3  H   UNL     1      10.225   6.690  37.347  0.00  0.00    +0.210 HD
ENDBRANCH   1   2
BRANCH   1   4
ATOM      4  C   UNL     1      11.037   4.717  38.332  0.00  0.00    +0.141 C 
BRANCH   4   7
ATOM      5  C   UNL     1      12.686   3.891  36.687  0.00  0.00    +0.401 C 
ATOM      6  O   UNL     1      13.074   2.964  37.402  0.00  0.00    -0.226 OA
ATOM      7  N   UNL     1      11.742   4.763  37.045  0.00  0.00    -0.279 N 
ATOM      8  H   UNL     1      11.499   5.496  36.394  0.00  0.00    +0.152 HD
BRANCH   5   9
ATOM      9  O   UNL     1      13.273   4.065  35.395  0.00  0.00    -0.444 OA
BRANCH   9  10
ATOM     10  C   UNL     1      14.677   4.297  35.535  0.00  0.00    +0.292 C 
BRANCH  10  12
ATOM     11  N   UNL     1      14.999   5.722  33.527  0.00  0.00    -0.131 NA
ATOM     12  C   UNL     1      15.054   5.569  34.888  0.00  0.00    +0.120 A 
ATOM     13  C   UNL     1      15.487   6.745  35.453  0.00  0.00    +0.137 A 
ATOM     14  N   UNL     1      15.697   7.571  34.388  0.00  0.00    -0.242 N 
ATOM     15  N   UNL     1      15.388   6.956  33.232  0.00  0.00    -0.065 NA
BRANCH  14  16
ATOM     16  C   UNL     1      16.071   8.971  34.387  0.00  0.00    +0.241 C 
BRANCH  16  17
ATOM     17  C   UNL     1      16.430   9.453  33.006  0.00  0.00    +0.241 C 
ATOM     18  O   UNL     1      15.754  10.325  32.463  0.00  0.00    -0.273 OA
ATOM     19  N   UNL     1      17.489   8.787  32.425  0.00  0.00    -0.253 N 
ATOM     20  H   UNL     1      17.880   7.948  32.823  0.00  0.00    +0.158 HD
ATOM     21  C   UNL     1      17.997   9.090  31.166  0.00  0.00    +0.221 A 
ATOM     22  N   UNL     1      18.821   8.169  30.643  0.00  0.00    -0.223 NA
ATOM     23  C   UNL     1      19.264   8.411  29.391  0.00  0.00    +0.116 A 
ATOM     24  C   UNL     1      18.942   9.535  28.669  0.00  0.00    +0.039 A 
ATOM     25  C   UNL     1      18.133  10.431  29.315  0.00  0.00    +0.116 A 
ATOM     26  N   UNL     1      17.656  10.227  30.552  0.00  0.00    -0.223 NA
ENDBRANCH  16  17
ENDBRANCH  14  16
ENDBRANCH  10  12
ENDBRANCH   9  10
ENDBRANCH   5   9
ENDBRANCH   4   7
ENDBRANCH   1   4
BRANCH   1  27
ATOM     27  C   UNL     1       8.900   3.975  37.263  0.00  0.00    +0.175 C 
BRANCH  27  28
ATOM     28  C   UNL     1       8.309   4.601  35.991  0.00  0.00    +0.176 C 
ATOM     29  O   UNL     1       6.971   5.076  36.307  0.00  0.00    -0.332 OA
ATOM     30  C   UNL     1       6.287   5.803  35.233  0.00  0.00    +0.277 C 
ATOM     31  C   UNL     1       6.249   4.950  33.941  0.00  0.00    +0.110 C 
ATOM     32  C   UNL     1       7.645   4.397  33.583  0.00  0.00    +0.143 C 
ATOM     33  C   UNL     1       8.265   3.662  34.771  0.00  0.00    +0.133 C 
BRANCH  33  34
ATOM     34  N   UNL     1       9.629   3.215  34.446  0.00  0.00    -0.308 N 
ATOM     35  H   UNL     1      10.275   3.901  34.081  0.00  0.00    +0.149 HD
ATOM     36  C   UNL     1      10.068   1.963  34.601  0.00  0.00    +0.210 C 
ATOM     37  C   UNL     1       9.051   0.937  35.134  0.00  0.00    +0.109 C 
ATOM     38  O   UNL     1      11.220   1.621  34.334  0.00  0.00    -0.276 OA
ENDBRANCH  33  34
BRANCH  30  39
ATOM     39  C   UNL     1       6.993   7.144  34.945  0.00  0.00    +0.414 C 
ATOM     40  O   UNL     1       7.407   7.838  35.873  0.00  0.00    -0.240 OA
ATOM     41  O   UNL     1       7.148   7.532  33.787  0.00  0.00    -0.240 OA
ENDBRANCH  30  39
BRANCH  30  42
ATOM     42  O   UNL     1       4.922   6.050  35.658  0.00  0.00    -0.343 OA
ATOM     43  C   UNL     1       4.698   5.951  37.087  0.00  0.00    +0.198 C 
ENDBRANCH  30  42
BRANCH  32  44
ATOM     44  O   UNL     1       7.537   3.498  32.478  0.00  0.00    -0.390 OA
ATOM     45  H   UNL     1       7.606   2.594  32.792  0.00  0.00    +0.210 HD
ENDBRANCH  32  44
ENDBRANCH  27  28
BRANCH  27  46
ATOM     46  O   UNL     1       7.879   3.255  37.983  0.00  0.00    -0.387 OA
ATOM     47  H   UNL     1       7.319   2.786  37.360  0.00  0.00    +0.210 HD
ENDBRANCH  27  46
ENDBRANCH   1  27
TORSDOF 15
