REMARK VINA RESULT:    -6.140      2.712      7.968
REMARK INTER + INTRA:         -14.512
REMARK INTER:                 -10.376
REMARK INTRA:                  -4.136
REMARK UNBOUND:                -2.450
REMARK  Name = lig_assembled_10.pdb
REMARK  21 active torsions:
REMARK  status: ('A' for Active; 'I' for Inactive)
REMARK    1  A    between atoms: _2  and  _9
REMARK    2  A    between atoms: _4  and  _20
REMARK    3  A    between atoms: _5  and  _9
REMARK    4  A    between atoms: _5  and  _12
REMARK    5  A    between atoms: _6  and  _7
REMARK    6  A    between atoms: _6  and  _20
REMARK    7  A    between atoms: _9  and  _10
REMARK    8  A    between atoms: _10  and  _11
REMARK    9  A    between atoms: _11  and  _14
REMARK   10  A    between atoms: _16  and  _36
REMARK   11  A    between atoms: _18  and  _24
REMARK   12  A    between atoms: _19  and  _23
REMARK   13  A    between atoms: _23  and  _24
REMARK   14  A    between atoms: _26  and  _27
REMARK   15  A    between atoms: _28  and  _29
REMARK   16  A    between atoms: _30  and  _32
REMARK   17  A    between atoms: _32  and  _33
REMARK   18  A    between atoms: _32  and  _34
REMARK   19  A    between atoms: _34  and  _35
REMARK   20  A    between atoms: _34  and  _36
REMARK   21  A    between atoms: _37  and  _39
REMARK                            x       y       z     vdW  Elec       q    Type
REMARK                         _______ _______ _______ _____ _____    ______ ____
ROOT
ATOM      1  C   UNL     1      16.329  -4.155  23.835  0.00  0.00    +0.163 C 
ENDROOT
BRANCH   1   2
ATOM      2  O   UNL     1      16.624  -3.262  22.748  0.00  0.00    -0.388 OA
ATOM      3  H   UNL     1      17.574  -3.150  22.674  0.00  0.00    +0.210 HD
ENDBRANCH   1   2
BRANCH   1   4
ATOM      4  C   UNL     1      17.602  -4.494  24.629  0.00  0.00    +0.175 C 
BRANCH   4   5
ATOM      5  C   UNL     1      18.734  -3.491  24.362  0.00  0.00    +0.176 C 
ATOM      6  O   UNL     1      19.261  -3.755  23.033  0.00  0.00    -0.332 OA
ATOM      7  C   UNL     1      20.287  -2.820  22.560  0.00  0.00    +0.277 C 
ATOM      8  C   UNL     1      21.451  -2.734  23.578  0.00  0.00    +0.110 C 
ATOM      9  C   UNL     1      20.937  -2.485  25.011  0.00  0.00    +0.143 C 
ATOM     10  C   UNL     1      19.873  -3.513  25.398  0.00  0.00    +0.133 C 
BRANCH  10  11
ATOM     11  N   UNL     1      19.329  -3.213  26.732  0.00  0.00    -0.308 N 
ATOM     12  H   UNL     1      18.873  -2.322  26.867  0.00  0.00    +0.149 HD
ATOM     13  C   UNL     1      19.398  -4.043  27.777  0.00  0.00    +0.210 C 
ATOM     14  C   UNL     1      20.121  -5.383  27.547  0.00  0.00    +0.109 C 
ATOM     15  O   UNL     1      18.920  -3.772  28.879  0.00  0.00    -0.276 OA
ENDBRANCH  10  11
BRANCH   7  16
ATOM     16  C   UNL     1      19.688  -1.415  22.343  0.00  0.00    +0.414 C 
ATOM     17  O   UNL     1      18.511  -1.288  22.005  0.00  0.00    -0.240 OA
ATOM     18  O   UNL     1      20.380  -0.409  22.505  0.00  0.00    -0.240 OA
ENDBRANCH   7  16
BRANCH   7  19
ATOM     19  O   UNL     1      20.812  -3.326  21.306  0.00  0.00    -0.343 OA
ATOM     20  C   UNL     1      22.128  -3.929  21.392  0.00  0.00    +0.198 C 
ENDBRANCH   7  19
BRANCH   9  21
ATOM     21  O   UNL     1      22.025  -2.564  25.934  0.00  0.00    -0.390 OA
ATOM     22  H   UNL     1      22.559  -3.336  25.734  0.00  0.00    +0.210 HD
ENDBRANCH   9  21
ENDBRANCH   4   5
BRANCH   4  23
ATOM     23  O   UNL     1      18.040  -5.831  24.318  0.00  0.00    -0.387 OA
ATOM     24  H   UNL     1      17.747  -6.433  25.006  0.00  0.00    +0.210 HD
ENDBRANCH   4  23
ENDBRANCH   1   4
BRANCH   1  25
ATOM     25  C   UNL     1      15.301  -3.522  24.766  0.00  0.00    +0.141 C 
BRANCH  25  28
ATOM     26  C   UNL     1      16.098  -1.740  26.282  0.00  0.00    +0.401 C 
ATOM     27  O   UNL     1      16.274  -2.501  27.236  0.00  0.00    -0.226 OA
ATOM     28  N   UNL     1      15.640  -2.131  25.091  0.00  0.00    -0.279 N 
ATOM     29  H   UNL     1      15.520  -1.431  24.373  0.00  0.00    +0.152 HD
BRANCH  26  30
ATOM     30  O   UNL     1      16.392  -0.350  26.438  0.00  0.00    -0.444 OA
BRANCH  30  31
ATOM     31  C   UNL     1      17.804  -0.145  26.335  0.00  0.00    +0.292 C 
BRANCH  31  33
ATOM     32  N   UNL     1      19.335   1.451  25.219  0.00  0.00    -0.131 NA
ATOM     33  C   UNL     1      18.098   0.871  25.307  0.00  0.00    +0.120 A 
ATOM     34  C   UNL     1      17.288   1.387  24.321  0.00  0.00    +0.138 A 
ATOM     35  N   UNL     1      18.096   2.244  23.639  0.00  0.00    -0.237 N 
ATOM     36  N   UNL     1      19.321   2.296  24.200  0.00  0.00    -0.065 NA
BRANCH  35  37
ATOM     37  C   UNL     1      17.843   3.059  22.462  0.00  0.00    +0.227 C 
BRANCH  37  38
ATOM     38  C   UNL     1      17.547   4.514  22.756  0.00  0.00    +0.330 C 
ATOM     39  O   UNL     1      16.786   5.172  22.055  0.00  0.00    -0.249 OA
BRANCH  38  40
ATOM     40  O   UNL     1      18.121   5.056  23.851  0.00  0.00    -0.479 OA
ATOM     41  H   UNL     1      18.465   4.423  24.533  0.00  0.00    +0.295 HD
ENDBRANCH  38  40
ENDBRANCH  37  38
BRANCH  37  42
ATOM     42  C   UNL     1      16.839   2.448  21.475  0.00  0.00    +0.158 C 
BRANCH  42  43
ATOM     43  C   UNL     1      17.521   1.723  20.349  0.00  0.00    +0.307 C 
ATOM     44  O   UNL     1      16.973   1.442  19.291  0.00  0.00    -0.251 OA
BRANCH  43  45
ATOM     45  O   UNL     1      18.825   1.478  20.577  0.00  0.00    -0.481 OA
ATOM     46  H   UNL     1      19.043   1.187  21.484  0.00  0.00    +0.295 HD
ENDBRANCH  43  45
ENDBRANCH  42  43
ENDBRANCH  37  42
ENDBRANCH  35  37
ENDBRANCH  31  33
ENDBRANCH  30  31
ENDBRANCH  26  30
ENDBRANCH  25  28
ENDBRANCH   1  25
TORSDOF 19
