REMARK VINA RESULT:    -6.395      3.037      5.734
REMARK INTER + INTRA:         -13.317
REMARK INTER:                 -11.555
REMARK INTRA:                  -1.762
REMARK UNBOUND:                -1.875
REMARK  Name = lig_assembled_82.pdb
REMARK  19 active torsions:
REMARK  status: ('A' for Active; 'I' for Inactive)
REMARK    1  A    between atoms: _2  and  _9
REMARK    2  A    between atoms: _4  and  _22
REMARK    3  A    between atoms: _5  and  _16
REMARK    4  A    between atoms: _6  and  _7
REMARK    5  A    between atoms: _6  and  _22
REMARK    6  A    between atoms: _9  and  _10
REMARK    7  A    between atoms: _16  and  _17
REMARK    8  A    between atoms: _18  and  _38
REMARK    9  A    between atoms: _20  and  _26
REMARK   10  A    between atoms: _21  and  _25
REMARK   11  A    between atoms: _25  and  _26
REMARK   12  A    between atoms: _28  and  _29
REMARK   13  A    between atoms: _30  and  _31
REMARK   14  A    between atoms: _32  and  _34
REMARK   15  A    between atoms: _34  and  _35
REMARK   16  A    between atoms: _34  and  _36
REMARK   17  A    between atoms: _36  and  _37
REMARK   18  A    between atoms: _36  and  _38
REMARK   19  A    between atoms: _39  and  _41
REMARK                            x       y       z     vdW  Elec       q    Type
REMARK                         _______ _______ _______ _____ _____    ______ ____
ROOT
ATOM      1  C   UNL     1       7.372   2.472  34.354  0.00  0.00    +0.163 C 
ENDROOT
BRANCH   1   2
ATOM      2  O   UNL     1       8.289   2.084  35.390  0.00  0.00    -0.388 OA
ATOM      3  H   UNL     1       7.996   2.446  36.230  0.00  0.00    +0.210 HD
ENDBRANCH   1   2
BRANCH   1   4
ATOM      4  C   UNL     1       7.360   1.422  33.248  0.00  0.00    +0.141 C 
BRANCH   4   7
ATOM      5  C   UNL     1       5.726   0.385  31.712  0.00  0.00    +0.401 C 
ATOM      6  O   UNL     1       6.495  -0.506  31.344  0.00  0.00    -0.226 OA
ATOM      7  N   UNL     1       6.049   1.332  32.594  0.00  0.00    -0.279 N 
ATOM      8  H   UNL     1       5.352   2.026  32.824  0.00  0.00    +0.152 HD
BRANCH   5   9
ATOM      9  O   UNL     1       4.403   0.428  31.169  0.00  0.00    -0.444 OA
BRANCH   9  10
ATOM     10  C   UNL     1       4.034  -0.873  30.706  0.00  0.00    +0.292 C 
BRANCH  10  12
ATOM     11  N   UNL     1       4.082  -0.901  28.232  0.00  0.00    -0.131 NA
ATOM     12  C   UNL     1       3.368  -0.796  29.402  0.00  0.00    +0.120 A 
ATOM     13  C   UNL     1       2.034  -0.611  29.086  0.00  0.00    +0.137 A 
ATOM     14  N   UNL     1       2.028  -0.483  27.725  0.00  0.00    -0.247 N 
ATOM     15  N   UNL     1       3.246  -0.747  27.215  0.00  0.00    -0.065 NA
BRANCH  14  16
ATOM     16  C   UNL     1       0.940  -0.027  26.857  0.00  0.00    +0.176 C 
BRANCH  16  17
ATOM     17  C   UNL     1       1.276   1.251  26.127  0.00  0.00    -0.049 C 
ATOM     18  C   UNL     1       1.438   1.182  24.642  0.00  0.00    +0.023 C 
ATOM     19  C   UNL     1       0.940   2.418  23.765  0.00  0.00    -0.025 C 
ATOM     20  C   UNL     1      -0.230   3.390  23.965  0.00  0.00    +0.012 C 
ATOM     21  C   UNL     1       2.280   3.079  24.335  0.00  0.00    -0.000 C 
ATOM     22  C   UNL     1       2.198   3.541  25.824  0.00  0.00    +0.031 C 
ATOM     23  C   UNL     1       0.758   1.819  22.348  0.00  0.00    +0.012 C 
ATOM     24  C   UNL     1       2.897   1.657  24.256  0.00  0.00    +0.012 C 
ATOM     25  C   UNL     1       1.622   2.427  26.684  0.00  0.00    -0.025 C 
ENDBRANCH  16  17
ENDBRANCH  14  16
ENDBRANCH  10  12
ENDBRANCH   9  10
ENDBRANCH   5   9
ENDBRANCH   4   7
ENDBRANCH   1   4
BRANCH   1  26
ATOM     26  C   UNL     1       7.758   3.838  33.761  0.00  0.00    +0.175 C 
BRANCH  26  27
ATOM     27  C   UNL     1       7.139   5.005  34.544  0.00  0.00    +0.176 C 
ATOM     28  O   UNL     1       7.866   5.139  35.796  0.00  0.00    -0.332 OA
ATOM     29  C   UNL     1       7.480   6.277  36.635  0.00  0.00    +0.277 C 
ATOM     30  C   UNL     1       5.957   6.250  36.915  0.00  0.00    +0.110 C 
ATOM     31  C   UNL     1       5.142   6.077  35.616  0.00  0.00    +0.143 C 
ATOM     32  C   UNL     1       5.630   4.866  34.820  0.00  0.00    +0.133 C 
BRANCH  32  33
ATOM     33  N   UNL     1       4.905   4.762  33.544  0.00  0.00    -0.308 N 
ATOM     34  H   UNL     1       5.139   5.420  32.813  0.00  0.00    +0.149 HD
ATOM     35  C   UNL     1       3.957   3.856  33.288  0.00  0.00    +0.210 C 
ATOM     36  C   UNL     1       3.605   2.885  34.431  0.00  0.00    +0.109 C 
ATOM     37  O   UNL     1       3.377   3.783  32.204  0.00  0.00    -0.276 OA
ENDBRANCH  32  33
BRANCH  29  38
ATOM     38  C   UNL     1       7.855   7.610  35.956  0.00  0.00    +0.414 C 
ATOM     39  O   UNL     1       7.844   7.706  34.729  0.00  0.00    -0.240 OA
ATOM     40  O   UNL     1       8.170   8.590  36.633  0.00  0.00    -0.240 OA
ENDBRANCH  29  38
BRANCH  29  41
ATOM     41  O   UNL     1       8.179   6.160  37.901  0.00  0.00    -0.343 OA
ATOM     42  C   UNL     1       7.361   5.723  39.015  0.00  0.00    +0.198 C 
ENDBRANCH  29  41
BRANCH  31  43
ATOM     43  O   UNL     1       3.760   5.906  35.934  0.00  0.00    -0.390 OA
ATOM     44  H   UNL     1       3.230   6.048  35.146  0.00  0.00    +0.210 HD
ENDBRANCH  31  43
ENDBRANCH  26  27
BRANCH  26  45
ATOM     45  O   UNL     1       7.366   3.907  32.375  0.00  0.00    -0.387 OA
ATOM     46  H   UNL     1       6.411   3.976  32.316  0.00  0.00    +0.210 HD
ENDBRANCH  26  45
ENDBRANCH   1  26
TORSDOF 15
