REMARK VINA RESULT:    -6.080      4.493      6.079
REMARK INTER + INTRA:         -13.459
REMARK INTER:                 -11.602
REMARK INTRA:                  -1.857
REMARK UNBOUND:                -2.936
REMARK  Name = lig_assembled_93.pdb
REMARK  16 active torsions:
REMARK  status: ('A' for Active; 'I' for Inactive)
REMARK    1  A    between atoms: _2  and  _9
REMARK    2  A    between atoms: _4  and  _18
REMARK    3  A    between atoms: _6  and  _7
REMARK    4  A    between atoms: _6  and  _18
REMARK    5  A    between atoms: _14  and  _34
REMARK    6  A    between atoms: _16  and  _22
REMARK    7  A    between atoms: _17  and  _21
REMARK    8  A    between atoms: _21  and  _22
REMARK    9  A    between atoms: _24  and  _25
REMARK   10  A    between atoms: _26  and  _27
REMARK   11  A    between atoms: _28  and  _30
REMARK   12  A    between atoms: _30  and  _31
REMARK   13  A    between atoms: _30  and  _32
REMARK   14  A    between atoms: _32  and  _33
REMARK   15  A    between atoms: _32  and  _34
REMARK   16  A    between atoms: _35  and  _37
REMARK                            x       y       z     vdW  Elec       q    Type
REMARK                         _______ _______ _______ _____ _____    ______ ____
ROOT
ATOM      1  C   UNL     1       7.541   2.527  34.458  0.00  0.00    +0.163 C 
ENDROOT
BRANCH   1   2
ATOM      2  O   UNL     1       8.124   2.408  35.766  0.00  0.00    -0.388 OA
ATOM      3  H   UNL     1       7.457   2.106  36.388  0.00  0.00    +0.210 HD
ENDBRANCH   1   2
BRANCH   1   4
ATOM      4  C   UNL     1       8.066   1.419  33.550  0.00  0.00    +0.141 C 
BRANCH   4   7
ATOM      5  C   UNL     1       6.058   0.474  32.462  0.00  0.00    +0.401 C 
ATOM      6  O   UNL     1       5.857   1.466  31.758  0.00  0.00    -0.226 OA
ATOM      7  N   UNL     1       7.064   0.369  33.333  0.00  0.00    -0.279 N 
ATOM      8  H   UNL     1       7.140  -0.482  33.873  0.00  0.00    +0.152 HD
BRANCH   5   9
ATOM      9  O   UNL     1       5.170  -0.642  32.360  0.00  0.00    -0.444 OA
BRANCH   9  10
ATOM     10  C   UNL     1       5.929  -1.844  32.204  0.00  0.00    +0.292 C 
BRANCH  10  12
ATOM     11  N   UNL     1       5.348  -3.486  30.456  0.00  0.00    -0.131 NA
ATOM     12  C   UNL     1       5.897  -2.291  30.799  0.00  0.00    +0.121 A 
ATOM     13  C   UNL     1       6.352  -1.669  29.660  0.00  0.00    +0.143 A 
ATOM     14  N   UNL     1       6.042  -2.526  28.618  0.00  0.00    -0.219 N 
ATOM     15  N   UNL     1       5.446  -3.619  29.142  0.00  0.00    -0.060 NA
BRANCH  14  16
ATOM     16  C   UNL     1       6.271  -2.334  27.218  0.00  0.00    +0.080 A 
ATOM     17  C   UNL     1       7.573  -2.591  26.727  0.00  0.00    +0.029 A 
ATOM     18  C   UNL     1       7.899  -2.415  25.379  0.00  0.00    +0.002 A 
ATOM     19  C   UNL     1       6.936  -1.981  24.485  0.00  0.00    +0.001 A 
ATOM     20  C   UNL     1       5.644  -1.728  24.939  0.00  0.00    +0.016 A 
ATOM     21  C   UNL     1       5.296  -1.901  26.296  0.00  0.00    +0.039 A 
ATOM     22  I   UNL     1       3.264  -1.441  26.670  0.00  0.00    -0.042 I 
ENDBRANCH  14  16
ENDBRANCH  10  12
ENDBRANCH   9  10
ENDBRANCH   5   9
ENDBRANCH   4   7
ENDBRANCH   1   4
BRANCH   1  23
ATOM     23  C   UNL     1       7.861   3.897  33.835  0.00  0.00    +0.175 C 
BRANCH  23  24
ATOM     24  C   UNL     1       7.231   5.052  34.626  0.00  0.00    +0.176 C 
ATOM     25  O   UNL     1       7.952   5.181  35.882  0.00  0.00    -0.332 OA
ATOM     26  C   UNL     1       7.555   6.310  36.729  0.00  0.00    +0.277 C 
ATOM     27  C   UNL     1       6.031   6.271  37.002  0.00  0.00    +0.110 C 
ATOM     28  C   UNL     1       5.223   6.103  35.698  0.00  0.00    +0.143 C 
ATOM     29  C   UNL     1       5.722   4.902  34.894  0.00  0.00    +0.133 C 
BRANCH  29  30
ATOM     30  N   UNL     1       5.003   4.804  33.614  0.00  0.00    -0.308 N 
ATOM     31  H   UNL     1       5.195   5.503  32.911  0.00  0.00    +0.149 HD
ATOM     32  C   UNL     1       4.112   3.852  33.322  0.00  0.00    +0.210 C 
ATOM     33  C   UNL     1       3.822   2.817  34.425  0.00  0.00    +0.109 C 
ATOM     34  O   UNL     1       3.536   3.787  32.236  0.00  0.00    -0.276 OA
ENDBRANCH  29  30
BRANCH  26  35
ATOM     35  C   UNL     1       7.925   7.651  36.062  0.00  0.00    +0.414 C 
ATOM     36  O   UNL     1       7.947   7.748  34.836  0.00  0.00    -0.240 OA
ATOM     37  O   UNL     1       8.202   8.634  36.750  0.00  0.00    -0.240 OA
ENDBRANCH  26  35
BRANCH  28  38
ATOM     38  O   UNL     1       3.841   5.920  36.008  0.00  0.00    -0.390 OA
ATOM     39  H   UNL     1       3.748   5.687  36.935  0.00  0.00    +0.210 HD
ENDBRANCH  28  38
BRANCH  26  40
ATOM     40  O   UNL     1       8.250   6.186  37.997  0.00  0.00    -0.343 OA
ATOM     41  C   UNL     1       9.237   5.125  38.053  0.00  0.00    +0.198 C 
ENDBRANCH  26  40
ENDBRANCH  23  24
BRANCH  23  42
ATOM     42  O   UNL     1       7.420   3.934  32.464  0.00  0.00    -0.387 OA
ATOM     43  H   UNL     1       6.535   4.303  32.422  0.00  0.00    +0.210 HD
ENDBRANCH  23  42
ENDBRANCH   1  23
TORSDOF 14
