REMARK VINA RESULT:    -6.244     13.800     15.625
REMARK INTER + INTRA:         -13.780
REMARK INTER:                 -11.594
REMARK INTRA:                  -2.187
REMARK UNBOUND:                -2.608
REMARK  Name = lig_assembled_4.pdb
REMARK  19 active torsions:
REMARK  status: ('A' for Active; 'I' for Inactive)
REMARK    1  A    between atoms: _2  and  _9
REMARK    2  A    between atoms: _4  and  _21
REMARK    3  A    between atoms: _6  and  _7
REMARK    4  A    between atoms: _6  and  _21
REMARK    5  A    between atoms: _10  and  _11
REMARK    6  A    between atoms: _11  and  _12
REMARK    7  A    between atoms: _11  and  _13
REMARK    8  A    between atoms: _17  and  _37
REMARK    9  A    between atoms: _19  and  _25
REMARK   10  A    between atoms: _20  and  _24
REMARK   11  A    between atoms: _24  and  _25
REMARK   12  A    between atoms: _27  and  _28
REMARK   13  A    between atoms: _29  and  _30
REMARK   14  A    between atoms: _31  and  _33
REMARK   15  A    between atoms: _33  and  _34
REMARK   16  A    between atoms: _33  and  _35
REMARK   17  A    between atoms: _35  and  _36
REMARK   18  A    between atoms: _35  and  _37
REMARK   19  A    between atoms: _38  and  _40
REMARK                            x       y       z     vdW  Elec       q    Type
REMARK                         _______ _______ _______ _____ _____    ______ ____
ROOT
ATOM      1  C   UNL     1      18.897  10.884  29.073  0.00  0.00    +0.163 C 
ENDROOT
BRANCH   1   2
ATOM      2  O   UNL     1      17.505  11.113  29.345  0.00  0.00    -0.388 OA
ATOM      3  H   UNL     1      17.362  11.127  30.295  0.00  0.00    +0.210 HD
ENDBRANCH   1   2
BRANCH   1   4
ATOM      4  C   UNL     1      19.130  10.817  27.567  0.00  0.00    +0.141 C 
BRANCH   4   7
ATOM      5  C   UNL     1      19.400   8.715  26.296  0.00  0.00    +0.401 C 
ATOM      6  O   UNL     1      20.593   8.907  26.050  0.00  0.00    -0.226 OA
ATOM      7  N   UNL     1      18.638   9.558  26.993  0.00  0.00    -0.279 N 
ATOM      8  H   UNL     1      17.667   9.318  27.135  0.00  0.00    +0.152 HD
BRANCH   5   9
ATOM      9  O   UNL     1      18.774   7.525  25.810  0.00  0.00    -0.444 OA
BRANCH   9  10
ATOM     10  C   UNL     1      19.528   7.002  24.714  0.00  0.00    +0.292 C 
BRANCH  10  12
ATOM     11  N   UNL     1      18.003   5.867  23.139  0.00  0.00    -0.131 NA
ATOM     12  C   UNL     1      18.886   5.790  24.171  0.00  0.00    +0.121 A 
ATOM     13  C   UNL     1      18.997   4.478  24.573  0.00  0.00    +0.143 A 
ATOM     14  N   UNL     1      18.049   3.799  23.831  0.00  0.00    -0.219 N 
ATOM     15  N   UNL     1      17.521   4.650  22.924  0.00  0.00    -0.060 NA
BRANCH  14  16
ATOM     16  C   UNL     1      17.643   2.438  23.978  0.00  0.00    +0.070 A 
ATOM     17  C   UNL     1      17.753   1.475  22.939  0.00  0.00    -0.019 A 
ATOM     18  C   UNL     1      17.283   0.169  23.209  0.00  0.00    +0.006 A 
ATOM     19  C   UNL     1      16.717  -0.177  24.437  0.00  0.00    +0.000 A 
ATOM     20  C   UNL     1      16.622   0.770  25.445  0.00  0.00    +0.002 A 
ATOM     21  C   UNL     1      17.078   2.067  25.219  0.00  0.00    +0.028 A 
BRANCH  17  22
ATOM     22  C   UNL     1      18.334   1.762  21.554  0.00  0.00    +0.015 C 
ATOM     23  C   UNL     1      17.314   1.753  20.404  0.00  0.00    +0.012 C 
ATOM     24  C   UNL     1      19.468   0.780  21.249  0.00  0.00    +0.012 C 
ENDBRANCH  17  22
ENDBRANCH  14  16
ENDBRANCH  10  12
ENDBRANCH   9  10
ENDBRANCH   5   9
ENDBRANCH   4   7
ENDBRANCH   1   4
BRANCH   1  25
ATOM     25  C   UNL     1      19.379   9.578  29.727  0.00  0.00    +0.175 C 
BRANCH  25  26
ATOM     26  C   UNL     1      18.371   9.040  30.753  0.00  0.00    +0.176 C 
ATOM     27  O   UNL     1      18.533   9.802  31.981  0.00  0.00    -0.332 OA
ATOM     28  C   UNL     1      17.575   9.497  33.048  0.00  0.00    +0.277 C 
ATOM     29  C   UNL     1      17.586   7.982  33.368  0.00  0.00    +0.110 C 
ATOM     30  C   UNL     1      17.448   7.129  32.089  0.00  0.00    +0.143 C 
ATOM     31  C   UNL     1      18.491   7.533  31.046  0.00  0.00    +0.133 C 
BRANCH  31  32
ATOM     32  N   UNL     1      18.294   6.773  29.800  0.00  0.00    -0.308 N 
ATOM     33  H   UNL     1      17.401   6.855  29.334  0.00  0.00    +0.149 HD
ATOM     34  C   UNL     1      19.218   5.984  29.246  0.00  0.00    +0.210 C 
ATOM     35  C   UNL     1      20.559   5.860  29.995  0.00  0.00    +0.109 C 
ATOM     36  O   UNL     1      19.030   5.371  28.194  0.00  0.00    -0.276 OA
ENDBRANCH  31  32
BRANCH  28  37
ATOM     37  C   UNL     1      16.150   9.928  32.644  0.00  0.00    +0.414 C 
ATOM     38  O   UNL     1      15.191   9.191  32.870  0.00  0.00    -0.240 OA
ATOM     39  O   UNL     1      15.959  11.012  32.092  0.00  0.00    -0.240 OA
ENDBRANCH  28  37
BRANCH  30  40
ATOM     40  O   UNL     1      17.615   5.748  32.411  0.00  0.00    -0.390 OA
ATOM     41  H   UNL     1      18.192   5.664  33.174  0.00  0.00    +0.210 HD
ENDBRANCH  30  40
BRANCH  28  42
ATOM     42  O   UNL     1      17.984  10.218  34.239  0.00  0.00    -0.343 OA
ATOM     43  C   UNL     1      18.926  11.297  34.008  0.00  0.00    +0.198 C 
ENDBRANCH  28  42
ENDBRANCH  25  26
BRANCH  25  44
ATOM     44  O   UNL     1      20.663   9.778  30.350  0.00  0.00    -0.387 OA
ATOM     45  H   UNL     1      20.544   9.921  31.292  0.00  0.00    +0.210 HD
ENDBRANCH  25  44
ENDBRANCH   1  25
TORSDOF 15
