REMARK VINA RESULT:    -6.556     13.889     17.685
REMARK INTER + INTRA:         -12.548
REMARK INTER:                 -10.761
REMARK INTRA:                  -1.787
REMARK UNBOUND:                -1.202
REMARK  Name = lig_assembled_40.pdb
REMARK  17 active torsions:
REMARK  status: ('A' for Active; 'I' for Inactive)
REMARK    1  A    between atoms: _2  and  _9
REMARK    2  A    between atoms: _4  and  _19
REMARK    3  A    between atoms: _6  and  _7
REMARK    4  A    between atoms: _6  and  _19
REMARK    5  A    between atoms: _12  and  _13
REMARK    6  A    between atoms: _15  and  _35
REMARK    7  A    between atoms: _17  and  _23
REMARK    8  A    between atoms: _18  and  _22
REMARK    9  A    between atoms: _22  and  _23
REMARK   10  A    between atoms: _25  and  _26
REMARK   11  A    between atoms: _27  and  _28
REMARK   12  A    between atoms: _29  and  _31
REMARK   13  A    between atoms: _31  and  _32
REMARK   14  A    between atoms: _31  and  _33
REMARK   15  A    between atoms: _33  and  _34
REMARK   16  A    between atoms: _33  and  _35
REMARK   17  A    between atoms: _36  and  _38
REMARK                            x       y       z     vdW  Elec       q    Type
REMARK                         _______ _______ _______ _____ _____    ______ ____
ROOT
ATOM      1  C   UNL     1      18.873   6.509  24.854  0.00  0.00    +0.163 C 
ENDROOT
BRANCH   1   2
ATOM      2  O   UNL     1      17.879   6.956  23.918  0.00  0.00    -0.388 OA
ATOM      3  H   UNL     1      17.033   7.038  24.364  0.00  0.00    +0.210 HD
ENDBRANCH   1   2
BRANCH   1   4
ATOM      4  C   UNL     1      19.733   7.686  25.303  0.00  0.00    +0.141 C 
BRANCH   4   7
ATOM      5  C   UNL     1      19.327   9.004  27.353  0.00  0.00    +0.401 C 
ATOM      6  O   UNL     1      20.323   8.574  27.940  0.00  0.00    -0.226 OA
ATOM      7  N   UNL     1      18.972   8.639  26.121  0.00  0.00    -0.279 N 
ATOM      8  H   UNL     1      18.133   9.040  25.727  0.00  0.00    +0.152 HD
BRANCH   5   9
ATOM      9  O   UNL     1      18.485   9.951  28.016  0.00  0.00    -0.444 OA
BRANCH   9  10
ATOM     10  C   UNL     1      19.050  10.286  29.287  0.00  0.00    +0.292 C 
BRANCH  10  12
ATOM     11  N   UNL     1      17.236  10.350  30.968  0.00  0.00    -0.131 NA
ATOM     12  C   UNL     1      18.264   9.677  30.376  0.00  0.00    +0.121 A 
ATOM     13  C   UNL     1      18.379   8.434  30.952  0.00  0.00    +0.143 A 
ATOM     14  N   UNL     1      17.366   8.376  31.882  0.00  0.00    -0.220 N 
ATOM     15  N   UNL     1      16.699   9.558  31.888  0.00  0.00    -0.060 NA
BRANCH  14  16
ATOM     16  C   UNL     1      16.983   7.286  32.706  0.00  0.00    +0.067 A 
ATOM     17  C   UNL     1      15.850   7.369  33.523  0.00  0.00    +0.028 A 
ATOM     18  C   UNL     1      15.525   6.314  34.382  0.00  0.00    +0.005 A 
ATOM     19  C   UNL     1      16.324   5.168  34.435  0.00  0.00    -0.050 A 
ATOM     20  C   UNL     1      17.436   5.072  33.591  0.00  0.00    +0.005 A 
ATOM     21  C   UNL     1      16.004   4.054  35.389  0.00  0.00    +0.044 C 
ATOM     22  C   UNL     1      17.766   6.122  32.730  0.00  0.00    +0.028 A 
ENDBRANCH  14  16
ENDBRANCH  10  12
ENDBRANCH   9  10
ENDBRANCH   5   9
ENDBRANCH   4   7
ENDBRANCH   1   4
BRANCH   1  23
ATOM     23  C   UNL     1      19.770   5.426  24.230  0.00  0.00    +0.175 C 
BRANCH  23  24
ATOM     24  C   UNL     1      19.151   4.026  24.345  0.00  0.00    +0.176 C 
ATOM     25  O   UNL     1      18.019   3.961  23.434  0.00  0.00    -0.332 OA
ATOM     26  C   UNL     1      17.363   2.654  23.331  0.00  0.00    +0.277 C 
ATOM     27  C   UNL     1      16.938   2.149  24.731  0.00  0.00    +0.110 C 
ATOM     28  C   UNL     1      18.100   2.229  25.743  0.00  0.00    +0.143 C 
ATOM     29  C   UNL     1      18.711   3.631  25.767  0.00  0.00    +0.133 C 
BRANCH  29  30
ATOM     30  N   UNL     1      19.872   3.671  26.670  0.00  0.00    -0.308 N 
ATOM     31  H   UNL     1      20.685   3.126  26.418  0.00  0.00    +0.149 HD
ATOM     32  C   UNL     1      19.922   4.381  27.800  0.00  0.00    +0.210 C 
ATOM     33  C   UNL     1      18.658   5.180  28.170  0.00  0.00    +0.109 C 
ATOM     34  O   UNL     1      20.914   4.407  28.530  0.00  0.00    -0.276 OA
ENDBRANCH  29  30
BRANCH  26  35
ATOM     35  C   UNL     1      18.303   1.621  22.674  0.00  0.00    +0.414 C 
ATOM     36  O   UNL     1      18.058   0.418  22.759  0.00  0.00    -0.240 OA
ATOM     37  O   UNL     1      19.304   1.990  22.060  0.00  0.00    -0.240 OA
ENDBRANCH  26  35
BRANCH  28  38
ATOM     38  O   UNL     1      17.626   1.900  27.049  0.00  0.00    -0.390 OA
ATOM     39  H   UNL     1      17.868   0.995  27.260  0.00  0.00    +0.210 HD
ENDBRANCH  28  38
BRANCH  26  40
ATOM     40  O   UNL     1      16.171   2.813  22.520  0.00  0.00    -0.343 OA
ATOM     41  C   UNL     1      16.404   2.859  21.090  0.00  0.00    +0.198 C 
ENDBRANCH  26  40
ENDBRANCH  23  24
BRANCH  23  42
ATOM     42  O   UNL     1      21.074   5.445  24.845  0.00  0.00    -0.387 OA
ATOM     43  H   UNL     1      21.244   4.597  25.261  0.00  0.00    +0.210 HD
ENDBRANCH  23  42
ENDBRANCH   1  23
TORSDOF 14
