REMARK VINA RESULT:    -6.652      2.083      2.715
REMARK INTER + INTRA:         -14.909
REMARK INTER:                 -13.182
REMARK INTRA:                  -1.727
REMARK UNBOUND:                -2.230
REMARK  Name = lig_assembled_9.pdb
REMARK  20 active torsions:
REMARK  status: ('A' for Active; 'I' for Inactive)
REMARK    1  A    between atoms: _2  and  _9
REMARK    2  A    between atoms: _4  and  _23
REMARK    3  A    between atoms: _6  and  _7
REMARK    4  A    between atoms: _6  and  _23
REMARK    5  A    between atoms: _11  and  _12
REMARK    6  A    between atoms: _12  and  _17
REMARK    7  A    between atoms: _13  and  _14
REMARK    8  A    between atoms: _13  and  _17
REMARK    9  A    between atoms: _19  and  _39
REMARK   10  A    between atoms: _21  and  _27
REMARK   11  A    between atoms: _22  and  _26
REMARK   12  A    between atoms: _26  and  _27
REMARK   13  A    between atoms: _29  and  _30
REMARK   14  A    between atoms: _31  and  _32
REMARK   15  A    between atoms: _33  and  _35
REMARK   16  A    between atoms: _35  and  _36
REMARK   17  A    between atoms: _35  and  _37
REMARK   18  A    between atoms: _37  and  _38
REMARK   19  A    between atoms: _37  and  _39
REMARK   20  A    between atoms: _40  and  _42
REMARK                            x       y       z     vdW  Elec       q    Type
REMARK                         _______ _______ _______ _____ _____    ______ ____
ROOT
ATOM      1  C   UNL     1       6.441   2.990  32.828  0.00  0.00    +0.163 C 
ENDROOT
BRANCH   1   2
ATOM      2  O   UNL     1       6.305   3.160  31.407  0.00  0.00    -0.388 OA
ATOM      3  H   UNL     1       5.736   2.471  31.055  0.00  0.00    +0.210 HD
ENDBRANCH   1   2
BRANCH   1   4
ATOM      4  C   UNL     1       7.646   3.783  33.363  0.00  0.00    +0.175 C 
BRANCH   4   5
ATOM      5  C   UNL     1       7.451   4.215  34.824  0.00  0.00    +0.176 C 
ATOM      6  O   UNL     1       7.617   5.658  34.890  0.00  0.00    -0.332 OA
ATOM      7  C   UNL     1       7.360   6.267  36.198  0.00  0.00    +0.277 C 
ATOM      8  C   UNL     1       8.226   5.590  37.289  0.00  0.00    +0.110 C 
ATOM      9  C   UNL     1       8.106   4.052  37.238  0.00  0.00    +0.143 C 
ATOM     10  C   UNL     1       8.390   3.526  35.831  0.00  0.00    +0.133 C 
BRANCH  10  11
ATOM     11  N   UNL     1       8.189   2.070  35.775  0.00  0.00    -0.308 N 
ATOM     12  H   UNL     1       7.278   1.710  36.025  0.00  0.00    +0.149 HD
ATOM     13  C   UNL     1       9.130   1.193  35.415  0.00  0.00    +0.210 C 
ATOM     14  C   UNL     1      10.514   1.771  35.065  0.00  0.00    +0.109 C 
ATOM     15  O   UNL     1       8.928  -0.021  35.363  0.00  0.00    -0.276 OA
ENDBRANCH  10  11
BRANCH   7  16
ATOM     16  C   UNL     1       5.869   6.146  36.575  0.00  0.00    +0.414 C 
ATOM     17  O   UNL     1       5.536   5.991  37.749  0.00  0.00    -0.240 OA
ATOM     18  O   UNL     1       4.999   6.203  35.705  0.00  0.00    -0.240 OA
ENDBRANCH   7  16
BRANCH   7  19
ATOM     19  O   UNL     1       7.733   7.667  36.123  0.00  0.00    -0.343 OA
ATOM     20  C   UNL     1       8.269   8.225  37.349  0.00  0.00    +0.198 C 
ENDBRANCH   7  19
BRANCH   9  21
ATOM     21  O   UNL     1       9.031   3.466  38.155  0.00  0.00    -0.390 OA
ATOM     22  H   UNL     1       9.615   2.867  37.684  0.00  0.00    +0.210 HD
ENDBRANCH   9  21
ENDBRANCH   4   5
BRANCH   4  23
ATOM     23  O   UNL     1       7.891   4.936  32.533  0.00  0.00    -0.387 OA
ATOM     24  H   UNL     1       8.837   5.080  32.456  0.00  0.00    +0.210 HD
ENDBRANCH   4  23
ENDBRANCH   1   4
BRANCH   1  25
ATOM     25  C   UNL     1       5.172   3.455  33.533  0.00  0.00    +0.141 C 
BRANCH  25  28
ATOM     26  C   UNL     1       2.823   3.912  32.915  0.00  0.00    +0.401 C 
ATOM     27  O   UNL     1       2.391   3.740  34.057  0.00  0.00    -0.226 OA
ATOM     28  N   UNL     1       4.108   3.793  32.579  0.00  0.00    -0.279 N 
ATOM     29  H   UNL     1       4.364   3.944  31.613  0.00  0.00    +0.152 HD
BRANCH  26  30
ATOM     30  O   UNL     1       1.909   4.256  31.871  0.00  0.00    -0.444 OA
BRANCH  30  31
ATOM     31  C   UNL     1       1.360   3.063  31.304  0.00  0.00    +0.292 C 
BRANCH  31  33
ATOM     32  N   UNL     1       0.074   4.021  29.418  0.00  0.00    -0.131 NA
ATOM     33  C   UNL     1       1.110   3.251  29.863  0.00  0.00    +0.121 A 
ATOM     34  C   UNL     1       1.798   2.754  28.781  0.00  0.00    +0.143 A 
ATOM     35  N   UNL     1       1.162   3.286  27.681  0.00  0.00    -0.220 N 
ATOM     36  N   UNL     1       0.107   4.030  28.092  0.00  0.00    -0.060 NA
BRANCH  35  37
ATOM     37  C   UNL     1       1.503   3.155  26.311  0.00  0.00    +0.068 A 
ATOM     38  C   UNL     1       1.166   4.160  25.394  0.00  0.00    +0.042 A 
ATOM     39  C   UNL     1       1.477   4.012  24.034  0.00  0.00    +0.061 A 
ATOM     40  C   UNL     1       2.133   2.856  23.595  0.00  0.00    +0.015 A 
ATOM     41  C   UNL     1       2.482   1.859  24.508  0.00  0.00    +0.003 A 
ATOM     42  C   UNL     1       2.171   2.006  25.861  0.00  0.00    +0.028 A 
BRANCH  39  43
ATOM     43  C   UNL     1       1.191   5.080  23.040  0.00  0.00    +0.339 C 
ATOM     44  O   UNL     1       2.046   5.614  22.354  0.00  0.00    -0.245 OA
BRANCH  43  45
ATOM     45  O   UNL     1      -0.121   5.419  23.098  0.00  0.00    -0.461 OA
BRANCH  45  46
ATOM     46  C   UNL     1      -0.970   4.774  22.140  0.00  0.00    +0.229 C 
ATOM     47  C   UNL     1      -2.409   5.078  22.508  0.00  0.00    +0.048 C 
ENDBRANCH  45  46
ENDBRANCH  43  45
ENDBRANCH  39  43
ENDBRANCH  35  37
ENDBRANCH  31  33
ENDBRANCH  30  31
ENDBRANCH  26  30
ENDBRANCH  25  28
ENDBRANCH   1  25
TORSDOF 17
