REMARK VINA RESULT:    -5.413     12.432     17.045
REMARK INTER + INTRA:         -12.852
REMARK INTER:                 -10.941
REMARK INTRA:                  -1.912
REMARK UNBOUND:                -3.800
REMARK  Name = lig_assembled_65.pdb
REMARK  16 active torsions:
REMARK  status: ('A' for Active; 'I' for Inactive)
REMARK    1  A    between atoms: _8  and  _20
REMARK    2  A    between atoms: _9  and  _15
REMARK    3  A    between atoms: _10  and  _11
REMARK    4  A    between atoms: _10  and  _20
REMARK    5  A    between atoms: _16  and  _36
REMARK    6  A    between atoms: _18  and  _24
REMARK    7  A    between atoms: _19  and  _23
REMARK    8  A    between atoms: _23  and  _24
REMARK    9  A    between atoms: _26  and  _27
REMARK   10  A    between atoms: _28  and  _29
REMARK   11  A    between atoms: _30  and  _32
REMARK   12  A    between atoms: _32  and  _33
REMARK   13  A    between atoms: _32  and  _34
REMARK   14  A    between atoms: _34  and  _35
REMARK   15  A    between atoms: _34  and  _36
REMARK   16  A    between atoms: _37  and  _39
REMARK                            x       y       z     vdW  Elec       q    Type
REMARK                         _______ _______ _______ _____ _____    ______ ____
ROOT
ATOM      1  C   UNL     1       7.561   2.645  34.534  0.00  0.00    +0.163 C 
ENDROOT
BRANCH   1   2
ATOM      2  O   UNL     1       8.280   2.497  35.769  0.00  0.00    -0.388 OA
ATOM      3  H   UNL     1       9.118   2.963  35.710  0.00  0.00    +0.210 HD
ENDBRANCH   1   2
BRANCH   1   4
ATOM      4  C   UNL     1       7.948   1.530  33.568  0.00  0.00    +0.141 C 
BRANCH   4   7
ATOM      5  C   UNL     1       5.870   0.713  32.509  0.00  0.00    +0.401 C 
ATOM      6  O   UNL     1       5.755   1.689  31.764  0.00  0.00    -0.226 OA
ATOM      7  N   UNL     1       6.861   0.560  33.388  0.00  0.00    -0.279 N 
ATOM      8  H   UNL     1       6.864  -0.271  33.963  0.00  0.00    +0.152 HD
BRANCH   5   9
ATOM      9  O   UNL     1       4.891  -0.327  32.448  0.00  0.00    -0.444 OA
BRANCH   9  10
ATOM     10  C   UNL     1       5.545  -1.591  32.310  0.00  0.00    +0.292 C 
BRANCH  10  12
ATOM     11  N   UNL     1       7.234  -2.227  30.614  0.00  0.00    -0.131 NA
ATOM     12  C   UNL     1       5.968  -1.803  30.913  0.00  0.00    +0.121 A 
ATOM     13  C   UNL     1       5.263  -1.639  29.745  0.00  0.00    +0.149 A 
ATOM     14  N   UNL     1       6.152  -1.969  28.744  0.00  0.00    -0.155 N 
ATOM     15  C   UNL     1       5.912  -1.946  27.338  0.00  0.00    +0.416 C 
ATOM     16  N   UNL     1       6.903  -2.305  26.514  0.00  0.00    +0.041 NA
ATOM     17  C   UNL     1       6.609  -2.241  25.217  0.00  0.00    +0.339 C 
ATOM     18  C   UNL     1       7.682  -2.618  24.244  0.00  0.00    +0.149 C 
ATOM     19  N   UNL     1       5.432  -1.853  24.727  0.00  0.00    +0.007 NA
ATOM     20  C   UNL     1       4.525  -1.506  25.627  0.00  0.00    +0.386 C 
ATOM     21  N   UNL     1       3.296  -1.088  25.161  0.00  0.00    -0.296 N 
ATOM     22  H   UNL     1       3.130  -1.437  24.227  0.00  0.00    +0.148 HD
ATOM     23  H   UNL     1       2.573  -1.234  25.850  0.00  0.00    +0.148 HD
ATOM     24  N   UNL     1       4.696  -1.550  26.936  0.00  0.00    -0.290 NA
ATOM     25  N   UNL     1       7.339  -2.329  29.294  0.00  0.00    -0.055 NA
ENDBRANCH  10  12
ENDBRANCH   9  10
ENDBRANCH   5   9
ENDBRANCH   4   7
ENDBRANCH   1   4
BRANCH   1  26
ATOM     26  C   UNL     1       7.853   4.010  33.887  0.00  0.00    +0.175 C 
BRANCH  26  27
ATOM     27  C   UNL     1       7.260   5.172  34.697  0.00  0.00    +0.176 C 
ATOM     28  O   UNL     1       8.027   5.297  35.926  0.00  0.00    -0.332 OA
ATOM     29  C   UNL     1       7.669   6.431  36.784  0.00  0.00    +0.277 C 
ATOM     30  C   UNL     1       6.156   6.405  37.111  0.00  0.00    +0.110 C 
ATOM     31  C   UNL     1       5.301   6.242  35.838  0.00  0.00    +0.143 C 
ATOM     32  C   UNL     1       5.761   5.035  35.019  0.00  0.00    +0.133 C 
BRANCH  32  33
ATOM     33  N   UNL     1       4.996   4.941  33.765  0.00  0.00    -0.308 N 
ATOM     34  H   UNL     1       5.177   5.629  33.049  0.00  0.00    +0.149 HD
ATOM     35  C   UNL     1       4.077   4.004  33.513  0.00  0.00    +0.210 C 
ATOM     36  C   UNL     1       3.804   2.985  34.635  0.00  0.00    +0.109 C 
ATOM     37  O   UNL     1       3.462   3.941  32.448  0.00  0.00    -0.276 OA
ENDBRANCH  32  33
BRANCH  29  38
ATOM     38  C   UNL     1       8.026   7.768  36.101  0.00  0.00    +0.414 C 
ATOM     39  O   UNL     1       8.203   8.781  36.777  0.00  0.00    -0.240 OA
ATOM     40  O   UNL     1       8.138   7.833  34.877  0.00  0.00    -0.240 OA
ENDBRANCH  29  38
BRANCH  29  41
ATOM     41  O   UNL     1       8.408   6.304  38.026  0.00  0.00    -0.343 OA
ATOM     42  C   UNL     1       8.742   4.945  38.405  0.00  0.00    +0.198 C 
ENDBRANCH  29  41
BRANCH  31  43
ATOM     43  O   UNL     1       3.929   6.071  36.197  0.00  0.00    -0.390 OA
ATOM     44  H   UNL     1       3.869   5.815  37.120  0.00  0.00    +0.210 HD
ENDBRANCH  31  43
ENDBRANCH  26  27
BRANCH  26  45
ATOM     45  O   UNL     1       7.349   4.037  32.537  0.00  0.00    -0.387 OA
ATOM     46  H   UNL     1       8.071   4.214  31.929  0.00  0.00    +0.210 HD
ENDBRANCH  26  45
ENDBRANCH   1  26
TORSDOF 13
