REMARK VINA RESULT:    -7.276     15.120     17.087
REMARK INTER + INTRA:         -14.593
REMARK INTER:                 -11.812
REMARK INTRA:                  -2.781
REMARK UNBOUND:                -1.575
REMARK  Name = lig_assembled_0.pdb
REMARK  17 active torsions:
REMARK  status: ('A' for Active; 'I' for Inactive)
REMARK    1  A    between atoms: _2  and  _10
REMARK    2  A    between atoms: _5  and  _21
REMARK    3  A    between atoms: _7  and  _8
REMARK    4  A    between atoms: _7  and  _21
REMARK    5  A    between atoms: _11  and  _12
REMARK    6  A    between atoms: _17  and  _37
REMARK    7  A    between atoms: _19  and  _25
REMARK    8  A    between atoms: _20  and  _24
REMARK    9  A    between atoms: _24  and  _25
REMARK   10  A    between atoms: _27  and  _28
REMARK   11  A    between atoms: _29  and  _30
REMARK   12  A    between atoms: _31  and  _33
REMARK   13  A    between atoms: _33  and  _34
REMARK   14  A    between atoms: _33  and  _35
REMARK   15  A    between atoms: _35  and  _36
REMARK   16  A    between atoms: _35  and  _37
REMARK   17  A    between atoms: _38  and  _40
REMARK                            x       y       z     vdW  Elec       q    Type
REMARK                         _______ _______ _______ _____ _____    ______ ____
ROOT
ATOM      1  C   UNL     1      20.805   9.583  26.883  0.00  0.00    +0.163 C 
ENDROOT
BRANCH   1   2
ATOM      2  O   UNL     1      19.809  10.614  26.980  0.00  0.00    -0.388 OA
ATOM      3  H   UNL     1      18.957  10.219  27.185  0.00  0.00    +0.210 HD
ENDBRANCH   1   2
BRANCH   1   4
ATOM      4  C   UNL     1      21.359   9.525  25.463  0.00  0.00    +0.141 C 
BRANCH   4   7
ATOM      5  C   UNL     1      20.935   7.744  23.803  0.00  0.00    +0.401 C 
ATOM      6  O   UNL     1      22.112   7.379  23.755  0.00  0.00    -0.226 OA
ATOM      7  N   UNL     1      20.496   8.743  24.570  0.00  0.00    -0.279 N 
ATOM      8  H   UNL     1      19.513   8.976  24.533  0.00  0.00    +0.152 HD
BRANCH   5   9
ATOM      9  O   UNL     1      19.966   7.073  22.994  0.00  0.00    -0.444 OA
BRANCH   9  10
ATOM     10  C   UNL     1      18.778   6.850  23.758  0.00  0.00    +0.292 C 
BRANCH  10  12
ATOM     11  N   UNL     1      17.134   5.432  22.586  0.00  0.00    -0.131 NA
ATOM     12  C   UNL     1      18.198   5.534  23.431  0.00  0.00    +0.121 A 
ATOM     13  C   UNL     1      18.573   4.274  23.838  0.00  0.00    +0.143 A 
ATOM     14  N   UNL     1      17.641   3.425  23.285  0.00  0.00    -0.219 N 
ATOM     15  N   UNL     1      16.834   4.149  22.461  0.00  0.00    -0.060 NA
BRANCH  14  16
ATOM     16  C   UNL     1      17.508   2.010  23.363  0.00  0.00    +0.079 A 
ATOM     17  C   UNL     1      17.717   1.122  22.289  0.00  0.00    +0.062 A 
ATOM     18  C   UNL     1      17.508  -0.259  22.497  0.00  0.00    +0.015 A 
ATOM     19  C   UNL     1      17.090  -0.753  23.733  0.00  0.00    +0.001 A 
ATOM     20  C   UNL     1      16.900   0.120  24.795  0.00  0.00    +0.002 A 
ATOM     21  C   UNL     1      17.117   1.486  24.617  0.00  0.00    +0.028 A 
BRANCH  17  22
ATOM     22  C   UNL     1      18.324   1.515  20.987  0.00  0.00    +0.244 C 
ATOM     23  O   UNL     1      19.491   1.281  20.713  0.00  0.00    -0.270 OA
ATOM     24  N   UNL     1      17.513   2.124  20.066  0.00  0.00    -0.325 N 
ATOM     25  H   UNL     1      17.921   2.342  19.165  0.00  0.00    +0.145 HD
ATOM     26  H   UNL     1      16.537   2.339  20.210  0.00  0.00    +0.145 HD
ENDBRANCH  17  22
ENDBRANCH  14  16
ENDBRANCH  10  12
ENDBRANCH   9  10
ENDBRANCH   5   9
ENDBRANCH   4   7
ENDBRANCH   1   4
BRANCH   1  27
ATOM     27  C   UNL     1      20.217   8.212  27.261  0.00  0.00    +0.175 C 
BRANCH  27  28
ATOM     28  C   UNL     1      19.390   8.275  28.554  0.00  0.00    +0.176 C 
ATOM     29  O   UNL     1      20.006   9.258  29.431  0.00  0.00    -0.332 OA
ATOM     30  C   UNL     1      19.288   9.531  30.680  0.00  0.00    +0.277 C 
ATOM     31  C   UNL     1      19.039   8.217  31.460  0.00  0.00    +0.110 C 
ATOM     32  C   UNL     1      18.414   7.130  30.559  0.00  0.00    +0.143 C 
ATOM     33  C   UNL     1      19.239   6.930  29.288  0.00  0.00    +0.133 C 
BRANCH  33  34
ATOM     34  N   UNL     1      18.587   5.955  28.399  0.00  0.00    -0.308 N 
ATOM     35  H   UNL     1      17.740   6.240  27.927  0.00  0.00    +0.149 HD
ATOM     36  C   UNL     1      19.042   4.719  28.175  0.00  0.00    +0.210 C 
ATOM     37  C   UNL     1      20.320   4.307  28.928  0.00  0.00    +0.109 C 
ATOM     38  O   UNL     1      18.483   3.929  27.413  0.00  0.00    -0.276 OA
ENDBRANCH  33  34
BRANCH  30  39
ATOM     39  C   UNL     1      17.940  10.225  30.395  0.00  0.00    +0.414 C 
ATOM     40  O   UNL     1      17.702  10.683  29.278  0.00  0.00    -0.240 OA
ATOM     41  O   UNL     1      17.091  10.326  31.281  0.00  0.00    -0.240 OA
ENDBRANCH  30  39
BRANCH  32  42
ATOM     42  O   UNL     1      18.342   5.896  31.274  0.00  0.00    -0.390 OA
ATOM     43  H   UNL     1      19.185   5.722  31.699  0.00  0.00    +0.210 HD
ENDBRANCH  32  42
BRANCH  30  44
ATOM     44  O   UNL     1      20.120  10.396  31.495  0.00  0.00    -0.343 OA
ATOM     45  C   UNL     1      21.285  10.937  30.823  0.00  0.00    +0.198 C 
ENDBRANCH  30  44
ENDBRANCH  27  28
BRANCH  27  46
ATOM     46  O   UNL     1      21.272   7.239  27.392  0.00  0.00    -0.387 OA
ATOM     47  H   UNL     1      21.232   6.839  28.264  0.00  0.00    +0.210 HD
ENDBRANCH  27  46
ENDBRANCH   1  27
TORSDOF 15
