REMARK VINA RESULT:    -5.903     14.703     18.019
REMARK INTER + INTRA:         -13.169
REMARK INTER:                 -10.562
REMARK INTRA:                  -2.608
REMARK UNBOUND:                -2.608
REMARK  Name = lig_assembled_4.pdb
REMARK  19 active torsions:
REMARK  status: ('A' for Active; 'I' for Inactive)
REMARK    1  A    between atoms: _2  and  _9
REMARK    2  A    between atoms: _4  and  _21
REMARK    3  A    between atoms: _6  and  _7
REMARK    4  A    between atoms: _6  and  _21
REMARK    5  A    between atoms: _10  and  _11
REMARK    6  A    between atoms: _11  and  _12
REMARK    7  A    between atoms: _11  and  _13
REMARK    8  A    between atoms: _17  and  _37
REMARK    9  A    between atoms: _19  and  _25
REMARK   10  A    between atoms: _20  and  _24
REMARK   11  A    between atoms: _24  and  _25
REMARK   12  A    between atoms: _27  and  _28
REMARK   13  A    between atoms: _29  and  _30
REMARK   14  A    between atoms: _31  and  _33
REMARK   15  A    between atoms: _33  and  _34
REMARK   16  A    between atoms: _33  and  _35
REMARK   17  A    between atoms: _35  and  _36
REMARK   18  A    between atoms: _35  and  _37
REMARK   19  A    between atoms: _38  and  _40
REMARK                            x       y       z     vdW  Elec       q    Type
REMARK                         _______ _______ _______ _____ _____    ______ ____
ROOT
ATOM      1  C   UNL     1      16.937   0.887  26.365  0.00  0.00    +0.163 C 
ENDROOT
BRANCH   1   2
ATOM      2  O   UNL     1      15.877  -0.061  26.566  0.00  0.00    -0.388 OA
ATOM      3  H   UNL     1      15.030   0.373  26.435  0.00  0.00    +0.210 HD
ENDBRANCH   1   2
BRANCH   1   4
ATOM      4  C   UNL     1      16.498   1.960  25.374  0.00  0.00    +0.141 C 
BRANCH   4   7
ATOM      5  C   UNL     1      18.010   3.323  23.974  0.00  0.00    +0.401 C 
ATOM      6  O   UNL     1      17.636   2.818  22.912  0.00  0.00    -0.226 OA
ATOM      7  N   UNL     1      17.537   2.977  25.171  0.00  0.00    -0.279 N 
ATOM      8  H   UNL     1      17.914   3.442  25.986  0.00  0.00    +0.152 HD
BRANCH   5   9
ATOM      9  O   UNL     1      19.016   4.339  23.943  0.00  0.00    -0.444 OA
BRANCH   9  10
ATOM     10  C   UNL     1      18.419   5.592  23.597  0.00  0.00    +0.292 C 
BRANCH  10  12
ATOM     11  N   UNL     1      20.176   7.072  24.499  0.00  0.00    -0.131 NA
ATOM     12  C   UNL     1      18.880   6.657  24.506  0.00  0.00    +0.121 A 
ATOM     13  C   UNL     1      18.189   7.351  25.474  0.00  0.00    +0.143 A 
ATOM     14  N   UNL     1      19.151   8.096  26.130  0.00  0.00    -0.219 N 
ATOM     15  N   UNL     1      20.322   7.964  25.471  0.00  0.00    -0.060 NA
BRANCH  14  16
ATOM     16  C   UNL     1      18.989   8.869  27.319  0.00  0.00    +0.070 A 
ATOM     17  C   UNL     1      19.124   8.326  28.626  0.00  0.00    -0.019 A 
ATOM     18  C   UNL     1      18.906   9.197  29.718  0.00  0.00    +0.006 A 
ATOM     19  C   UNL     1      18.557  10.537  29.541  0.00  0.00    +0.000 A 
ATOM     20  C   UNL     1      18.436  11.056  28.262  0.00  0.00    +0.002 A 
ATOM     21  C   UNL     1      18.647  10.230  27.159  0.00  0.00    +0.028 A 
BRANCH  17  22
ATOM     22  C   UNL     1      19.478   6.868  28.923  0.00  0.00    +0.015 C 
ATOM     23  C   UNL     1      19.059   6.366  30.314  0.00  0.00    +0.012 C 
ATOM     24  C   UNL     1      20.978   6.643  28.720  0.00  0.00    +0.012 C 
ENDBRANCH  17  22
ENDBRANCH  14  16
ENDBRANCH  10  12
ENDBRANCH   9  10
ENDBRANCH   5   9
ENDBRANCH   4   7
ENDBRANCH   1   4
BRANCH   1  25
ATOM     25  C   UNL     1      18.205   0.191  25.840  0.00  0.00    +0.175 C 
BRANCH  25  26
ATOM     26  C   UNL     1      17.885  -0.859  24.766  0.00  0.00    +0.176 C 
ATOM     27  O   UNL     1      17.559  -2.105  25.443  0.00  0.00    -0.332 OA
ATOM     28  C   UNL     1      17.121  -3.202  24.575  0.00  0.00    +0.277 C 
ATOM     29  C   UNL     1      18.170  -3.467  23.467  0.00  0.00    +0.110 C 
ATOM     30  C   UNL     1      18.572  -2.166  22.740  0.00  0.00    +0.143 C 
ATOM     31  C   UNL     1      19.007  -1.093  23.738  0.00  0.00    +0.133 C 
BRANCH  31  32
ATOM     32  N   UNL     1      19.304   0.169  23.040  0.00  0.00    -0.308 N 
ATOM     33  H   UNL     1      18.537   0.654  22.596  0.00  0.00    +0.149 HD
ATOM     34  C   UNL     1      20.521   0.714  22.956  0.00  0.00    +0.210 C 
ATOM     35  C   UNL     1      21.672  -0.063  23.622  0.00  0.00    +0.109 C 
ATOM     36  O   UNL     1      20.738   1.779  22.378  0.00  0.00    -0.276 OA
ENDBRANCH  31  32
BRANCH  28  37
ATOM     37  C   UNL     1      15.759  -2.877  23.928  0.00  0.00    +0.414 C 
ATOM     38  O   UNL     1      15.152  -1.853  24.240  0.00  0.00    -0.240 OA
ATOM     39  O   UNL     1      15.266  -3.638  23.094  0.00  0.00    -0.240 OA
ENDBRANCH  28  37
BRANCH  30  40
ATOM     40  O   UNL     1      19.645  -2.432  21.836  0.00  0.00    -0.390 OA
ATOM     41  H   UNL     1      20.156  -3.179  22.156  0.00  0.00    +0.210 HD
ENDBRANCH  30  40
BRANCH  28  42
ATOM     42  O   UNL     1      17.002  -4.398  25.388  0.00  0.00    -0.343 OA
ATOM     43  C   UNL     1      17.687  -4.340  26.665  0.00  0.00    +0.198 C 
ENDBRANCH  28  42
ENDBRANCH  25  26
BRANCH  25  44
ATOM     44  O   UNL     1      18.926  -0.416  26.930  0.00  0.00    -0.387 OA
ATOM     45  H   UNL     1      19.092   0.241  27.610  0.00  0.00    +0.210 HD
ENDBRANCH  25  44
ENDBRANCH   1  25
TORSDOF 15
