REMARK VINA RESULT:    -5.661      3.011      9.775
REMARK INTER + INTRA:         -13.571
REMARK INTER:                 -11.092
REMARK INTRA:                  -2.478
REMARK UNBOUND:                -2.450
REMARK  Name = lig_assembled_10.pdb
REMARK  21 active torsions:
REMARK  status: ('A' for Active; 'I' for Inactive)
REMARK    1  A    between atoms: _2  and  _9
REMARK    2  A    between atoms: _4  and  _20
REMARK    3  A    between atoms: _5  and  _9
REMARK    4  A    between atoms: _5  and  _12
REMARK    5  A    between atoms: _6  and  _7
REMARK    6  A    between atoms: _6  and  _20
REMARK    7  A    between atoms: _9  and  _10
REMARK    8  A    between atoms: _10  and  _11
REMARK    9  A    between atoms: _11  and  _14
REMARK   10  A    between atoms: _16  and  _36
REMARK   11  A    between atoms: _18  and  _24
REMARK   12  A    between atoms: _19  and  _23
REMARK   13  A    between atoms: _23  and  _24
REMARK   14  A    between atoms: _26  and  _27
REMARK   15  A    between atoms: _28  and  _29
REMARK   16  A    between atoms: _30  and  _32
REMARK   17  A    between atoms: _32  and  _33
REMARK   18  A    between atoms: _32  and  _34
REMARK   19  A    between atoms: _34  and  _35
REMARK   20  A    between atoms: _34  and  _36
REMARK   21  A    between atoms: _37  and  _39
REMARK                            x       y       z     vdW  Elec       q    Type
REMARK                         _______ _______ _______ _____ _____    ______ ____
ROOT
ATOM      1  C   UNL     1      16.483   1.027  26.100  0.00  0.00    +0.163 C 
ENDROOT
BRANCH   1   2
ATOM      2  O   UNL     1      15.868   2.044  25.294  0.00  0.00    -0.388 OA
ATOM      3  H   UNL     1      16.153   1.946  24.382  0.00  0.00    +0.210 HD
ENDBRANCH   1   2
BRANCH   1   4
ATOM      4  C   UNL     1      16.698  -0.263  25.289  0.00  0.00    +0.175 C 
BRANCH   4   5
ATOM      5  C   UNL     1      17.764  -0.088  24.198  0.00  0.00    +0.176 C 
ATOM      6  O   UNL     1      17.309   0.955  23.291  0.00  0.00    -0.332 OA
ATOM      7  C   UNL     1      18.254   1.335  22.237  0.00  0.00    +0.277 C 
ATOM      8  C   UNL     1      18.690   0.090  21.426  0.00  0.00    +0.110 C 
ATOM      9  C   UNL     1      19.152  -1.057  22.349  0.00  0.00    +0.143 C 
ATOM     10  C   UNL     1      18.096  -1.368  23.409  0.00  0.00    +0.133 C 
BRANCH  10  11
ATOM     11  N   UNL     1      18.584  -2.403  24.335  0.00  0.00    -0.308 N 
ATOM     12  H   UNL     1      19.391  -2.185  24.902  0.00  0.00    +0.149 HD
ATOM     13  C   UNL     1      18.030  -3.610  24.475  0.00  0.00    +0.210 C 
ATOM     14  C   UNL     1      16.817  -3.920  23.577  0.00  0.00    +0.109 C 
ATOM     15  O   UNL     1      18.451  -4.451  25.269  0.00  0.00    -0.276 OA
ENDBRANCH  10  11
BRANCH   7  16
ATOM     16  C   UNL     1      19.498   2.020  22.839  0.00  0.00    +0.414 C 
ATOM     17  O   UNL     1      19.394   2.726  23.841  0.00  0.00    -0.240 OA
ATOM     18  O   UNL     1      20.606   1.866  22.323  0.00  0.00    -0.240 OA
ENDBRANCH   7  16
BRANCH   7  19
ATOM     19  O   UNL     1      17.578   2.252  21.339  0.00  0.00    -0.343 OA
ATOM     20  C   UNL     1      16.606   3.124  21.970  0.00  0.00    +0.198 C 
ENDBRANCH   7  19
BRANCH   9  21
ATOM     21  O   UNL     1      19.399  -2.230  21.572  0.00  0.00    -0.390 OA
ATOM     22  H   UNL     1      19.527  -2.981  22.157  0.00  0.00    +0.210 HD
ENDBRANCH   9  21
ENDBRANCH   4   5
BRANCH   4  23
ATOM     23  O   UNL     1      15.454  -0.695  24.704  0.00  0.00    -0.387 OA
ATOM     24  H   UNL     1      15.634  -1.226  23.925  0.00  0.00    +0.210 HD
ENDBRANCH   4  23
ENDBRANCH   1   4
BRANCH   1  25
ATOM     25  C   UNL     1      17.823   1.522  26.634  0.00  0.00    +0.141 C 
BRANCH  25  28
ATOM     26  C   UNL     1      18.233   3.647  27.827  0.00  0.00    +0.401 C 
ATOM     27  O   UNL     1      18.561   3.100  28.882  0.00  0.00    -0.226 OA
ATOM     28  N   UNL     1      17.867   2.987  26.728  0.00  0.00    -0.279 N 
ATOM     29  H   UNL     1      17.605   3.524  25.913  0.00  0.00    +0.152 HD
BRANCH  26  30
ATOM     30  O   UNL     1      18.232   5.075  27.756  0.00  0.00    -0.444 OA
BRANCH  30  31
ATOM     31  C   UNL     1      19.297   5.512  26.907  0.00  0.00    +0.292 C 
BRANCH  31  33
ATOM     32  N   UNL     1      20.678   7.463  27.556  0.00  0.00    -0.131 NA
ATOM     33  C   UNL     1      19.506   6.964  27.055  0.00  0.00    +0.120 A 
ATOM     34  C   UNL     1      18.666   8.011  26.747  0.00  0.00    +0.138 A 
ATOM     35  N   UNL     1      19.395   9.122  27.041  0.00  0.00    -0.237 N 
ATOM     36  N   UNL     1      20.597   8.785  27.551  0.00  0.00    -0.065 NA
BRANCH  35  37
ATOM     37  C   UNL     1      19.083  10.534  26.891  0.00  0.00    +0.227 C 
BRANCH  37  38
ATOM     38  C   UNL     1      20.280  11.417  26.613  0.00  0.00    +0.330 C 
ATOM     39  O   UNL     1      20.555  12.374  27.329  0.00  0.00    -0.249 OA
BRANCH  38  40
ATOM     40  O   UNL     1      21.067  11.087  25.568  0.00  0.00    -0.479 OA
ATOM     41  H   UNL     1      22.036  11.274  25.663  0.00  0.00    +0.295 HD
ENDBRANCH  38  40
ENDBRANCH  37  38
BRANCH  37  42
ATOM     42  C   UNL     1      18.183  11.102  27.997  0.00  0.00    +0.158 C 
BRANCH  42  43
ATOM     43  C   UNL     1      18.526  10.541  29.349  0.00  0.00    +0.307 C 
ATOM     44  O   UNL     1      17.822   9.739  29.950  0.00  0.00    -0.251 OA
BRANCH  43  45
ATOM     45  O   UNL     1      19.727  10.940  29.810  0.00  0.00    -0.481 OA
ATOM     46  H   UNL     1      19.730  11.273  30.729  0.00  0.00    +0.295 HD
ENDBRANCH  43  45
ENDBRANCH  42  43
ENDBRANCH  37  42
ENDBRANCH  35  37
ENDBRANCH  31  33
ENDBRANCH  30  31
ENDBRANCH  26  30
ENDBRANCH  25  28
ENDBRANCH   1  25
TORSDOF 19
