REMARK VINA RESULT:    -5.665      1.805      2.561
REMARK INTER + INTRA:         -13.496
REMARK INTER:                 -10.833
REMARK INTRA:                  -2.663
REMARK UNBOUND:                -2.036
REMARK  Name = lig_assembled_45.pdb
REMARK  24 active torsions:
REMARK  status: ('A' for Active; 'I' for Inactive)
REMARK    1  A    between atoms: _2  and  _10
REMARK    2  A    between atoms: _3  and  _12
REMARK    3  A    between atoms: _3  and  _13
REMARK    4  A    between atoms: _3  and  _14
REMARK    5  A    between atoms: _3  and  _16
REMARK    6  A    between atoms: _5  and  _21
REMARK    7  A    between atoms: _6  and  _16
REMARK    8  A    between atoms: _7  and  _8
REMARK    9  A    between atoms: _7  and  _21
REMARK   10  A    between atoms: _10  and  _11
REMARK   11  A    between atoms: _11  and  _12
REMARK   12  A    between atoms: _14  and  _15
REMARK   13  A    between atoms: _17  and  _37
REMARK   14  A    between atoms: _19  and  _25
REMARK   15  A    between atoms: _20  and  _24
REMARK   16  A    between atoms: _24  and  _25
REMARK   17  A    between atoms: _27  and  _28
REMARK   18  A    between atoms: _29  and  _30
REMARK   19  A    between atoms: _31  and  _33
REMARK   20  A    between atoms: _33  and  _34
REMARK   21  A    between atoms: _33  and  _35
REMARK   22  A    between atoms: _35  and  _36
REMARK   23  A    between atoms: _35  and  _37
REMARK   24  A    between atoms: _38  and  _40
REMARK                            x       y       z     vdW  Elec       q    Type
REMARK                         _______ _______ _______ _____ _____    ______ ____
ROOT
ATOM      1  C   UNL     1       4.282   3.650  32.557  0.00  0.00    +0.163 C 
ENDROOT
BRANCH   1   2
ATOM      2  O   UNL     1       3.352   3.945  33.612  0.00  0.00    -0.388 OA
ATOM      3  H   UNL     1       3.698   4.658  34.154  0.00  0.00    +0.210 HD
ENDBRANCH   1   2
BRANCH   1   4
ATOM      4  C   UNL     1       5.635   3.192  33.128  0.00  0.00    +0.175 C 
BRANCH   4   5
ATOM      5  C   UNL     1       5.906   3.784  34.519  0.00  0.00    +0.176 C 
ATOM      6  O   UNL     1       5.936   5.232  34.390  0.00  0.00    -0.332 OA
ATOM      7  C   UNL     1       6.079   5.977  35.645  0.00  0.00    +0.277 C 
ATOM      8  C   UNL     1       7.329   5.494  36.421  0.00  0.00    +0.110 C 
ATOM      9  C   UNL     1       7.358   3.957  36.556  0.00  0.00    +0.143 C 
ATOM     10  C   UNL     1       7.198   3.284  35.192  0.00  0.00    +0.133 C 
BRANCH  10  11
ATOM     11  N   UNL     1       7.139   1.822  35.343  0.00  0.00    -0.308 N 
ATOM     12  H   UNL     1       6.361   1.431  35.857  0.00  0.00    +0.149 HD
ATOM     13  C   UNL     1       8.046   0.977  34.846  0.00  0.00    +0.210 C 
ATOM     14  C   UNL     1       9.233   1.604  34.092  0.00  0.00    +0.109 C 
ATOM     15  O   UNL     1       7.964  -0.245  34.976  0.00  0.00    -0.276 OA
ENDBRANCH  10  11
BRANCH   7  16
ATOM     16  C   UNL     1       4.826   5.806  36.529  0.00  0.00    +0.414 C 
ATOM     17  O   UNL     1       3.746   5.506  36.022  0.00  0.00    -0.240 OA
ATOM     18  O   UNL     1       4.895   5.969  37.748  0.00  0.00    -0.240 OA
ENDBRANCH   7  16
BRANCH   9  19
ATOM     19  O   UNL     1       8.595   3.548  37.140  0.00  0.00    -0.390 OA
ATOM     20  H   UNL     1       8.498   2.667  37.511  0.00  0.00    +0.210 HD
ENDBRANCH   9  19
BRANCH   7  21
ATOM     21  O   UNL     1       6.258   7.379  35.316  0.00  0.00    -0.343 OA
ATOM     22  C   UNL     1       6.990   7.632  34.090  0.00  0.00    +0.198 C 
ENDBRANCH   7  21
ENDBRANCH   4   5
BRANCH   4  23
ATOM     23  O   UNL     1       6.701   3.542  32.223  0.00  0.00    -0.387 OA
ATOM     24  H   UNL     1       7.366   2.850  32.227  0.00  0.00    +0.210 HD
ENDBRANCH   4  23
ENDBRANCH   1   4
BRANCH   1  25
ATOM     25  C   UNL     1       3.716   2.562  31.651  0.00  0.00    +0.141 C 
BRANCH  25  28
ATOM     26  C   UNL     1       1.648   3.434  30.619  0.00  0.00    +0.401 C 
ATOM     27  O   UNL     1       0.963   3.273  31.632  0.00  0.00    -0.226 OA
ATOM     28  N   UNL     1       2.942   3.124  30.538  0.00  0.00    -0.279 N 
ATOM     29  H   UNL     1       3.417   3.284  29.660  0.00  0.00    +0.152 HD
BRANCH  26  30
ATOM     30  O   UNL     1       1.038   3.983  29.448  0.00  0.00    -0.444 OA
BRANCH  30  31
ATOM     31  C   UNL     1       0.546   2.923  28.624  0.00  0.00    +0.292 C 
BRANCH  31  33
ATOM     32  N   UNL     1       2.086   3.948  26.972  0.00  0.00    -0.131 NA
ATOM     33  C   UNL     1       1.201   2.956  27.303  0.00  0.00    +0.120 A 
ATOM     34  C   UNL     1       1.072   2.095  26.237  0.00  0.00    +0.137 A 
ATOM     35  N   UNL     1       1.907   2.623  25.301  0.00  0.00    -0.251 N 
ATOM     36  N   UNL     1       2.510   3.733  25.733  0.00  0.00    -0.065 NA
BRANCH  35  37
ATOM     37  C   UNL     1       2.151   2.125  23.962  0.00  0.00    +0.150 C 
BRANCH  37  38
ATOM     38  C   UNL     1       1.921   3.179  22.887  0.00  0.00    +0.074 C 
BRANCH  38  39
ATOM     39  C   UNL     1       0.587   3.117  22.132  0.00  0.00    +0.134 C 
BRANCH  39  40
ATOM     40  N   UNL     1      -0.633   3.888  22.735  0.00  0.00    +0.241 N 
ATOM     41  C   UNL     1      -1.573   2.876  23.412  0.00  0.00    +0.192 C 
BRANCH  40  42
ATOM     42  C   UNL     1      -1.386   4.526  21.519  0.00  0.00    +0.129 C 
ATOM     43  C   UNL     1      -0.573   4.546  20.229  0.00  0.00    +0.060 C 
ENDBRANCH  40  42
BRANCH  40  44
ATOM     44  C   UNL     1      -0.267   4.985  23.751  0.00  0.00    +0.129 C 
ATOM     45  C   UNL     1      -1.062   4.928  25.045  0.00  0.00    +0.060 C 
ENDBRANCH  40  44
ENDBRANCH  39  40
ENDBRANCH  38  39
ENDBRANCH  37  38
ENDBRANCH  35  37
ENDBRANCH  31  33
ENDBRANCH  30  31
ENDBRANCH  26  30
ENDBRANCH  25  28
ENDBRANCH   1  25
TORSDOF 19
