REMARK VINA RESULT:    -5.989      4.957     11.686
REMARK INTER + INTRA:         -12.700
REMARK INTER:                 -10.737
REMARK INTRA:                  -1.963
REMARK UNBOUND:                -2.334
REMARK  Name = lig_assembled_15.pdb
REMARK  16 active torsions:
REMARK  status: ('A' for Active; 'I' for Inactive)
REMARK    1  A    between atoms: _2  and  _9
REMARK    2  A    between atoms: _4  and  _18
REMARK    3  A    between atoms: _6  and  _7
REMARK    4  A    between atoms: _6  and  _18
REMARK    5  A    between atoms: _14  and  _34
REMARK    6  A    between atoms: _16  and  _22
REMARK    7  A    between atoms: _17  and  _21
REMARK    8  A    between atoms: _21  and  _22
REMARK    9  A    between atoms: _24  and  _25
REMARK   10  A    between atoms: _26  and  _27
REMARK   11  A    between atoms: _28  and  _30
REMARK   12  A    between atoms: _30  and  _31
REMARK   13  A    between atoms: _30  and  _32
REMARK   14  A    between atoms: _32  and  _33
REMARK   15  A    between atoms: _32  and  _34
REMARK   16  A    between atoms: _35  and  _37
REMARK                            x       y       z     vdW  Elec       q    Type
REMARK                         _______ _______ _______ _____ _____    ______ ____
ROOT
ATOM      1  C   UNL     1       2.906   2.971  30.894  0.00  0.00    +0.163 C 
ENDROOT
BRANCH   1   2
ATOM      2  O   UNL     1       2.884   1.629  30.380  0.00  0.00    -0.388 OA
ATOM      3  H   UNL     1       2.069   1.197  30.646  0.00  0.00    +0.210 HD
ENDBRANCH   1   2
BRANCH   1   4
ATOM      4  C   UNL     1       3.433   2.973  32.325  0.00  0.00    +0.141 C 
BRANCH   4   7
ATOM      5  C   UNL     1       5.853   2.538  32.085  0.00  0.00    +0.401 C 
ATOM      6  O   UNL     1       5.704   1.366  31.734  0.00  0.00    -0.226 OA
ATOM      7  N   UNL     1       4.848   3.360  32.387  0.00  0.00    -0.279 N 
ATOM      8  H   UNL     1       5.072   4.303  32.674  0.00  0.00    +0.152 HD
BRANCH   5   9
ATOM      9  O   UNL     1       7.177   3.069  32.186  0.00  0.00    -0.444 OA
BRANCH   9  10
ATOM     10  C   UNL     1       7.732   2.731  33.460  0.00  0.00    +0.292 C 
BRANCH  10  12
ATOM     11  N   UNL     1       7.352   5.138  33.886  0.00  0.00    -0.131 NA
ATOM     12  C   UNL     1       7.789   3.923  34.327  0.00  0.00    +0.121 A 
ATOM     13  C   UNL     1       8.234   4.050  35.623  0.00  0.00    +0.143 A 
ATOM     14  N   UNL     1       8.019   5.370  35.945  0.00  0.00    -0.220 N 
ATOM     15  N   UNL     1       7.501   6.013  34.871  0.00  0.00    -0.060 NA
BRANCH  14  16
ATOM     16  C   UNL     1       8.244   6.029  37.183  0.00  0.00    +0.067 A 
ATOM     17  C   UNL     1       9.373   5.737  37.960  0.00  0.00    +0.029 A 
ATOM     18  C   UNL     1       9.555   6.367  39.196  0.00  0.00    +0.017 A 
ATOM     19  C   UNL     1       8.615   7.289  39.652  0.00  0.00    +0.018 A 
ATOM     20 BR   UNL     1       8.855   8.116  41.335  0.00  0.00    -0.050 Br
ATOM     21  C   UNL     1       7.497   7.599  38.880  0.00  0.00    +0.017 A 
ATOM     22  C   UNL     1       7.311   6.972  37.645  0.00  0.00    +0.029 A 
ENDBRANCH  14  16
ENDBRANCH  10  12
ENDBRANCH   9  10
ENDBRANCH   5   9
ENDBRANCH   4   7
ENDBRANCH   1   4
BRANCH   1  23
ATOM     23  C   UNL     1       1.500   3.595  30.863  0.00  0.00    +0.175 C 
BRANCH  23  24
ATOM     24  C   UNL     1       0.742   3.247  29.573  0.00  0.00    +0.176 C 
ATOM     25  O   UNL     1       1.529   3.727  28.449  0.00  0.00    -0.332 OA
ATOM     26  C   UNL     1       1.009   3.389  27.121  0.00  0.00    +0.277 C 
ATOM     27  C   UNL     1      -0.457   3.867  26.976  0.00  0.00    +0.110 C 
ATOM     28  C   UNL     1      -1.326   3.407  28.165  0.00  0.00    +0.143 C 
ATOM     29  C   UNL     1      -0.690   3.808  29.497  0.00  0.00    +0.133 C 
BRANCH  29  30
ATOM     30  N   UNL     1      -1.482   3.290  30.623  0.00  0.00    -0.308 N 
ATOM     31  H   UNL     1      -1.581   2.288  30.708  0.00  0.00    +0.149 HD
ATOM     32  C   UNL     1      -2.080   4.056  31.539  0.00  0.00    +0.210 C 
ATOM     33  C   UNL     1      -1.933   5.579  31.366  0.00  0.00    +0.109 C 
ATOM     34  O   UNL     1      -2.725   3.593  32.481  0.00  0.00    -0.276 OA
ENDBRANCH  29  30
BRANCH  26  35
ATOM     35  C   UNL     1       1.081   1.868  26.876  0.00  0.00    +0.414 C 
ATOM     36  O   UNL     1       1.948   1.191  27.428  0.00  0.00    -0.240 OA
ATOM     37  O   UNL     1       0.274   1.317  26.127  0.00  0.00    -0.240 OA
ENDBRANCH  26  35
BRANCH  28  38
ATOM     38  O   UNL     1      -2.625   3.994  28.068  0.00  0.00    -0.390 OA
ATOM     39  H   UNL     1      -2.998   4.093  28.947  0.00  0.00    +0.210 HD
ENDBRANCH  28  38
BRANCH  26  40
ATOM     40  O   UNL     1       1.815   4.082  26.133  0.00  0.00    -0.343 OA
ATOM     41  C   UNL     1       1.106   4.478  24.932  0.00  0.00    +0.198 C 
ENDBRANCH  26  40
ENDBRANCH  23  24
BRANCH  23  42
ATOM     42  O   UNL     1       1.588   5.025  31.018  0.00  0.00    -0.387 OA
ATOM     43  H   UNL     1       2.279   5.367  30.446  0.00  0.00    +0.210 HD
ENDBRANCH  23  42
ENDBRANCH   1  23
TORSDOF 14
