REMARK VINA RESULT:    -6.085     21.669     23.600
REMARK INTER + INTRA:         -12.446
REMARK INTER:                  -9.972
REMARK INTRA:                  -2.474
REMARK UNBOUND:                -1.914
REMARK  Name = lig_assembled_56.pdb
REMARK  16 active torsions:
REMARK  status: ('A' for Active; 'I' for Inactive)
REMARK    1  A    between atoms: _2  and  _10
REMARK    2  A    between atoms: _5  and  _18
REMARK    3  A    between atoms: _7  and  _8
REMARK    4  A    between atoms: _7  and  _18
REMARK    5  A    between atoms: _14  and  _34
REMARK    6  A    between atoms: _16  and  _22
REMARK    7  A    between atoms: _17  and  _21
REMARK    8  A    between atoms: _21  and  _22
REMARK    9  A    between atoms: _24  and  _25
REMARK   10  A    between atoms: _26  and  _27
REMARK   11  A    between atoms: _28  and  _30
REMARK   12  A    between atoms: _30  and  _31
REMARK   13  A    between atoms: _30  and  _32
REMARK   14  A    between atoms: _32  and  _33
REMARK   15  A    between atoms: _32  and  _34
REMARK   16  A    between atoms: _35  and  _37
REMARK                            x       y       z     vdW  Elec       q    Type
REMARK                         _______ _______ _______ _____ _____    ______ ____
ROOT
ATOM      1  C   UNL     1      11.960  26.435  21.904  0.00  0.00    +0.163 C 
ENDROOT
BRANCH   1   2
ATOM      2  O   UNL     1      11.856  27.864  21.786  0.00  0.00    -0.388 OA
ATOM      3  H   UNL     1      12.419  28.168  21.069  0.00  0.00    +0.210 HD
ENDBRANCH   1   2
BRANCH   1   4
ATOM      4  C   UNL     1      12.024  25.801  20.519  0.00  0.00    +0.141 C 
BRANCH   4   7
ATOM      5  C   UNL     1      12.637  23.630  19.510  0.00  0.00    +0.401 C 
ATOM      6  O   UNL     1      12.189  23.914  18.397  0.00  0.00    -0.226 OA
ATOM      7  N   UNL     1      12.596  24.450  20.561  0.00  0.00    -0.279 N 
ATOM      8  H   UNL     1      12.981  24.123  21.436  0.00  0.00    +0.152 HD
BRANCH   5   9
ATOM      9  O   UNL     1      13.237  22.348  19.711  0.00  0.00    -0.444 OA
BRANCH   9  10
ATOM     10  C   UNL     1      14.541  22.333  19.123  0.00  0.00    +0.292 C 
BRANCH  10  12
ATOM     11  N   UNL     1      15.907  20.730  20.421  0.00  0.00    -0.131 NA
ATOM     12  C   UNL     1      15.559  22.020  20.143  0.00  0.00    +0.121 A 
ATOM     13  C   UNL     1      16.298  22.866  20.939  0.00  0.00    +0.143 A 
ATOM     14  N   UNL     1      17.106  22.038  21.684  0.00  0.00    -0.220 N 
ATOM     15  N   UNL     1      16.844  20.748  21.359  0.00  0.00    -0.060 NA
BRANCH  14  16
ATOM     16  C   UNL     1      18.087  22.383  22.645  0.00  0.00    +0.070 A 
ATOM     17  C   UNL     1      17.723  22.866  23.904  0.00  0.00    +0.047 A 
ATOM     18  C   UNL     1      18.735  23.201  24.790  0.00  0.00    +0.113 A 
ATOM     19  N   UNL     1      20.050  23.086  24.508  0.00  0.00    -0.263 NA
ATOM     20  C   UNL     1      20.375  22.615  23.286  0.00  0.00    +0.113 A 
ATOM     21  C   UNL     1      19.443  22.252  22.329  0.00  0.00    +0.047 A 
ENDBRANCH  14  16
ENDBRANCH  10  12
ENDBRANCH   9  10
ENDBRANCH   5   9
ENDBRANCH   4   7
ENDBRANCH   1   4
BRANCH   1  22
ATOM     22  C   UNL     1      10.762  25.859  22.678  0.00  0.00    +0.175 C 
BRANCH  22  23
ATOM     23  C   UNL     1      11.174  25.302  24.049  0.00  0.00    +0.176 C 
ATOM     24  O   UNL     1      12.471  24.662  23.900  0.00  0.00    -0.332 OA
ATOM     25  C   UNL     1      13.076  24.160  25.137  0.00  0.00    +0.277 C 
ATOM     26  C   UNL     1      12.101  23.204  25.868  0.00  0.00    +0.110 C 
ATOM     27  C   UNL     1      10.699  23.830  26.022  0.00  0.00    +0.143 C 
ATOM     28  C   UNL     1      10.166  24.321  24.675  0.00  0.00    +0.133 C 
BRANCH  28  29
ATOM     29  N   UNL     1       8.868  24.992  24.848  0.00  0.00    -0.308 N 
ATOM     30  H   UNL     1       8.859  25.887  25.317  0.00  0.00    +0.149 HD
ATOM     31  C   UNL     1       7.702  24.497  24.427  0.00  0.00    +0.210 C 
ATOM     32  C   UNL     1       7.746  23.119  23.739  0.00  0.00    +0.109 C 
ATOM     33  O   UNL     1       6.632  25.089  24.572  0.00  0.00    -0.276 OA
ENDBRANCH  28  29
BRANCH  25  34
ATOM     34  C   UNL     1      13.453  25.327  26.074  0.00  0.00    +0.414 C 
ATOM     35  O   UNL     1      13.791  26.413  25.606  0.00  0.00    -0.240 OA
ATOM     36  O   UNL     1      13.420  25.182  27.296  0.00  0.00    -0.240 OA
ENDBRANCH  25  34
BRANCH  27  37
ATOM     37  O   UNL     1       9.797  22.863  26.561  0.00  0.00    -0.390 OA
ATOM     38  H   UNL     1       9.443  22.324  25.850  0.00  0.00    +0.210 HD
ENDBRANCH  27  37
BRANCH  25  39
ATOM     39  O   UNL     1      14.269  23.413  24.783  0.00  0.00    -0.343 OA
ATOM     40  C   UNL     1      14.461  22.181  25.522  0.00  0.00    +0.198 C 
ENDBRANCH  25  39
ENDBRANCH  22  23
BRANCH  22  41
ATOM     41  O   UNL     1      10.114  24.833  21.900  0.00  0.00    -0.387 OA
ATOM     42  H   UNL     1       9.642  25.237  21.168  0.00  0.00    +0.210 HD
ENDBRANCH  22  41
ENDBRANCH   1  22
TORSDOF 14
