REMARK VINA RESULT:    -5.797      2.044      4.289
REMARK INTER + INTRA:         -14.299
REMARK INTER:                 -11.917
REMARK INTRA:                  -2.382
REMARK UNBOUND:                -3.588
REMARK  Name = lig_assembled_58.pdb
REMARK  18 active torsions:
REMARK  status: ('A' for Active; 'I' for Inactive)
REMARK    1  A    between atoms: _2  and  _9
REMARK    2  A    between atoms: _4  and  _25
REMARK    3  A    between atoms: _6  and  _7
REMARK    4  A    between atoms: _6  and  _25
REMARK    5  A    between atoms: _9  and  _10
REMARK    6  A    between atoms: _9  and  _16
REMARK    7  A    between atoms: _21  and  _41
REMARK    8  A    between atoms: _23  and  _29
REMARK    9  A    between atoms: _24  and  _28
REMARK   10  A    between atoms: _28  and  _29
REMARK   11  A    between atoms: _31  and  _32
REMARK   12  A    between atoms: _33  and  _34
REMARK   13  A    between atoms: _35  and  _37
REMARK   14  A    between atoms: _37  and  _38
REMARK   15  A    between atoms: _37  and  _39
REMARK   16  A    between atoms: _39  and  _40
REMARK   17  A    between atoms: _39  and  _41
REMARK   18  A    between atoms: _42  and  _44
REMARK                            x       y       z     vdW  Elec       q    Type
REMARK                         _______ _______ _______ _____ _____    ______ ____
ROOT
ATOM      1  C   UNL     1      21.454   5.165  29.782  0.00  0.00    +0.141 C 
ENDROOT
BRANCH   1   4
ATOM      2  C   UNL     1      19.948   3.219  30.002  0.00  0.00    +0.401 C 
ATOM      3  O   UNL     1      19.955   3.233  31.235  0.00  0.00    -0.226 OA
ATOM      4  N   UNL     1      20.625   4.081  29.242  0.00  0.00    -0.279 N 
ATOM      5  H   UNL     1      20.564   3.982  28.238  0.00  0.00    +0.152 HD
BRANCH   2   6
ATOM      6  O   UNL     1      19.177   2.223  29.323  0.00  0.00    -0.444 OA
BRANCH   6   7
ATOM      7  C   UNL     1      18.269   2.857  28.418  0.00  0.00    +0.292 C 
BRANCH   7   9
ATOM      8  N   UNL     1      16.558   1.863  26.913  0.00  0.00    -0.131 NA
ATOM      9  C   UNL     1      17.849   1.910  27.369  0.00  0.00    +0.120 A 
ATOM     10  C   UNL     1      18.601   0.993  26.672  0.00  0.00    +0.138 A 
ATOM     11  N   UNL     1      17.756   0.531  25.700  0.00  0.00    -0.240 N 
ATOM     12  N   UNL     1      16.505   1.001  25.906  0.00  0.00    -0.064 NA
BRANCH  11  13
ATOM     13  C   UNL     1      18.049  -0.320  24.532  0.00  0.00    +0.169 C 
BRANCH  13  14
ATOM     14  C   UNL     1      17.286  -1.647  24.646  0.00  0.00    -0.019 A 
ATOM     15  C   UNL     1      16.265  -1.955  23.731  0.00  0.00    +0.006 A 
ATOM     16  C   UNL     1      15.525  -3.134  23.860  0.00  0.00    +0.000 A 
ATOM     17  C   UNL     1      15.801  -4.028  24.893  0.00  0.00    +0.000 A 
ATOM     18  C   UNL     1      16.806  -3.740  25.810  0.00  0.00    +0.000 A 
ATOM     19  C   UNL     1      17.532  -2.556  25.693  0.00  0.00    +0.006 A 
ENDBRANCH  13  14
BRANCH  13  20
ATOM     20  C   UNL     1      17.867   0.419  23.199  0.00  0.00    -0.019 A 
ATOM     21  C   UNL     1      17.241   1.678  23.144  0.00  0.00    +0.006 A 
ATOM     22  C   UNL     1      17.075   2.345  21.927  0.00  0.00    +0.000 A 
ATOM     23  C   UNL     1      17.552   1.780  20.748  0.00  0.00    +0.000 A 
ATOM     24  C   UNL     1      18.221   0.564  20.786  0.00  0.00    +0.000 A 
ATOM     25  C   UNL     1      18.393  -0.099  22.000  0.00  0.00    +0.006 A 
ENDBRANCH  13  20
ENDBRANCH  11  13
ENDBRANCH   7   9
ENDBRANCH   6   7
ENDBRANCH   2   6
ENDBRANCH   1   4
BRANCH   1  26
ATOM     26  C   UNL     1      20.636   6.423  30.057  0.00  0.00    +0.163 C 
BRANCH  26  27
ATOM     27  O   UNL     1      21.500   7.485  30.495  0.00  0.00    -0.388 OA
ATOM     28  H   UNL     1      21.085   7.958  31.220  0.00  0.00    +0.210 HD
ENDBRANCH  26  27
BRANCH  26  29
ATOM     29  C   UNL     1      19.871   6.826  28.785  0.00  0.00    +0.175 C 
BRANCH  29  30
ATOM     30  C   UNL     1      19.681   8.347  28.682  0.00  0.00    +0.176 C 
ATOM     31  O   UNL     1      18.782   8.758  29.748  0.00  0.00    -0.332 OA
ATOM     32  C   UNL     1      18.566  10.203  29.873  0.00  0.00    +0.277 C 
ATOM     33  C   UNL     1      18.086  10.796  28.526  0.00  0.00    +0.110 C 
ATOM     34  C   UNL     1      18.992  10.360  27.356  0.00  0.00    +0.143 C 
ATOM     35  C   UNL     1      19.151   8.840  27.322  0.00  0.00    +0.133 C 
BRANCH  35  36
ATOM     36  N   UNL     1      20.086   8.443  26.257  0.00  0.00    -0.308 N 
ATOM     37  H   UNL     1      21.012   8.846  26.268  0.00  0.00    +0.149 HD
ATOM     38  C   UNL     1      19.790   7.584  25.278  0.00  0.00    +0.210 C 
ATOM     39  C   UNL     1      18.362   7.006  25.275  0.00  0.00    +0.109 C 
ATOM     40  O   UNL     1      20.598   7.258  24.408  0.00  0.00    -0.276 OA
ENDBRANCH  35  36
BRANCH  32  41
ATOM     41  C   UNL     1      19.862  10.914  30.316  0.00  0.00    +0.414 C 
ATOM     42  O   UNL     1      20.632  10.365  31.103  0.00  0.00    -0.240 OA
ATOM     43  O   UNL     1      20.136  12.036  29.888  0.00  0.00    -0.240 OA
ENDBRANCH  32  41
BRANCH  34  44
ATOM     44  O   UNL     1      18.429  10.802  26.120  0.00  0.00    -0.390 OA
ATOM     45  H   UNL     1      17.973  11.635  26.255  0.00  0.00    +0.210 HD
ENDBRANCH  34  44
BRANCH  32  46
ATOM     46  O   UNL     1      17.528  10.418  30.863  0.00  0.00    -0.343 OA
ATOM     47  C   UNL     1      17.446   9.401  31.894  0.00  0.00    +0.198 C 
ENDBRANCH  32  46
ENDBRANCH  29  30
BRANCH  29  48
ATOM     48  O   UNL     1      18.592   6.162  28.743  0.00  0.00    -0.387 OA
ATOM     49  H   UNL     1      18.501   5.595  29.512  0.00  0.00    +0.210 HD
ENDBRANCH  29  48
ENDBRANCH  26  29
ENDBRANCH   1  26
TORSDOF 16
