REMARK VINA RESULT:    -6.804      1.577      2.988
REMARK INTER + INTRA:         -15.269
REMARK INTER:                 -12.891
REMARK INTRA:                  -2.378
REMARK UNBOUND:                -2.499
REMARK  Name = lig_assembled_64.pdb
REMARK  19 active torsions:
REMARK  status: ('A' for Active; 'I' for Inactive)
REMARK    1  A    between atoms: _2  and  _10
REMARK    2  A    between atoms: _5  and  _27
REMARK    3  A    between atoms: _7  and  _8
REMARK    4  A    between atoms: _7  and  _27
REMARK    5  A    between atoms: _12  and  _13
REMARK    6  A    between atoms: _13  and  _21
REMARK    7  A    between atoms: _14  and  _15
REMARK    8  A    between atoms: _23  and  _43
REMARK    9  A    between atoms: _25  and  _31
REMARK   10  A    between atoms: _26  and  _30
REMARK   11  A    between atoms: _30  and  _31
REMARK   12  A    between atoms: _33  and  _34
REMARK   13  A    between atoms: _35  and  _36
REMARK   14  A    between atoms: _37  and  _39
REMARK   15  A    between atoms: _39  and  _40
REMARK   16  A    between atoms: _39  and  _41
REMARK   17  A    between atoms: _41  and  _42
REMARK   18  A    between atoms: _41  and  _43
REMARK   19  A    between atoms: _44  and  _46
REMARK                            x       y       z     vdW  Elec       q    Type
REMARK                         _______ _______ _______ _____ _____    ______ ____
ROOT
ATOM      1  C   UNL     1       4.860   0.770  32.182  0.00  0.00    +0.401 C 
ATOM      2  O   UNL     1       4.174   0.360  33.122  0.00  0.00    -0.226 OA
ATOM      3  N   UNL     1       5.253   2.036  32.043  0.00  0.00    -0.279 N 
ATOM      4  H   UNL     1       5.822   2.274  31.242  0.00  0.00    +0.152 HD
ENDROOT
BRANCH   3   5
ATOM      5  C   UNL     1       4.906   3.105  32.987  0.00  0.00    +0.141 C 
BRANCH   5   6
ATOM      6  C   UNL     1       5.900   3.190  34.141  0.00  0.00    +0.163 C 
BRANCH   6   7
ATOM      7  O   UNL     1       5.764   2.040  34.992  0.00  0.00    -0.388 OA
ATOM      8  H   UNL     1       6.033   2.269  35.885  0.00  0.00    +0.210 HD
ENDBRANCH   6   7
BRANCH   6   9
ATOM      9  C   UNL     1       7.329   3.294  33.581  0.00  0.00    +0.175 C 
BRANCH   9  10
ATOM     10  C   UNL     1       8.354   3.640  34.672  0.00  0.00    +0.176 C 
ATOM     11  O   UNL     1       8.712   2.407  35.356  0.00  0.00    -0.332 OA
ATOM     12  C   UNL     1       9.765   2.527  36.368  0.00  0.00    +0.277 C 
ATOM     13  C   UNL     1       9.397   3.615  37.407  0.00  0.00    +0.110 C 
ATOM     14  C   UNL     1       8.978   4.935  36.725  0.00  0.00    +0.143 C 
ATOM     15  C   UNL     1       7.880   4.693  35.690  0.00  0.00    +0.133 C 
BRANCH  15  16
ATOM     16  N   UNL     1       7.551   5.943  34.986  0.00  0.00    -0.308 N 
ATOM     17  H   UNL     1       8.216   6.294  34.312  0.00  0.00    +0.149 HD
ATOM     18  C   UNL     1       6.431   6.644  35.181  0.00  0.00    +0.210 C 
ATOM     19  C   UNL     1       5.449   6.097  36.235  0.00  0.00    +0.109 C 
ATOM     20  O   UNL     1       6.175   7.681  34.567  0.00  0.00    -0.276 OA
ENDBRANCH  15  16
BRANCH  12  21
ATOM     21  C   UNL     1      11.117   2.879  35.712  0.00  0.00    +0.414 C 
ATOM     22  O   UNL     1      11.916   3.612  36.292  0.00  0.00    -0.240 OA
ATOM     23  O   UNL     1      11.408   2.428  34.603  0.00  0.00    -0.240 OA
ENDBRANCH  12  21
BRANCH  12  24
ATOM     24  O   UNL     1       9.873   1.255  37.057  0.00  0.00    -0.343 OA
ATOM     25  C   UNL     1       9.006   0.209  36.550  0.00  0.00    +0.198 C 
ENDBRANCH  12  24
BRANCH  14  26
ATOM     26  O   UNL     1       8.504   5.856  37.709  0.00  0.00    -0.390 OA
ATOM     27  H   UNL     1       7.863   5.419  38.275  0.00  0.00    +0.210 HD
ENDBRANCH  14  26
ENDBRANCH   9  10
BRANCH   9  28
ATOM     28  O   UNL     1       7.379   4.273  32.524  0.00  0.00    -0.387 OA
ATOM     29  H   UNL     1       6.870   5.046  32.780  0.00  0.00    +0.210 HD
ENDBRANCH   9  28
ENDBRANCH   6   9
ENDBRANCH   5   6
ENDBRANCH   3   5
BRANCH   1  30
ATOM     30  O   UNL     1       5.273  -0.152  31.170  0.00  0.00    -0.444 OA
BRANCH  30  31
ATOM     31  C   UNL     1       4.159  -0.956  30.772  0.00  0.00    +0.292 C 
BRANCH  31  33
ATOM     32  N   UNL     1       3.522  -1.008  28.375  0.00  0.00    -0.131 NA
ATOM     33  C   UNL     1       3.501  -0.378  29.586  0.00  0.00    +0.121 A 
ATOM     34  C   UNL     1       2.799   0.799  29.466  0.00  0.00    +0.143 A 
ATOM     35  N   UNL     1       2.414   0.850  28.147  0.00  0.00    -0.220 N 
ATOM     36  N   UNL     1       2.857  -0.257  27.506  0.00  0.00    -0.060 NA
BRANCH  35  37
ATOM     37  C   UNL     1       1.668   1.857  27.487  0.00  0.00    +0.071 A 
ATOM     38  C   UNL     1       0.606   2.481  28.132  0.00  0.00    +0.063 A 
ATOM     39  CA  UNL     1      -0.081   3.454  27.433  0.00  0.00    +0.150 A 
ATOM     40  N   UNL     1       0.200   3.842  26.156  0.00  0.00    -0.240 NA
ATOM     41  C   UNL     1       1.232   3.216  25.527  0.00  0.00    +0.074 A 
ATOM     42  C   UNL     1       1.988   2.232  26.172  0.00  0.00    +0.056 A 
BRANCH  41  43
ATOM     43  C   UNL     1       1.472   3.630  24.123  0.00  0.00    +0.000 A 
ATOM     44  C   UNL     1       1.640   2.694  23.086  0.00  0.00    +0.010 A 
ATOM     45  C   UNL     1       1.829   3.097  21.758  0.00  0.00    +0.001 A 
ATOM     46  C   UNL     1       1.854   4.449  21.434  0.00  0.00    +0.000 A 
ATOM     47  C   UNL     1       1.698   5.399  22.439  0.00  0.00    +0.001 A 
ATOM     48  C   UNL     1       1.511   4.993  23.766  0.00  0.00    +0.010 A 
ENDBRANCH  41  43
BRANCH  39  49
ATOM     49  C   UNL     1      -1.227   4.150  28.086  0.00  0.00    +0.355 C 
ATOM     50  OXT UNL     1      -2.365   4.163  27.651  0.00  0.00    -0.243 OA
BRANCH  49  51
ATOM     51  O   UNL     1      -0.829   4.765  29.223  0.00  0.00    -0.476 OA
ATOM     52  H   UNL     1      -1.490   5.456  29.461  0.00  0.00    +0.295 HD
ENDBRANCH  49  51
ENDBRANCH  39  49
ENDBRANCH  35  37
ENDBRANCH  31  33
ENDBRANCH  30  31
ENDBRANCH   1  30
TORSDOF 17
