REMARK VINA RESULT:    -5.609      2.371      7.728
REMARK INTER + INTRA:         -14.200
REMARK INTER:                 -11.499
REMARK INTRA:                  -2.701
REMARK UNBOUND:                -2.852
REMARK  Name = lig_assembled_11.pdb
REMARK  22 active torsions:
REMARK  status: ('A' for Active; 'I' for Inactive)
REMARK    1  A    between atoms: _2  and  _9
REMARK    2  A    between atoms: _4  and  _21
REMARK    3  A    between atoms: _5  and  _9
REMARK    4  A    between atoms: _5  and  _13
REMARK    5  A    between atoms: _6  and  _7
REMARK    6  A    between atoms: _6  and  _21
REMARK    7  A    between atoms: _9  and  _10
REMARK    8  A    between atoms: _10  and  _11
REMARK    9  A    between atoms: _11  and  _12
REMARK   10  A    between atoms: _12  and  _15
REMARK   11  A    between atoms: _17  and  _37
REMARK   12  A    between atoms: _19  and  _25
REMARK   13  A    between atoms: _20  and  _24
REMARK   14  A    between atoms: _24  and  _25
REMARK   15  A    between atoms: _27  and  _28
REMARK   16  A    between atoms: _29  and  _30
REMARK   17  A    between atoms: _31  and  _33
REMARK   18  A    between atoms: _33  and  _34
REMARK   19  A    between atoms: _33  and  _35
REMARK   20  A    between atoms: _35  and  _36
REMARK   21  A    between atoms: _35  and  _37
REMARK   22  A    between atoms: _38  and  _40
REMARK                            x       y       z     vdW  Elec       q    Type
REMARK                         _______ _______ _______ _____ _____    ______ ____
ROOT
ATOM      1  C   UNL     1      17.955  -1.358  22.792  0.00  0.00    +0.163 C 
ENDROOT
BRANCH   1   2
ATOM      2  O   UNL     1      17.915  -2.734  22.379  0.00  0.00    -0.388 OA
ATOM      3  H   UNL     1      17.466  -2.802  21.533  0.00  0.00    +0.210 HD
ENDBRANCH   1   2
BRANCH   1   4
ATOM      4  C   UNL     1      18.972  -1.154  23.928  0.00  0.00    +0.175 C 
BRANCH   4   5
ATOM      5  C   UNL     1      18.313  -0.601  25.200  0.00  0.00    +0.176 C 
ATOM      6  O   UNL     1      19.010   0.621  25.570  0.00  0.00    -0.332 OA
ATOM      7  C   UNL     1      18.449   1.351  26.711  0.00  0.00    +0.277 C 
ATOM      8  C   UNL     1      18.332   0.421  27.943  0.00  0.00    +0.110 C 
ATOM      9  C   UNL     1      17.625  -0.905  27.592  0.00  0.00    +0.143 C 
ATOM     10  C   UNL     1      18.289  -1.578  26.390  0.00  0.00    +0.133 C 
BRANCH  10  11
ATOM     11  N   UNL     1      17.554  -2.796  26.011  0.00  0.00    -0.308 N 
ATOM     12  H   UNL     1      16.586  -2.697  25.737  0.00  0.00    +0.149 HD
ATOM     13  C   UNL     1      18.082  -4.022  26.004  0.00  0.00    +0.210 C 
ATOM     14  C   UNL     1      19.551  -4.143  26.451  0.00  0.00    +0.109 C 
ATOM     15  O   UNL     1      17.447  -5.022  25.668  0.00  0.00    -0.276 OA
ENDBRANCH  10  11
BRANCH   7  16
ATOM     16  C   UNL     1      17.059   1.923  26.363  0.00  0.00    +0.414 C 
ATOM     17  O   UNL     1      16.499   2.704  27.132  0.00  0.00    -0.240 OA
ATOM     18  O   UNL     1      16.497   1.605  25.314  0.00  0.00    -0.240 OA
ENDBRANCH   7  16
BRANCH   7  19
ATOM     19  O   UNL     1      19.355   2.435  27.040  0.00  0.00    -0.343 OA
ATOM     20  C   UNL     1      19.851   2.426  28.402  0.00  0.00    +0.198 C 
ENDBRANCH   7  19
BRANCH   9  21
ATOM     21  O   UNL     1      17.674  -1.789  28.713  0.00  0.00    -0.390 OA
ATOM     22  H   UNL     1      17.248  -2.619  28.485  0.00  0.00    +0.210 HD
ENDBRANCH   9  21
ENDBRANCH   4   5
BRANCH   4  23
ATOM     23  O   UNL     1      20.031  -0.276  23.495  0.00  0.00    -0.387 OA
ATOM     24  H   UNL     1      19.835   0.051  22.614  0.00  0.00    +0.210 HD
ENDBRANCH   4  23
ENDBRANCH   1   4
BRANCH   1  25
ATOM     25  C   UNL     1      18.327  -0.469  21.609  0.00  0.00    +0.141 C 
BRANCH  25  28
ATOM     26  C   UNL     1      17.705   1.740  20.693  0.00  0.00    +0.401 C 
ATOM     27  O   UNL     1      18.619   1.759  19.866  0.00  0.00    -0.226 OA
ATOM     28  N   UNL     1      17.498   0.741  21.552  0.00  0.00    -0.279 N 
ATOM     29  H   UNL     1      16.727   0.821  22.200  0.00  0.00    +0.152 HD
BRANCH  26  30
ATOM     30  O   UNL     1      16.803   2.847  20.757  0.00  0.00    -0.444 OA
BRANCH  30  31
ATOM     31  C   UNL     1      16.420   3.074  22.116  0.00  0.00    +0.292 C 
BRANCH  31  33
ATOM     32  N   UNL     1      16.980   5.457  22.489  0.00  0.00    -0.131 NA
ATOM     33  C   UNL     1      17.251   4.135  22.715  0.00  0.00    +0.120 A 
ATOM     34  C   UNL     1      18.346   4.038  23.542  0.00  0.00    +0.138 A 
ATOM     35  N   UNL     1      18.727   5.332  23.752  0.00  0.00    -0.238 N 
ATOM     36  N   UNL     1      17.881   6.181  23.138  0.00  0.00    -0.065 NA
BRANCH  35  37
ATOM     37  C   UNL     1      19.768   5.884  24.612  0.00  0.00    +0.217 C 
BRANCH  37  38
ATOM     38  C   UNL     1      19.514   5.673  26.097  0.00  0.00    +0.330 C 
ATOM     39  O   UNL     1      20.316   5.874  26.996  0.00  0.00    -0.249 OA
BRANCH  38  40
ATOM     40  O   UNL     1      18.269   5.213  26.383  0.00  0.00    -0.479 OA
ATOM     41  H   UNL     1      17.941   4.459  25.857  0.00  0.00    +0.295 HD
ENDBRANCH  38  40
ENDBRANCH  37  38
BRANCH  37  42
ATOM     42  C   UNL     1      20.080   7.351  24.266  0.00  0.00    +0.049 C 
BRANCH  42  43
ATOM     43  C   UNL     1      21.405   7.573  23.525  0.00  0.00    +0.123 C 
BRANCH  43  44
ATOM     44  C   UNL     1      21.463   8.958  22.922  0.00  0.00    +0.305 C 
ATOM     45  O   UNL     1      21.663   9.196  21.743  0.00  0.00    -0.251 OA
BRANCH  44  46
ATOM     46  O   UNL     1      21.290   9.933  23.842  0.00  0.00    -0.481 OA
ATOM     47  H   UNL     1      20.489  10.475  23.713  0.00  0.00    +0.295 HD
ENDBRANCH  44  46
ENDBRANCH  43  44
ENDBRANCH  42  43
ENDBRANCH  37  42
ENDBRANCH  35  37
ENDBRANCH  31  33
ENDBRANCH  30  31
ENDBRANCH  26  30
ENDBRANCH  25  28
ENDBRANCH   1  25
TORSDOF 20
