REMARK VINA RESULT:    -6.630     14.404     17.444
REMARK INTER + INTRA:         -13.793
REMARK INTER:                 -11.288
REMARK INTRA:                  -2.504
REMARK UNBOUND:                -1.736
REMARK  Name = lig_assembled_59.pdb
REMARK  18 active torsions:
REMARK  status: ('A' for Active; 'I' for Inactive)
REMARK    1  A    between atoms: _2  and  _10
REMARK    2  A    between atoms: _5  and  _20
REMARK    3  A    between atoms: _7  and  _8
REMARK    4  A    between atoms: _7  and  _20
REMARK    5  A    between atoms: _13  and  _14
REMARK    6  A    between atoms: _14  and  _15
REMARK    7  A    between atoms: _16  and  _36
REMARK    8  A    between atoms: _18  and  _24
REMARK    9  A    between atoms: _19  and  _23
REMARK   10  A    between atoms: _23  and  _24
REMARK   11  A    between atoms: _26  and  _27
REMARK   12  A    between atoms: _28  and  _29
REMARK   13  A    between atoms: _30  and  _32
REMARK   14  A    between atoms: _32  and  _33
REMARK   15  A    between atoms: _32  and  _34
REMARK   16  A    between atoms: _34  and  _35
REMARK   17  A    between atoms: _34  and  _36
REMARK   18  A    between atoms: _37  and  _39
REMARK                            x       y       z     vdW  Elec       q    Type
REMARK                         _______ _______ _______ _____ _____    ______ ____
ROOT
ATOM      1  C   UNL     1      18.649   1.982  22.643  0.00  0.00    +0.163 C 
ENDROOT
BRANCH   1   2
ATOM      2  O   UNL     1      19.931   2.582  22.892  0.00  0.00    -0.388 OA
ATOM      3  H   UNL     1      19.855   3.537  22.830  0.00  0.00    +0.210 HD
ENDBRANCH   1   2
BRANCH   1   4
ATOM      4  C   UNL     1      18.517   0.639  23.382  0.00  0.00    +0.175 C 
BRANCH   4   5
ATOM      5  C   UNL     1      18.136   0.827  24.858  0.00  0.00    +0.176 C 
ATOM      6  O   UNL     1      19.305   1.333  25.560  0.00  0.00    -0.332 OA
ATOM      7  C   UNL     1      19.098   1.675  26.971  0.00  0.00    +0.277 C 
ATOM      8  C   UNL     1      18.509   0.467  27.740  0.00  0.00    +0.110 C 
ATOM      9  C   UNL     1      17.282  -0.125  27.014  0.00  0.00    +0.143 C 
ATOM     10  C   UNL     1      17.608  -0.441  25.554  0.00  0.00    +0.133 C 
BRANCH  10  11
ATOM     11  N   UNL     1      16.408  -0.923  24.851  0.00  0.00    -0.308 N 
ATOM     12  H   UNL     1      15.611  -0.305  24.801  0.00  0.00    +0.149 HD
ATOM     13  C   UNL     1      16.305  -2.124  24.275  0.00  0.00    +0.210 C 
ATOM     14  C   UNL     1      17.529  -3.052  24.392  0.00  0.00    +0.109 C 
ATOM     15  O   UNL     1      15.293  -2.495  23.680  0.00  0.00    -0.276 OA
ENDBRANCH  10  11
BRANCH   7  16
ATOM     16  C   UNL     1      18.151   2.885  27.108  0.00  0.00    +0.414 C 
ATOM     17  O   UNL     1      17.217   2.855  27.908  0.00  0.00    -0.240 OA
ATOM     18  O   UNL     1      18.321   3.892  26.418  0.00  0.00    -0.240 OA
ENDBRANCH   7  16
BRANCH   7  19
ATOM     19  O   UNL     1      20.390   1.998  27.548  0.00  0.00    -0.343 OA
ATOM     20  C   UNL     1      21.459   2.189  26.588  0.00  0.00    +0.198 C 
ENDBRANCH   7  19
BRANCH   9  21
ATOM     21  O   UNL     1      16.865  -1.322  27.673  0.00  0.00    -0.390 OA
ATOM     22  H   UNL     1      15.906  -1.368  27.677  0.00  0.00    +0.210 HD
ENDBRANCH   9  21
ENDBRANCH   4   5
BRANCH   4  23
ATOM     23  O   UNL     1      19.745  -0.108  23.277  0.00  0.00    -0.387 OA
ATOM     24  H   UNL     1      19.617  -0.854  22.686  0.00  0.00    +0.210 HD
ENDBRANCH   4  23
ENDBRANCH   1   4
BRANCH   1  25
ATOM     25  C   UNL     1      17.536   2.923  23.094  0.00  0.00    +0.141 C 
BRANCH  25  28
ATOM     26  C   UNL     1      17.583   5.386  22.896  0.00  0.00    +0.401 C 
ATOM     27  O   UNL     1      16.680   5.429  22.057  0.00  0.00    -0.226 OA
ATOM     28  N   UNL     1      18.050   4.257  23.430  0.00  0.00    -0.279 N 
ATOM     29  H   UNL     1      18.800   4.322  24.104  0.00  0.00    +0.152 HD
BRANCH  26  30
ATOM     30  O   UNL     1      18.183   6.607  23.334  0.00  0.00    -0.444 OA
BRANCH  30  31
ATOM     31  C   UNL     1      19.480   6.336  23.871  0.00  0.00    +0.292 C 
BRANCH  31  33
ATOM     32  N   UNL     1      20.918   7.627  25.414  0.00  0.00    -0.131 NA
ATOM     33  C   UNL     1      19.690   7.105  25.113  0.00  0.00    +0.121 A 
ATOM     34  C   UNL     1      18.807   7.423  26.119  0.00  0.00    +0.145 A 
ATOM     35  N   UNL     1      19.549   8.150  27.022  0.00  0.00    -0.202 N 
ATOM     36  N   UNL     1      20.825   8.264  26.573  0.00  0.00    -0.059 NA
BRANCH  35  37
ATOM     37  C   UNL     1      19.107   8.704  28.254  0.00  0.00    +0.156 A 
ATOM     38  C   UNL     1      19.052   7.888  29.383  0.00  0.00    +0.048 A 
ATOM     39  C   UNL     1      18.579   8.428  30.577  0.00  0.00    +0.011 A 
ATOM     40  C   UNL     1      18.176   9.764  30.629  0.00  0.00    -0.004 A 
ATOM     41  C   UNL     1      18.267  10.502  29.451  0.00  0.00    +0.119 A 
ATOM     42  N   UNL     1      18.728  10.011  28.276  0.00  0.00    -0.236 NA
BRANCH  40  43
ATOM     43  C   UNL     1      17.576  10.338  31.879  0.00  0.00    +0.192 C 
BRANCH  43  44
ATOM     44  O   UNL     1      16.456  11.159  31.586  0.00  0.00    -0.390 OA
ATOM     45  H   UNL     1      15.957  10.715  30.877  0.00  0.00    +0.210 HD
ENDBRANCH  43  44
ENDBRANCH  40  43
ENDBRANCH  35  37
ENDBRANCH  31  33
ENDBRANCH  30  31
ENDBRANCH  26  30
ENDBRANCH  25  28
ENDBRANCH   1  25
TORSDOF 16
