REMARK VINA RESULT:    -5.018     24.134     25.539
REMARK INTER + INTRA:         -11.796
REMARK INTER:                  -9.748
REMARK INTRA:                  -2.048
REMARK UNBOUND:                -2.671
REMARK  Name = lig_assembled_1.pdb
REMARK  18 active torsions:
REMARK  status: ('A' for Active; 'I' for Inactive)
REMARK    1  A    between atoms: _2  and  _9
REMARK    2  A    between atoms: _4  and  _15
REMARK    3  A    between atoms: _5  and  _9
REMARK    4  A    between atoms: _5  and  _10
REMARK    5  A    between atoms: _6  and  _7
REMARK    6  A    between atoms: _6  and  _15
REMARK    7  A    between atoms: _11  and  _31
REMARK    8  A    between atoms: _13  and  _19
REMARK    9  A    between atoms: _14  and  _18
REMARK   10  A    between atoms: _18  and  _19
REMARK   11  A    between atoms: _21  and  _22
REMARK   12  A    between atoms: _23  and  _24
REMARK   13  A    between atoms: _25  and  _27
REMARK   14  A    between atoms: _27  and  _28
REMARK   15  A    between atoms: _27  and  _29
REMARK   16  A    between atoms: _29  and  _30
REMARK   17  A    between atoms: _29  and  _31
REMARK   18  A    between atoms: _32  and  _34
REMARK                            x       y       z     vdW  Elec       q    Type
REMARK                         _______ _______ _______ _____ _____    ______ ____
ROOT
ATOM      1  C   UNL     1      -4.929  10.800  15.051  0.00  0.00    +0.175 C 
ENDROOT
BRANCH   1   2
ATOM      2  C   UNL     1      -4.145   9.498  14.830  0.00  0.00    +0.176 C 
ATOM      3  O   UNL     1      -4.317   9.103  13.441  0.00  0.00    -0.332 OA
ATOM      4  C   UNL     1      -3.548   7.929  13.017  0.00  0.00    +0.277 C 
ATOM      5  C   UNL     1      -3.843   6.725  13.944  0.00  0.00    +0.110 C 
ATOM      6  C   UNL     1      -3.704   7.105  15.433  0.00  0.00    +0.143 C 
ATOM      7  C   UNL     1      -4.542   8.341  15.764  0.00  0.00    +0.133 C 
BRANCH   7   8
ATOM      8  N   UNL     1      -4.334   8.745  17.164  0.00  0.00    -0.308 N 
ATOM      9  H   UNL     1      -3.386   8.909  17.471  0.00  0.00    +0.149 HD
ATOM     10  C   UNL     1      -5.316   8.909  18.054  0.00  0.00    +0.210 C 
ATOM     11  C   UNL     1      -6.748   8.626  17.561  0.00  0.00    +0.109 C 
ATOM     12  O   UNL     1      -5.113   9.263  19.216  0.00  0.00    -0.276 OA
ENDBRANCH   7   8
BRANCH   4  13
ATOM     13  C   UNL     1      -2.035   8.232  13.030  0.00  0.00    +0.414 C 
ATOM     14  O   UNL     1      -1.227   7.369  12.689  0.00  0.00    -0.240 OA
ATOM     15  O   UNL     1      -1.623   9.338  13.382  0.00  0.00    -0.240 OA
ENDBRANCH   4  13
BRANCH   4  16
ATOM     16  O   UNL     1      -3.965   7.582  11.671  0.00  0.00    -0.343 OA
ATOM     17  C   UNL     1      -4.105   8.706  10.765  0.00  0.00    +0.198 C 
ENDBRANCH   4  16
BRANCH   6  18
ATOM     18  O   UNL     1      -4.130   6.015  16.251  0.00  0.00    -0.390 OA
ATOM     19  H   UNL     1      -5.084   5.924  16.193  0.00  0.00    +0.210 HD
ENDBRANCH   6  18
ENDBRANCH   1   2
BRANCH   1  20
ATOM     20  O   UNL     1      -5.482  11.265  13.803  0.00  0.00    -0.387 OA
ATOM     21  H   UNL     1      -6.423  11.072  13.778  0.00  0.00    +0.210 HD
ENDBRANCH   1  20
BRANCH   1  22
ATOM     22  C   UNL     1      -4.060  11.899  15.687  0.00  0.00    +0.163 C 
BRANCH  22  23
ATOM     23  O   UNL     1      -4.561  12.264  16.983  0.00  0.00    -0.388 OA
ATOM     24  H   UNL     1      -4.140  13.077  17.272  0.00  0.00    +0.210 HD
ENDBRANCH  22  23
BRANCH  22  25
ATOM     25  C   UNL     1      -4.035  13.121  14.774  0.00  0.00    +0.141 C 
BRANCH  25  28
ATOM     26  C   UNL     1      -2.549  12.797  12.827  0.00  0.00    +0.401 C 
ATOM     27  O   UNL     1      -3.403  12.217  12.153  0.00  0.00    -0.226 OA
ATOM     28  N   UNL     1      -2.756  13.248  14.065  0.00  0.00    -0.279 N 
ATOM     29  H   UNL     1      -1.990  13.703  14.541  0.00  0.00    +0.152 HD
BRANCH  26  30
ATOM     30  O   UNL     1      -1.249  13.007  12.270  0.00  0.00    -0.444 OA
BRANCH  30  31
ATOM     31  C   UNL     1      -0.749  14.280  12.689  0.00  0.00    +0.292 C 
BRANCH  31  33
ATOM     32  N   UNL     1       0.659  14.011  10.669  0.00  0.00    -0.131 NA
ATOM     33  C   UNL     1       0.310  14.743  11.772  0.00  0.00    +0.120 A 
ATOM     34  C   UNL     1       1.086  15.880  11.822  0.00  0.00    +0.137 A 
ATOM     35  N   UNL     1       1.889  15.775  10.727  0.00  0.00    -0.249 N 
ATOM     36  N   UNL     1       1.635  14.651  10.039  0.00  0.00    -0.065 NA
BRANCH  35  37
ATOM     37  C   UNL     1       2.903  16.702  10.275  0.00  0.00    +0.173 C 
BRANCH  37  38
ATOM     38  C   UNL     1       3.969  16.034   9.417  0.00  0.00    +0.179 C 
BRANCH  38  39
ATOM     39  O   UNL     1       4.484  14.864  10.051  0.00  0.00    -0.393 OA
ATOM     40  H   UNL     1       4.724  14.239   9.340  0.00  0.00    +0.209 HD
ENDBRANCH  38  39
ENDBRANCH  37  38
ENDBRANCH  35  37
ENDBRANCH  31  33
ENDBRANCH  30  31
ENDBRANCH  26  30
ENDBRANCH  25  28
ENDBRANCH  22  25
ENDBRANCH   1  22
TORSDOF 16
