REMARK VINA RESULT:    -5.486     12.621     15.014
REMARK INTER + INTRA:         -12.623
REMARK INTER:                 -10.193
REMARK INTRA:                  -2.430
REMARK UNBOUND:                -2.326
REMARK  Name = lig_assembled_32.pdb
REMARK  19 active torsions:
REMARK  status: ('A' for Active; 'I' for Inactive)
REMARK    1  A    between atoms: _2  and  _9
REMARK    2  A    between atoms: _4  and  _17
REMARK    3  A    between atoms: _5  and  _10
REMARK    4  A    between atoms: _5  and  _11
REMARK    5  A    between atoms: _6  and  _7
REMARK    6  A    between atoms: _6  and  _17
REMARK    7  A    between atoms: _9  and  _10
REMARK    8  A    between atoms: _13  and  _33
REMARK    9  A    between atoms: _15  and  _21
REMARK   10  A    between atoms: _16  and  _20
REMARK   11  A    between atoms: _20  and  _21
REMARK   12  A    between atoms: _23  and  _24
REMARK   13  A    between atoms: _25  and  _26
REMARK   14  A    between atoms: _27  and  _29
REMARK   15  A    between atoms: _29  and  _30
REMARK   16  A    between atoms: _29  and  _31
REMARK   17  A    between atoms: _31  and  _32
REMARK   18  A    between atoms: _31  and  _33
REMARK   19  A    between atoms: _34  and  _36
REMARK                            x       y       z     vdW  Elec       q    Type
REMARK                         _______ _______ _______ _____ _____    ______ ____
ROOT
ATOM      1  C   UNL     1      19.064  -1.681  22.313  0.00  0.00    +0.163 C 
ENDROOT
BRANCH   1   2
ATOM      2  O   UNL     1      19.845  -2.584  21.513  0.00  0.00    -0.388 OA
ATOM      3  H   UNL     1      20.320  -3.190  22.086  0.00  0.00    +0.210 HD
ENDBRANCH   1   2
BRANCH   1   4
ATOM      4  C   UNL     1      19.304  -1.927  23.812  0.00  0.00    +0.175 C 
BRANCH   4   5
ATOM      5  C   UNL     1      18.108  -1.485  24.669  0.00  0.00    +0.176 C 
ATOM      6  O   UNL     1      18.622  -0.718  25.792  0.00  0.00    -0.332 OA
ATOM      7  C   UNL     1      17.609  -0.120  26.668  0.00  0.00    +0.277 C 
ATOM      8  C   UNL     1      16.628  -1.203  27.178  0.00  0.00    +0.110 C 
ATOM      9  C   UNL     1      16.079  -2.065  26.022  0.00  0.00    +0.143 C 
ATOM     10  C   UNL     1      17.217  -2.635  25.174  0.00  0.00    +0.133 C 
BRANCH  10  11
ATOM     11  N   UNL     1      16.680  -3.382  24.026  0.00  0.00    -0.308 N 
ATOM     12  H   UNL     1      16.125  -2.874  23.351  0.00  0.00    +0.149 HD
ATOM     13  C   UNL     1      16.879  -4.686  23.817  0.00  0.00    +0.210 C 
ATOM     14  C   UNL     1      17.707  -5.436  24.877  0.00  0.00    +0.109 C 
ATOM     15  O   UNL     1      16.429  -5.282  22.838  0.00  0.00    -0.276 OA
ENDBRANCH  10  11
BRANCH   7  16
ATOM     16  C   UNL     1      16.822   0.979  25.923  0.00  0.00    +0.414 C 
ATOM     17  O   UNL     1      15.607   1.085  26.079  0.00  0.00    -0.240 OA
ATOM     18  O   UNL     1      17.403   1.759  25.168  0.00  0.00    -0.240 OA
ENDBRANCH   7  16
BRANCH   7  19
ATOM     19  O   UNL     1      18.289   0.457  27.812  0.00  0.00    -0.343 OA
ATOM     20  C   UNL     1      19.715   0.198  27.872  0.00  0.00    +0.198 C 
ENDBRANCH   7  19
BRANCH   9  21
ATOM     21  O   UNL     1      15.302  -3.141  26.550  0.00  0.00    -0.390 OA
ATOM     22  H   UNL     1      15.467  -3.937  26.039  0.00  0.00    +0.210 HD
ENDBRANCH   9  21
ENDBRANCH   4   5
BRANCH   4  23
ATOM     23  O   UNL     1      20.500  -1.248  24.242  0.00  0.00    -0.387 OA
ATOM     24  H   UNL     1      21.064  -1.863  24.718  0.00  0.00    +0.210 HD
ENDBRANCH   4  23
ENDBRANCH   1   4
BRANCH   1  25
ATOM     25  C   UNL     1      19.422  -0.238  21.970  0.00  0.00    +0.141 C 
BRANCH  25  28
ATOM     26  C   UNL     1      17.655   1.433  21.532  0.00  0.00    +0.401 C 
ATOM     27  O   UNL     1      17.805   1.410  20.308  0.00  0.00    -0.226 OA
ATOM     28  N   UNL     1      18.372   0.700  22.385  0.00  0.00    -0.279 N 
ATOM     29  H   UNL     1      18.181   0.795  23.373  0.00  0.00    +0.152 HD
BRANCH  26  30
ATOM     30  O   UNL     1      16.661   2.294  22.094  0.00  0.00    -0.444 OA
BRANCH  30  31
ATOM     31  C   UNL     1      16.769   3.594  21.509  0.00  0.00    +0.292 C 
BRANCH  31  33
ATOM     32  N   UNL     1      16.892   5.802  22.621  0.00  0.00    -0.131 NA
ATOM     33  C   UNL     1      17.389   4.535  22.460  0.00  0.00    +0.120 A 
ATOM     34  C   UNL     1      18.475   4.369  23.292  0.00  0.00    +0.137 A 
ATOM     35  N   UNL     1      18.592   5.572  23.918  0.00  0.00    -0.251 N 
ATOM     36  N   UNL     1      17.640   6.430  23.516  0.00  0.00    -0.065 NA
BRANCH  35  37
ATOM     37  C   UNL     1      19.568   5.976  24.906  0.00  0.00    +0.156 C 
BRANCH  37  38
ATOM     38  C   UNL     1      18.972   6.035  26.305  0.00  0.00    +0.143 C 
BRANCH  38  39
ATOM     39  C   UNL     1      18.905   4.657  26.898  0.00  0.00    +0.306 C 
ATOM     40  O   UNL     1      19.858   4.045  27.353  0.00  0.00    -0.251 OA
BRANCH  39  41
ATOM     41  O   UNL     1      17.658   4.136  26.868  0.00  0.00    -0.481 OA
ATOM     42  H   UNL     1      17.425   3.604  27.654  0.00  0.00    +0.295 HD
ENDBRANCH  39  41
ENDBRANCH  38  39
ENDBRANCH  37  38
ENDBRANCH  35  37
ENDBRANCH  31  33
ENDBRANCH  30  31
ENDBRANCH  26  30
ENDBRANCH  25  28
ENDBRANCH   1  25
TORSDOF 17
