REMARK VINA RESULT:    -7.010     20.312     24.738
REMARK INTER + INTRA:         -15.018
REMARK INTER:                 -12.458
REMARK INTRA:                  -2.560
REMARK UNBOUND:                -2.067
REMARK  Name = lig_assembled_79.pdb
REMARK  20 active torsions:
REMARK  status: ('A' for Active; 'I' for Inactive)
REMARK    1  A    between atoms: _2  and  _10
REMARK    2  A    between atoms: _5  and  _26
REMARK    3  A    between atoms: _7  and  _8
REMARK    4  A    between atoms: _7  and  _26
REMARK    5  A    between atoms: _10  and  _11
REMARK    6  A    between atoms: _10  and  _12
REMARK    7  A    between atoms: _10  and  _13
REMARK    8  A    between atoms: _13  and  _14
REMARK    9  A    between atoms: _22  and  _42
REMARK   10  A    between atoms: _24  and  _30
REMARK   11  A    between atoms: _25  and  _29
REMARK   12  A    between atoms: _29  and  _30
REMARK   13  A    between atoms: _32  and  _33
REMARK   14  A    between atoms: _34  and  _35
REMARK   15  A    between atoms: _36  and  _38
REMARK   16  A    between atoms: _38  and  _39
REMARK   17  A    between atoms: _38  and  _40
REMARK   18  A    between atoms: _40  and  _41
REMARK   19  A    between atoms: _40  and  _42
REMARK   20  A    between atoms: _43  and  _45
REMARK                            x       y       z     vdW  Elec       q    Type
REMARK                         _______ _______ _______ _____ _____    ______ ____
ROOT
ATOM      1  C   UNL     1      11.808   3.613  37.394  0.00  0.00    +0.401 C 
ATOM      2  O   UNL     1      11.827   2.435  37.758  0.00  0.00    -0.226 OA
ATOM      3  N   UNL     1      11.020   4.546  37.929  0.00  0.00    -0.279 N 
ATOM      4  H   UNL     1      11.083   5.488  37.568  0.00  0.00    +0.152 HD
ENDROOT
BRANCH   3   5
ATOM      5  C   UNL     1      10.065   4.282  39.012  0.00  0.00    +0.141 C 
BRANCH   5   6
ATOM      6  C   UNL     1       8.628   4.566  38.585  0.00  0.00    +0.163 C 
BRANCH   6   7
ATOM      7  O   UNL     1       8.490   5.947  38.213  0.00  0.00    -0.388 OA
ATOM      8  H   UNL     1       8.371   6.013  37.262  0.00  0.00    +0.210 HD
ENDBRANCH   6   7
BRANCH   6   9
ATOM      9  C   UNL     1       8.246   3.641  37.417  0.00  0.00    +0.175 C 
BRANCH   9  10
ATOM     10  C   UNL     1       7.755   4.428  36.193  0.00  0.00    +0.176 C 
ATOM     11  O   UNL     1       6.364   4.784  36.419  0.00  0.00    -0.332 OA
ATOM     12  C   UNL     1       5.752   5.635  35.394  0.00  0.00    +0.277 C 
ATOM     13  C   UNL     1       5.907   4.992  33.994  0.00  0.00    +0.110 C 
ATOM     14  C   UNL     1       7.365   4.568  33.720  0.00  0.00    +0.143 C 
ATOM     15  C   UNL     1       7.902   3.688  34.850  0.00  0.00    +0.133 C 
BRANCH  15  16
ATOM     16  N   UNL     1       9.318   3.362  34.621  0.00  0.00    -0.308 N 
ATOM     17  H   UNL     1       9.962   4.128  34.485  0.00  0.00    +0.149 HD
ATOM     18  C   UNL     1       9.807   2.120  34.579  0.00  0.00    +0.210 C 
ATOM     19  C   UNL     1       8.795   0.973  34.763  0.00  0.00    +0.109 C 
ATOM     20  O   UNL     1      11.001   1.877  34.400  0.00  0.00    -0.276 OA
ENDBRANCH  15  16
BRANCH  12  21
ATOM     21  C   UNL     1       6.397   7.037  35.392  0.00  0.00    +0.414 C 
ATOM     22  O   UNL     1       7.033   7.429  36.370  0.00  0.00    -0.240 OA
ATOM     23  O   UNL     1       6.281   7.776  34.413  0.00  0.00    -0.240 OA
ENDBRANCH  12  21
BRANCH  14  24
ATOM     24  O   UNL     1       7.434   3.847  32.489  0.00  0.00    -0.390 OA
ATOM     25  H   UNL     1       8.289   3.993  32.080  0.00  0.00    +0.210 HD
ENDBRANCH  14  24
BRANCH  12  26
ATOM     26  O   UNL     1       4.337   5.749  35.691  0.00  0.00    -0.343 OA
ATOM     27  C   UNL     1       3.681   4.503  36.035  0.00  0.00    +0.198 C 
ENDBRANCH  12  26
ENDBRANCH   9  10
BRANCH   9  28
ATOM     28  O   UNL     1       7.240   2.699  37.838  0.00  0.00    -0.387 OA
ATOM     29  H   UNL     1       7.070   2.073  37.130  0.00  0.00    +0.210 HD
ENDBRANCH   9  28
ENDBRANCH   6   9
ENDBRANCH   5   6
ENDBRANCH   3   5
BRANCH   1  30
ATOM     30  O   UNL     1      12.679   4.027  36.338  0.00  0.00    -0.444 OA
BRANCH  30  31
ATOM     31  C   UNL     1      13.671   4.916  36.858  0.00  0.00    +0.292 C 
BRANCH  31  33
ATOM     32  N   UNL     1      14.508   4.868  34.538  0.00  0.00    -0.131 NA
ATOM     33  C   UNL     1      14.477   5.477  35.758  0.00  0.00    +0.120 A 
ATOM     34  C   UNL     1      15.282   6.594  35.726  0.00  0.00    +0.138 A 
ATOM     35  N   UNL     1      15.710   6.671  34.430  0.00  0.00    -0.238 N 
ATOM     36  N   UNL     1      15.297   5.575  33.746  0.00  0.00    -0.064 NA
BRANCH  35  37
ATOM     37  C   UNL     1      16.664   7.611  33.771  0.00  0.00    +0.122 C 
ATOM     38  C   UNL     1      17.158   6.905  32.486  0.00  0.00    +0.044 C 
ATOM     39  C   UNL     1      17.758   7.871  34.826  0.00  0.00    +0.044 C 
BRANCH  37  40
ATOM     40  C   UNL     1      16.018   8.945  33.344  0.00  0.00    +0.192 C 
ATOM     41  O   UNL     1      14.931   8.951  32.757  0.00  0.00    -0.289 OA
BRANCH  40  42
ATOM     42  C   UNL     1      16.665  10.267  33.589  0.00  0.00    +0.045 A 
ATOM     43  C   UNL     1      17.288  10.937  32.543  0.00  0.00    +0.095 A 
ATOM     44  N   UNL     1      17.830  12.100  32.999  0.00  0.00    -0.360 N 
ATOM     45  H   UNL     1      18.346  12.765  32.439  0.00  0.00    +0.165 HD
ATOM     46  C   UNL     1      17.583  12.237  34.341  0.00  0.00    +0.047 A 
ATOM     47  C   UNL     1      17.969  13.273  35.204  0.00  0.00    +0.026 A 
ATOM     48  C   UNL     1      17.601  13.185  36.546  0.00  0.00    +0.002 A 
ATOM     49  C   UNL     1      16.871  12.100  37.005  0.00  0.00    +0.001 A 
ATOM     50  C   UNL     1      16.495  11.076  36.127  0.00  0.00    +0.011 A 
ATOM     51  C   UNL     1      16.849  11.116  34.754  0.00  0.00    +0.010 A 
ENDBRANCH  40  42
ENDBRANCH  37  40
ENDBRANCH  35  37
ENDBRANCH  31  33
ENDBRANCH  30  31
ENDBRANCH   1  30
TORSDOF 16
