REMARK VINA RESULT:    -5.561      8.356     14.340
REMARK INTER + INTRA:         -12.762
REMARK INTER:                  -9.922
REMARK INTRA:                  -2.841
REMARK UNBOUND:                -2.326
REMARK  Name = lig_assembled_32.pdb
REMARK  19 active torsions:
REMARK  status: ('A' for Active; 'I' for Inactive)
REMARK    1  A    between atoms: _2  and  _9
REMARK    2  A    between atoms: _4  and  _17
REMARK    3  A    between atoms: _5  and  _10
REMARK    4  A    between atoms: _5  and  _11
REMARK    5  A    between atoms: _6  and  _7
REMARK    6  A    between atoms: _6  and  _17
REMARK    7  A    between atoms: _9  and  _10
REMARK    8  A    between atoms: _13  and  _33
REMARK    9  A    between atoms: _15  and  _21
REMARK   10  A    between atoms: _16  and  _20
REMARK   11  A    between atoms: _20  and  _21
REMARK   12  A    between atoms: _23  and  _24
REMARK   13  A    between atoms: _25  and  _26
REMARK   14  A    between atoms: _27  and  _29
REMARK   15  A    between atoms: _29  and  _30
REMARK   16  A    between atoms: _29  and  _31
REMARK   17  A    between atoms: _31  and  _32
REMARK   18  A    between atoms: _31  and  _33
REMARK   19  A    between atoms: _34  and  _36
REMARK                            x       y       z     vdW  Elec       q    Type
REMARK                         _______ _______ _______ _____ _____    ______ ____
ROOT
ATOM      1  C   UNL     1      19.151   6.597  24.682  0.00  0.00    +0.163 C 
ENDROOT
BRANCH   1   2
ATOM      2  O   UNL     1      18.024   6.702  23.796  0.00  0.00    -0.388 OA
ATOM      3  H   UNL     1      18.334   6.765  22.889  0.00  0.00    +0.210 HD
ENDBRANCH   1   2
BRANCH   1   4
ATOM      4  C   UNL     1      20.119   5.497  24.212  0.00  0.00    +0.175 C 
BRANCH   4   5
ATOM      5  C   UNL     1      19.560   4.089  24.465  0.00  0.00    +0.176 C 
ATOM      6  O   UNL     1      18.482   3.859  23.518  0.00  0.00    -0.332 OA
ATOM      7  C   UNL     1      17.894   2.516  23.541  0.00  0.00    +0.277 C 
ATOM      8  C   UNL     1      17.420   2.157  24.970  0.00  0.00    +0.110 C 
ATOM      9  C   UNL     1      18.524   2.416  26.018  0.00  0.00    +0.143 C 
ATOM     10  C   UNL     1      19.066   3.841  25.902  0.00  0.00    +0.133 C 
BRANCH  10  11
ATOM     11  N   UNL     1      20.176   4.047  26.846  0.00  0.00    -0.308 N 
ATOM     12  H   UNL     1      21.038   3.547  26.678  0.00  0.00    +0.149 HD
ATOM     13  C   UNL     1      20.119   4.852  27.910  0.00  0.00    +0.210 C 
ATOM     14  C   UNL     1      18.784   5.580  28.154  0.00  0.00    +0.109 C 
ATOM     15  O   UNL     1      21.070   5.017  28.676  0.00  0.00    -0.276 OA
ENDBRANCH  10  11
BRANCH   7  16
ATOM     16  C   UNL     1      18.913   1.465  23.056  0.00  0.00    +0.414 C 
ATOM     17  O   UNL     1      18.893   0.323  23.515  0.00  0.00    -0.240 OA
ATOM     18  O   UNL     1      19.755   1.757  22.206  0.00  0.00    -0.240 OA
ENDBRANCH   7  16
BRANCH   7  19
ATOM     19  O   UNL     1      16.738   2.517  22.663  0.00  0.00    -0.343 OA
ATOM     20  C   UNL     1      16.731   3.566  21.662  0.00  0.00    +0.198 C 
ENDBRANCH   7  19
BRANCH   9  21
ATOM     21  O   UNL     1      17.998   2.217  27.331  0.00  0.00    -0.390 OA
ATOM     22  H   UNL     1      18.669   1.814  27.887  0.00  0.00    +0.210 HD
ENDBRANCH   9  21
ENDBRANCH   4   5
BRANCH   4  23
ATOM     23  O   UNL     1      21.396   5.650  24.862  0.00  0.00    -0.387 OA
ATOM     24  H   UNL     1      22.098   5.421  24.248  0.00  0.00    +0.210 HD
ENDBRANCH   4  23
ENDBRANCH   1   4
BRANCH   1  25
ATOM     25  C   UNL     1      19.888   7.930  24.749  0.00  0.00    +0.141 C 
BRANCH  25  28
ATOM     26  C   UNL     1      20.895   8.417  26.952  0.00  0.00    +0.401 C 
ATOM     27  O   UNL     1      21.959   7.849  26.696  0.00  0.00    -0.226 OA
ATOM     28  N   UNL     1      19.870   8.498  26.102  0.00  0.00    -0.279 N 
ATOM     29  H   UNL     1      19.035   8.977  26.407  0.00  0.00    +0.152 HD
BRANCH  26  30
ATOM     30  O   UNL     1      20.726   9.030  28.233  0.00  0.00    -0.444 OA
BRANCH  30  31
ATOM     31  C   UNL     1      19.526   9.808  28.235  0.00  0.00    +0.292 C 
BRANCH  31  33
ATOM     32  N   UNL     1      17.753  10.422  29.849  0.00  0.00    -0.131 NA
ATOM     33  C   UNL     1      18.770   9.581  29.481  0.00  0.00    +0.120 A 
ATOM     34  C   UNL     1      18.907   8.596  30.435  0.00  0.00    +0.137 A 
ATOM     35  N   UNL     1      17.955   8.903  31.358  0.00  0.00    -0.251 N 
ATOM     36  N   UNL     1      17.262   9.998  31.005  0.00  0.00    -0.065 NA
BRANCH  35  37
ATOM     37  C   UNL     1      17.642   8.208  32.586  0.00  0.00    +0.156 C 
BRANCH  37  38
ATOM     38  C   UNL     1      16.353   7.405  32.475  0.00  0.00    +0.143 C 
BRANCH  38  39
ATOM     39  C   UNL     1      15.276   8.036  33.309  0.00  0.00    +0.306 C 
ATOM     40  O   UNL     1      14.893   7.617  34.389  0.00  0.00    -0.251 OA
BRANCH  39  41
ATOM     41  O   UNL     1      14.743   9.135  32.728  0.00  0.00    -0.481 OA
ATOM     42  H   UNL     1      14.864   9.958  33.241  0.00  0.00    +0.295 HD
ENDBRANCH  39  41
ENDBRANCH  38  39
ENDBRANCH  37  38
ENDBRANCH  35  37
ENDBRANCH  31  33
ENDBRANCH  30  31
ENDBRANCH  26  30
ENDBRANCH  25  28
ENDBRANCH   1  25
TORSDOF 17
