REMARK VINA RESULT:    -5.766     25.746     28.404
REMARK INTER + INTRA:         -12.568
REMARK INTER:                 -10.485
REMARK INTRA:                  -2.083
REMARK UNBOUND:                -2.083
REMARK  Name = lig_assembled_35.pdb
REMARK  19 active torsions:
REMARK  status: ('A' for Active; 'I' for Inactive)
REMARK    1  A    between atoms: _2  and  _9
REMARK    2  A    between atoms: _4  and  _17
REMARK    3  A    between atoms: _5  and  _9
REMARK    4  A    between atoms: _5  and  _11
REMARK    5  A    between atoms: _6  and  _7
REMARK    6  A    between atoms: _6  and  _17
REMARK    7  A    between atoms: _9  and  _10
REMARK    8  A    between atoms: _13  and  _33
REMARK    9  A    between atoms: _15  and  _21
REMARK   10  A    between atoms: _16  and  _20
REMARK   11  A    between atoms: _20  and  _21
REMARK   12  A    between atoms: _23  and  _24
REMARK   13  A    between atoms: _25  and  _26
REMARK   14  A    between atoms: _27  and  _29
REMARK   15  A    between atoms: _29  and  _30
REMARK   16  A    between atoms: _29  and  _31
REMARK   17  A    between atoms: _31  and  _32
REMARK   18  A    between atoms: _31  and  _33
REMARK   19  A    between atoms: _34  and  _36
REMARK                            x       y       z     vdW  Elec       q    Type
REMARK                         _______ _______ _______ _____ _____    ______ ____
ROOT
ATOM      1  C   UNL     1       4.731  23.439  16.241  0.00  0.00    +0.163 C 
ENDROOT
BRANCH   1   2
ATOM      2  O   UNL     1       5.040  22.037  16.287  0.00  0.00    -0.388 OA
ATOM      3  H   UNL     1       4.659  21.651  17.080  0.00  0.00    +0.210 HD
ENDBRANCH   1   2
BRANCH   1   4
ATOM      4  C   UNL     1       3.623  23.724  15.212  0.00  0.00    +0.175 C 
BRANCH   4   5
ATOM      5  C   UNL     1       3.102  22.439  14.552  0.00  0.00    +0.176 C 
ATOM      6  O   UNL     1       3.783  22.284  13.277  0.00  0.00    -0.332 OA
ATOM      7  C   UNL     1       3.487  21.047  12.548  0.00  0.00    +0.277 C 
ATOM      8  C   UNL     1       1.960  20.887  12.349  0.00  0.00    +0.110 C 
ATOM      9  C   UNL     1       1.190  21.076  13.673  0.00  0.00    +0.143 C 
ATOM     10  C   UNL     1       1.576  22.392  14.349  0.00  0.00    +0.133 C 
BRANCH  10  11
ATOM     11  N   UNL     1       0.902  22.520  15.650  0.00  0.00    -0.308 N 
ATOM     12  H   UNL     1       1.144  21.857  16.374  0.00  0.00    +0.149 HD
ATOM     13  C   UNL     1      -0.008  23.454  15.939  0.00  0.00    +0.210 C 
ATOM     14  C   UNL     1      -0.374  24.433  14.807  0.00  0.00    +0.109 C 
ATOM     15  O   UNL     1      -0.545  23.546  17.043  0.00  0.00    -0.276 OA
ENDBRANCH  10  11
BRANCH   7  16
ATOM     16  C   UNL     1       4.039  19.820  13.304  0.00  0.00    +0.414 C 
ATOM     17  O   UNL     1       4.874  19.966  14.197  0.00  0.00    -0.240 OA
ATOM     18  O   UNL     1       3.651  18.686  13.022  0.00  0.00    -0.240 OA
ENDBRANCH   7  16
BRANCH   7  19
ATOM     19  O   UNL     1       4.112  21.136  11.241  0.00  0.00    -0.343 OA
ATOM     20  C   UNL     1       3.294  21.748  10.212  0.00  0.00    +0.198 C 
ENDBRANCH   7  19
BRANCH   9  21
ATOM     21  O   UNL     1      -0.215  21.072  13.418  0.00  0.00    -0.390 OA
ATOM     22  H   UNL     1      -0.490  21.944  13.127  0.00  0.00    +0.210 HD
ENDBRANCH   9  21
ENDBRANCH   4   5
BRANCH   4  23
ATOM     23  O   UNL     1       4.102  24.640  14.207  0.00  0.00    -0.387 OA
ATOM     24  H   UNL     1       3.364  25.141  13.851  0.00  0.00    +0.210 HD
ENDBRANCH   4  23
ENDBRANCH   1   4
BRANCH   1  25
ATOM     25  C   UNL     1       4.285  23.921  17.617  0.00  0.00    +0.141 C 
BRANCH  25  28
ATOM     26  C   UNL     1       2.447  23.154  19.080  0.00  0.00    +0.401 C 
ATOM     27  O   UNL     1       1.985  24.285  19.251  0.00  0.00    -0.226 OA
ATOM     28  N   UNL     1       3.523  22.893  18.337  0.00  0.00    -0.279 N 
ATOM     29  H   UNL     1       3.832  21.934  18.265  0.00  0.00    +0.152 HD
BRANCH  26  30
ATOM     30  O   UNL     1       1.810  22.041  19.712  0.00  0.00    -0.444 OA
BRANCH  30  31
ATOM     31  C   UNL     1       0.440  22.358  19.969  0.00  0.00    +0.292 C 
BRANCH  31  33
ATOM     32  N   UNL     1      -1.472  20.849  19.529  0.00  0.00    -0.131 NA
ATOM     33  C   UNL     1      -0.330  21.127  20.232  0.00  0.00    +0.120 A 
ATOM     34  C   UNL     1      -0.100  20.113  21.135  0.00  0.00    +0.138 A 
ATOM     35  N   UNL     1      -1.128  19.241  20.921  0.00  0.00    -0.238 N 
ATOM     36  N   UNL     1      -1.961  19.699  19.971  0.00  0.00    -0.065 NA
BRANCH  35  37
ATOM     37  C   UNL     1      -1.427  17.982  21.576  0.00  0.00    +0.214 C 
ATOM     38  C   UNL     1      -2.932  17.790  21.731  0.00  0.00    +0.045 C 
BRANCH  37  39
ATOM     39  C   UNL     1      -0.773  16.817  20.861  0.00  0.00    +0.329 C 
ATOM     40  O   UNL     1       0.082  16.931  19.992  0.00  0.00    -0.249 OA
BRANCH  39  41
ATOM     41  O   UNL     1      -1.232  15.599  21.239  0.00  0.00    -0.479 OA
ATOM     42  H   UNL     1      -1.662  15.069  20.536  0.00  0.00    +0.295 HD
ENDBRANCH  39  41
ENDBRANCH  37  39
ENDBRANCH  35  37
ENDBRANCH  31  33
ENDBRANCH  30  31
ENDBRANCH  26  30
ENDBRANCH  25  28
ENDBRANCH   1  25
TORSDOF 16
