REMARK VINA RESULT:    -5.496     12.372     14.529
REMARK INTER + INTRA:         -12.804
REMARK INTER:                 -10.822
REMARK INTRA:                  -1.982
REMARK UNBOUND:                -2.810
REMARK  Name = lig_assembled_53.pdb
REMARK  18 active torsions:
REMARK  status: ('A' for Active; 'I' for Inactive)
REMARK    1  A    between atoms: _2  and  _9
REMARK    2  A    between atoms: _4  and  _16
REMARK    3  A    between atoms: _5  and  _9
REMARK    4  A    between atoms: _5  and  _10
REMARK    5  A    between atoms: _6  and  _7
REMARK    6  A    between atoms: _6  and  _16
REMARK    7  A    between atoms: _12  and  _32
REMARK    8  A    between atoms: _14  and  _20
REMARK    9  A    between atoms: _15  and  _19
REMARK   10  A    between atoms: _19  and  _20
REMARK   11  A    between atoms: _22  and  _23
REMARK   12  A    between atoms: _24  and  _25
REMARK   13  A    between atoms: _26  and  _28
REMARK   14  A    between atoms: _28  and  _29
REMARK   15  A    between atoms: _28  and  _30
REMARK   16  A    between atoms: _30  and  _31
REMARK   17  A    between atoms: _30  and  _32
REMARK   18  A    between atoms: _33  and  _35
REMARK                            x       y       z     vdW  Elec       q    Type
REMARK                         _______ _______ _______ _____ _____    ______ ____
ROOT
ATOM      1  C   UNL     1       7.693   3.658  33.212  0.00  0.00    +0.175 C 
ENDROOT
BRANCH   1   2
ATOM      2  C   UNL     1       6.918   4.784  33.911  0.00  0.00    +0.176 C 
ATOM      3  O   UNL     1       7.749   5.298  34.988  0.00  0.00    -0.332 OA
ATOM      4  C   UNL     1       7.212   6.458  35.705  0.00  0.00    +0.277 C 
ATOM      5  C   UNL     1       5.791   6.153  36.240  0.00  0.00    +0.110 C 
ATOM      6  C   UNL     1       4.879   5.575  35.137  0.00  0.00    +0.143 C 
ATOM      7  C   UNL     1       5.537   4.375  34.455  0.00  0.00    +0.133 C 
BRANCH   7   8
ATOM      8  N   UNL     1       4.698   3.887  33.349  0.00  0.00    -0.308 N 
ATOM      9  H   UNL     1       4.606   4.475  32.532  0.00  0.00    +0.149 HD
ATOM     10  C   UNL     1       4.050   2.719  33.354  0.00  0.00    +0.210 C 
ATOM     11  C   UNL     1       4.190   1.858  34.624  0.00  0.00    +0.109 C 
ATOM     12  O   UNL     1       3.366   2.329  32.407  0.00  0.00    -0.276 OA
ENDBRANCH   7   8
BRANCH   4  13
ATOM     13  C   UNL     1       7.162   7.695  34.785  0.00  0.00    +0.414 C 
ATOM     14  O   UNL     1       8.204   8.232  34.411  0.00  0.00    -0.240 OA
ATOM     15  O   UNL     1       6.081   8.155  34.415  0.00  0.00    -0.240 OA
ENDBRANCH   4  13
BRANCH   4  16
ATOM     16  O   UNL     1       8.078   6.726  36.838  0.00  0.00    -0.343 OA
ATOM     17  C   UNL     1       7.413   7.283  37.999  0.00  0.00    +0.198 C 
ENDBRANCH   4  16
BRANCH   6  18
ATOM     18  O   UNL     1       3.633   5.169  35.705  0.00  0.00    -0.390 OA
ATOM     19  H   UNL     1       3.744   4.326  36.150  0.00  0.00    +0.210 HD
ENDBRANCH   6  18
ENDBRANCH   1   2
BRANCH   1  20
ATOM     20  O   UNL     1       7.111   3.378  31.923  0.00  0.00    -0.387 OA
ATOM     21  H   UNL     1       6.378   2.767  32.029  0.00  0.00    +0.210 HD
ENDBRANCH   1  20
BRANCH   1  22
ATOM     22  C   UNL     1       7.741   2.375  34.061  0.00  0.00    +0.163 C 
BRANCH  22  23
ATOM     23  O   UNL     1       8.362   2.624  35.333  0.00  0.00    -0.388 OA
ATOM     24  H   UNL     1       7.738   2.430  36.037  0.00  0.00    +0.210 HD
ENDBRANCH  22  23
BRANCH  22  25
ATOM     25  C   UNL     1       8.510   1.294  33.308  0.00  0.00    +0.141 C 
BRANCH  25  28
ATOM     26  C   UNL     1       6.714  -0.188  32.482  0.00  0.00    +0.401 C 
ATOM     27  O   UNL     1       6.238   0.656  31.720  0.00  0.00    -0.226 OA
ATOM     28  N   UNL     1       7.772   0.026  33.266  0.00  0.00    -0.279 N 
ATOM     29  H   UNL     1       8.083  -0.726  33.864  0.00  0.00    +0.152 HD
BRANCH  26  30
ATOM     30  O   UNL     1       6.109  -1.482  32.550  0.00  0.00    -0.444 OA
BRANCH  30  31
ATOM     31  C   UNL     1       6.997  -2.454  31.991  0.00  0.00    +0.292 C 
BRANCH  31  33
ATOM     32  N   UNL     1       5.847  -3.617  30.130  0.00  0.00    -0.131 NA
ATOM     33  C   UNL     1       6.714  -2.647  30.556  0.00  0.00    +0.120 A 
ATOM     34  C   UNL     1       7.205  -1.970  29.462  0.00  0.00    +0.137 A 
ATOM     35  N   UNL     1       6.653  -2.615  28.397  0.00  0.00    -0.241 N 
ATOM     36  N   UNL     1       5.801  -3.575  28.806  0.00  0.00    -0.065 NA
BRANCH  35  37
ATOM     37  C   UNL     1       6.729  -2.319  26.981  0.00  0.00    +0.265 C 
BRANCH  37  38
ATOM     38  C   UNL     1       7.975  -2.802  26.288  0.00  0.00    +0.326 C 
ATOM     39  O   UNL     1       8.603  -3.820  26.538  0.00  0.00    -0.249 OA
BRANCH  38  40
ATOM     40  O   UNL     1       8.387  -1.955  25.307  0.00  0.00    -0.479 OA
ATOM     41  H   UNL     1       8.810  -1.128  25.608  0.00  0.00    +0.295 HD
ENDBRANCH  38  40
ENDBRANCH  37  38
ENDBRANCH  35  37
ENDBRANCH  31  33
ENDBRANCH  30  31
ENDBRANCH  26  30
ENDBRANCH  25  28
ENDBRANCH  22  25
ENDBRANCH   1  22
TORSDOF 16
