REMARK VINA RESULT:    -6.179     13.270     18.270
REMARK INTER + INTRA:         -15.814
REMARK INTER:                 -13.659
REMARK INTRA:                  -2.155
REMARK UNBOUND:                -3.133
REMARK  Name = lig_assembled_90.pdb
REMARK  22 active torsions:
REMARK  status: ('A' for Active; 'I' for Inactive)
REMARK    1  A    between atoms: _2  and  _13
REMARK    2  A    between atoms: _3  and  _15
REMARK    3  A    between atoms: _4  and  _17
REMARK    4  A    between atoms: _8  and  _28
REMARK    5  A    between atoms: _10  and  _11
REMARK    6  A    between atoms: _10  and  _28
REMARK    7  A    between atoms: _13  and  _14
REMARK    8  A    between atoms: _15  and  _16
REMARK    9  A    between atoms: _16  and  _17
REMARK   10  A    between atoms: _16  and  _22
REMARK   11  A    between atoms: _24  and  _44
REMARK   12  A    between atoms: _26  and  _32
REMARK   13  A    between atoms: _27  and  _31
REMARK   14  A    between atoms: _31  and  _32
REMARK   15  A    between atoms: _34  and  _35
REMARK   16  A    between atoms: _36  and  _37
REMARK   17  A    between atoms: _38  and  _40
REMARK   18  A    between atoms: _40  and  _41
REMARK   19  A    between atoms: _40  and  _42
REMARK   20  A    between atoms: _42  and  _43
REMARK   21  A    between atoms: _42  and  _44
REMARK   22  A    between atoms: _45  and  _47
REMARK                            x       y       z     vdW  Elec       q    Type
REMARK                         _______ _______ _______ _____ _____    ______ ____
ROOT
ATOM      1  C   UNL     1       6.106  -0.366  31.278  0.00  0.00    +0.401 C 
ATOM      2  O   UNL     1       7.055  -1.108  31.012  0.00  0.00    -0.226 OA
ATOM      3  N   UNL     1       6.156   0.614  32.180  0.00  0.00    -0.279 N 
ATOM      4  H   UNL     1       5.328   1.176  32.321  0.00  0.00    +0.152 HD
ENDROOT
BRANCH   3   5
ATOM      5  C   UNL     1       7.347   0.924  32.981  0.00  0.00    +0.141 C 
BRANCH   5   6
ATOM      6  C   UNL     1       7.076   2.024  34.002  0.00  0.00    +0.163 C 
BRANCH   6   7
ATOM      7  O   UNL     1       7.820   1.771  35.206  0.00  0.00    -0.388 OA
ATOM      8  H   UNL     1       8.372   0.995  35.084  0.00  0.00    +0.210 HD
ENDBRANCH   6   7
BRANCH   6   9
ATOM      9  C   UNL     1       7.450   3.389  33.400  0.00  0.00    +0.175 C 
BRANCH   9  10
ATOM     10  C   UNL     1       6.808   4.554  34.166  0.00  0.00    +0.176 C 
ATOM     11  O   UNL     1       7.562   4.752  35.394  0.00  0.00    -0.332 OA
ATOM     12  C   UNL     1       7.155   5.900  36.210  0.00  0.00    +0.277 C 
ATOM     13  C   UNL     1       5.642   5.826  36.532  0.00  0.00    +0.110 C 
ATOM     14  C   UNL     1       4.801   5.584  35.261  0.00  0.00    +0.143 C 
ATOM     15  C   UNL     1       5.313   4.369  34.487  0.00  0.00    +0.133 C 
BRANCH  15  16
ATOM     16  N   UNL     1       4.559   4.200  33.234  0.00  0.00    -0.308 N 
ATOM     17  H   UNL     1       4.708   4.878  32.500  0.00  0.00    +0.149 HD
ATOM     18  C   UNL     1       3.692   3.211  33.005  0.00  0.00    +0.210 C 
ATOM     19  C   UNL     1       3.469   2.209  34.154  0.00  0.00    +0.109 C 
ATOM     20  O   UNL     1       3.086   3.086  31.940  0.00  0.00    -0.276 OA
ENDBRANCH  15  16
BRANCH  12  21
ATOM     21  C   UNL     1       7.463   7.225  35.482  0.00  0.00    +0.414 C 
ATOM     22  O   UNL     1       8.591   7.714  35.535  0.00  0.00    -0.240 OA
ATOM     23  O   UNL     1       6.584   7.805  34.843  0.00  0.00    -0.240 OA
ENDBRANCH  12  21
BRANCH  14  24
ATOM     24  O   UNL     1       3.435   5.372  35.620  0.00  0.00    -0.390 OA
ATOM     25  H   UNL     1       3.151   4.510  35.307  0.00  0.00    +0.210 HD
ENDBRANCH  14  24
BRANCH  12  26
ATOM     26  O   UNL     1       7.891   5.847  37.459  0.00  0.00    -0.343 OA
ATOM     27  C   UNL     1       7.246   5.095  38.518  0.00  0.00    +0.198 C 
ENDBRANCH  12  26
ENDBRANCH   9  10
BRANCH   9  28
ATOM     28  O   UNL     1       7.071   3.439  32.010  0.00  0.00    -0.387 OA
ATOM     29  H   UNL     1       7.498   4.189  31.589  0.00  0.00    +0.210 HD
ENDBRANCH   9  28
ENDBRANCH   6   9
ENDBRANCH   5   6
ENDBRANCH   3   5
BRANCH   1  30
ATOM     30  O   UNL     1       4.868  -0.547  30.586  0.00  0.00    -0.444 OA
BRANCH  30  31
ATOM     31  C   UNL     1       5.046  -1.493  29.528  0.00  0.00    +0.292 C 
BRANCH  31  33
ATOM     32  N   UNL     1       4.603  -1.491  27.088  0.00  0.00    -0.131 NA
ATOM     33  C   UNL     1       4.238  -1.111  28.354  0.00  0.00    +0.120 A 
ATOM     34  C   UNL     1       3.078  -0.374  28.284  0.00  0.00    +0.137 A 
ATOM     35  N   UNL     1       2.776  -0.359  26.955  0.00  0.00    -0.242 N 
ATOM     36  N   UNL     1       3.704  -1.014  26.236  0.00  0.00    -0.065 NA
BRANCH  35  37
ATOM     37  C   UNL     1       1.700   0.336  26.291  0.00  0.00    +0.240 C 
BRANCH  37  38
ATOM     38  C   UNL     1       2.217   1.494  25.469  0.00  0.00    +0.235 C 
ATOM     39  O   UNL     1       2.984   1.343  24.519  0.00  0.00    -0.274 OA
ATOM     40  N   UNL     1       1.723   2.735  25.823  0.00  0.00    -0.311 N 
ATOM     41  H   UNL     1       1.327   2.855  26.752  0.00  0.00    +0.149 HD
BRANCH  40  42
ATOM     42  C   UNL     1       2.209   3.939  25.162  0.00  0.00    +0.137 C 
BRANCH  42  43
ATOM     43  C   UNL     1       1.219   4.424  24.093  0.00  0.00    +0.151 C 
BRANCH  43  44
ATOM     44  O   UNL     1       0.686   5.690  24.501  0.00  0.00    -0.388 OA
ATOM     45  H   UNL     1       0.196   6.084  23.752  0.00  0.00    +0.210 HD
ENDBRANCH  43  44
BRANCH  43  46
ATOM     46  C   UNL     1       1.878   4.517  22.711  0.00  0.00    +0.162 C 
BRANCH  46  47
ATOM     47  N   UNL     1       1.311   3.571  21.760  0.00  0.00    -0.269 N 
ATOM     48  C   UNL     1       1.837   2.316  21.544  0.00  0.00    +0.113 A 
ATOM     49  C   UNL     1       1.065   1.751  20.558  0.00  0.00    +0.137 A 
ATOM     50  N   UNL     1       0.082   2.619  20.158  0.00  0.00    -0.172 NA
ATOM     51  C   UNL     1       0.245   3.700  20.903  0.00  0.00    +0.450 A 
ATOM     52  N   UNL     1      -0.614   4.853  20.787  0.00  0.00    +0.120 N 
ATOM     53  O   UNL     1      -0.454   5.774  21.600  0.00  0.00    +0.045 OA
ATOM     54  O   UNL     1      -1.448   4.850  19.873  0.00  0.00    -0.573 OA
ENDBRANCH  46  47
ENDBRANCH  43  46
ENDBRANCH  42  43
ENDBRANCH  40  42
ENDBRANCH  37  38
ENDBRANCH  35  37
ENDBRANCH  31  33
ENDBRANCH  30  31
ENDBRANCH   1  30
TORSDOF 20
