REMARK VINA RESULT:    -6.646      1.505      2.210
REMARK INTER + INTRA:         -15.487
REMARK INTER:                 -13.524
REMARK INTRA:                  -1.963
REMARK UNBOUND:                -3.014
REMARK  Name = lig_assembled_75.pdb
REMARK  19 active torsions:
REMARK  status: ('A' for Active; 'I' for Inactive)
REMARK    1  A    between atoms: _2  and  _9
REMARK    2  A    between atoms: _4  and  _23
REMARK    3  A    between atoms: _6  and  _7
REMARK    4  A    between atoms: _6  and  _23
REMARK    5  A    between atoms: _11  and  _12
REMARK    6  A    between atoms: _13  and  _14
REMARK    7  A    between atoms: _14  and  _17
REMARK    8  A    between atoms: _19  and  _39
REMARK    9  A    between atoms: _21  and  _27
REMARK   10  A    between atoms: _22  and  _26
REMARK   11  A    between atoms: _26  and  _27
REMARK   12  A    between atoms: _29  and  _30
REMARK   13  A    between atoms: _31  and  _32
REMARK   14  A    between atoms: _33  and  _35
REMARK   15  A    between atoms: _35  and  _36
REMARK   16  A    between atoms: _35  and  _37
REMARK   17  A    between atoms: _37  and  _38
REMARK   18  A    between atoms: _37  and  _39
REMARK   19  A    between atoms: _40  and  _42
REMARK                            x       y       z     vdW  Elec       q    Type
REMARK                         _______ _______ _______ _____ _____    ______ ____
ROOT
ATOM      1  C   UNL     1       1.836   3.094  32.799  0.00  0.00    +0.141 C 
ENDROOT
BRANCH   1   4
ATOM      2  C   UNL     1       1.134   4.012  30.615  0.00  0.00    +0.401 C 
ATOM      3  O   UNL     1       1.115   5.181  31.006  0.00  0.00    -0.226 OA
ATOM      4  N   UNL     1       1.453   2.972  31.387  0.00  0.00    -0.279 N 
ATOM      5  H   UNL     1       1.430   2.049  30.978  0.00  0.00    +0.152 HD
BRANCH   2   6
ATOM      6  O   UNL     1       0.792   3.729  29.256  0.00  0.00    -0.444 OA
BRANCH   6   7
ATOM      7  C   UNL     1       1.423   2.512  28.848  0.00  0.00    +0.292 C 
BRANCH   7   9
ATOM      8  N   UNL     1       1.960   1.341  26.737  0.00  0.00    -0.131 NA
ATOM      9  C   UNL     1       1.584   2.483  27.382  0.00  0.00    +0.121 A 
ATOM     10  C   UNL     1       1.413   3.488  26.458  0.00  0.00    +0.143 A 
ATOM     11  N   UNL     1       1.700   2.908  25.244  0.00  0.00    -0.220 N 
ATOM     12  N   UNL     1       2.031   1.606  25.439  0.00  0.00    -0.060 NA
BRANCH  11  13
ATOM     13  C   UNL     1       1.709   3.498  23.954  0.00  0.00    +0.068 A 
ATOM     14  C   UNL     1       1.790   2.672  22.820  0.00  0.00    +0.035 A 
ATOM     15  C   UNL     1       1.868   3.224  21.533  0.00  0.00    -0.023 A 
ATOM     16  C   UNL     1       1.798   4.615  21.394  0.00  0.00    +0.008 A 
ATOM     17  C   UNL     1       1.695   5.441  22.516  0.00  0.00    +0.003 A 
ATOM     18  C   UNL     1       1.659   4.887  23.795  0.00  0.00    +0.028 A 
BRANCH  15  19
ATOM     19  C   UNL     1       2.000   2.396  20.325  0.00  0.00    +0.015 C 
ATOM     20  C   UNL     1       2.289   2.889  19.110  0.00  0.00    +0.092 C 
BRANCH  20  21
ATOM     21  C   UNL     1       2.347   1.983  17.948  0.00  0.00    +0.330 C 
ATOM     22  O   UNL     1       1.381   1.444  17.438  0.00  0.00    -0.246 OA
BRANCH  21  23
ATOM     23  O   UNL     1       3.607   1.824  17.495  0.00  0.00    -0.478 OA
ATOM     24  H   UNL     1       3.780   2.169  16.601  0.00  0.00    +0.295 HD
ENDBRANCH  21  23
ENDBRANCH  20  21
ENDBRANCH  15  19
ENDBRANCH  11  13
ENDBRANCH   7   9
ENDBRANCH   6   7
ENDBRANCH   2   6
ENDBRANCH   1   4
BRANCH   1  25
ATOM     25  C   UNL     1       3.327   3.369  32.962  0.00  0.00    +0.163 C 
BRANCH  25  26
ATOM     26  O   UNL     1       3.624   4.720  32.574  0.00  0.00    -0.388 OA
ATOM     27  H   UNL     1       3.036   5.323  33.037  0.00  0.00    +0.210 HD
ENDBRANCH  25  26
BRANCH  25  28
ATOM     28  C   UNL     1       3.740   3.112  34.422  0.00  0.00    +0.175 C 
BRANCH  28  29
ATOM     29  C   UNL     1       5.264   3.163  34.609  0.00  0.00    +0.176 C 
ATOM     30  O   UNL     1       5.683   4.550  34.487  0.00  0.00    -0.332 OA
ATOM     31  C   UNL     1       7.103   4.808  34.743  0.00  0.00    +0.277 C 
ATOM     32  C   UNL     1       7.987   3.913  33.840  0.00  0.00    +0.110 C 
ATOM     33  C   UNL     1       7.558   2.433  33.912  0.00  0.00    +0.143 C 
ATOM     34  C   UNL     1       6.062   2.280  33.633  0.00  0.00    +0.133 C 
BRANCH  34  35
ATOM     35  N   UNL     1       5.649   0.877  33.789  0.00  0.00    -0.308 N 
ATOM     36  H   UNL     1       5.734   0.460  34.706  0.00  0.00    +0.149 HD
ATOM     37  C   UNL     1       5.171   0.118  32.799  0.00  0.00    +0.210 C 
ATOM     38  C   UNL     1       5.080   0.775  31.409  0.00  0.00    +0.109 C 
ATOM     39  O   UNL     1       4.819  -1.051  32.963  0.00  0.00    -0.276 OA
ENDBRANCH  34  35
BRANCH  31  40
ATOM     40  C   UNL     1       7.448   4.547  36.224  0.00  0.00    +0.414 C 
ATOM     41  O   UNL     1       8.359   3.775  36.522  0.00  0.00    -0.240 OA
ATOM     42  O   UNL     1       6.816   5.107  37.121  0.00  0.00    -0.240 OA
ENDBRANCH  31  40
BRANCH  31  43
ATOM     43  O   UNL     1       7.373   6.196  34.417  0.00  0.00    -0.343 OA
ATOM     44  C   UNL     1       6.202   7.047  34.343  0.00  0.00    +0.198 C 
ENDBRANCH  31  43
BRANCH  33  45
ATOM     45  O   UNL     1       8.295   1.671  32.955  0.00  0.00    -0.390 OA
ATOM     46  H   UNL     1       7.691   1.130  32.441  0.00  0.00    +0.210 HD
ENDBRANCH  33  45
ENDBRANCH  28  29
BRANCH  28  47
ATOM     47  O   UNL     1       3.227   1.841  34.867  0.00  0.00    -0.387 OA
ATOM     48  H   UNL     1       2.501   1.572  34.300  0.00  0.00    +0.210 HD
ENDBRANCH  28  47
ENDBRANCH  25  28
ENDBRANCH   1  25
TORSDOF 17
