REMARK VINA RESULT:    -7.120      1.326      3.571
REMARK INTER + INTRA:         -14.441
REMARK INTER:                 -12.620
REMARK INTRA:                  -1.821
REMARK UNBOUND:                -2.118
REMARK  Name = lig_assembled_7.pdb
REMARK  19 active torsions:
REMARK  status: ('A' for Active; 'I' for Inactive)
REMARK    1  A    between atoms: _2  and  _9
REMARK    2  A    between atoms: _4  and  _21
REMARK    3  A    between atoms: _5  and  _16
REMARK    4  A    between atoms: _6  and  _7
REMARK    5  A    between atoms: _6  and  _21
REMARK    6  A    between atoms: _10  and  _11
REMARK    7  A    between atoms: _13  and  _14
REMARK    8  A    between atoms: _17  and  _37
REMARK    9  A    between atoms: _19  and  _25
REMARK   10  A    between atoms: _20  and  _24
REMARK   11  A    between atoms: _24  and  _25
REMARK   12  A    between atoms: _27  and  _28
REMARK   13  A    between atoms: _29  and  _30
REMARK   14  A    between atoms: _31  and  _33
REMARK   15  A    between atoms: _33  and  _34
REMARK   16  A    between atoms: _33  and  _35
REMARK   17  A    between atoms: _35  and  _36
REMARK   18  A    between atoms: _35  and  _37
REMARK   19  A    between atoms: _38  and  _40
REMARK                            x       y       z     vdW  Elec       q    Type
REMARK                         _______ _______ _______ _____ _____    ______ ____
ROOT
ATOM      1  C   UNL     1       3.490   3.064  32.508  0.00  0.00    +0.163 C 
ENDROOT
BRANCH   1   2
ATOM      2  O   UNL     1       4.324   2.367  31.568  0.00  0.00    -0.388 OA
ATOM      3  H   UNL     1       4.743   1.620  32.003  0.00  0.00    +0.210 HD
ENDBRANCH   1   2
BRANCH   1   4
ATOM      4  C   UNL     1       2.395   3.827  31.768  0.00  0.00    +0.141 C 
BRANCH   4   7
ATOM      5  C   UNL     1       0.934   3.492  29.805  0.00  0.00    +0.401 C 
ATOM      6  O   UNL     1       0.153   4.395  30.114  0.00  0.00    -0.226 OA
ATOM      7  N   UNL     1       2.005   3.154  30.523  0.00  0.00    -0.279 N 
ATOM      8  H   UNL     1       2.580   2.393  30.192  0.00  0.00    +0.152 HD
BRANCH   5   9
ATOM      9  O   UNL     1       0.693   2.746  28.609  0.00  0.00    -0.444 OA
BRANCH   9  10
ATOM     10  C   UNL     1       0.126   3.604  27.616  0.00  0.00    +0.292 C 
BRANCH  10  12
ATOM     11  N   UNL     1       2.222   3.697  26.323  0.00  0.00    -0.131 NA
ATOM     12  C   UNL     1       0.878   3.492  26.353  0.00  0.00    +0.121 A 
ATOM     13  C   UNL     1       0.446   3.185  25.077  0.00  0.00    +0.143 A 
ATOM     14  N   UNL     1       1.570   3.262  24.282  0.00  0.00    -0.219 N 
ATOM     15  N   UNL     1       2.636   3.528  25.078  0.00  0.00    -0.060 NA
BRANCH  14  16
ATOM     16  C   UNL     1       1.700   3.094  22.865  0.00  0.00    +0.073 A 
ATOM     17  C   UNL     1       1.748   4.247  22.025  0.00  0.00    -0.024 A 
ATOM     18  C   UNL     1       1.877   4.091  20.628  0.00  0.00    +0.008 A 
ATOM     19  C   UNL     1       1.969   2.832  20.040  0.00  0.00    -0.050 A 
ATOM     20  C   UNL     1       2.108   2.702  18.553  0.00  0.00    +0.044 C 
ATOM     21  C   UNL     1       1.924   1.710  20.864  0.00  0.00    +0.008 A 
ATOM     22  C   UNL     1       1.722   5.675  22.526  0.00  0.00    +0.046 C 
ATOM     23  C   UNL     1       1.769   1.809  22.266  0.00  0.00    -0.024 A 
ATOM     24  C   UNL     1       1.617   0.476  22.954  0.00  0.00    +0.046 C 
ENDBRANCH  14  16
ENDBRANCH  10  12
ENDBRANCH   9  10
ENDBRANCH   5   9
ENDBRANCH   4   7
ENDBRANCH   1   4
BRANCH   1  25
ATOM     25  C   UNL     1       4.317   4.045  33.356  0.00  0.00    +0.175 C 
BRANCH  25  26
ATOM     26  C   UNL     1       5.706   3.485  33.698  0.00  0.00    +0.176 C 
ATOM     27  O   UNL     1       5.532   2.126  34.186  0.00  0.00    -0.332 OA
ATOM     28  C   UNL     1       6.768   1.390  34.465  0.00  0.00    +0.277 C 
ATOM     29  C   UNL     1       7.664   2.187  35.444  0.00  0.00    +0.110 C 
ATOM     30  C   UNL     1       7.852   3.648  34.983  0.00  0.00    +0.143 C 
ATOM     31  C   UNL     1       6.503   4.317  34.719  0.00  0.00    +0.133 C 
BRANCH  31  32
ATOM     32  N   UNL     1       6.697   5.680  34.197  0.00  0.00    -0.308 N 
ATOM     33  H   UNL     1       7.063   5.778  33.261  0.00  0.00    +0.149 HD
ATOM     34  C   UNL     1       6.421   6.794  34.881  0.00  0.00    +0.210 C 
ATOM     35  C   UNL     1       5.889   6.609  36.314  0.00  0.00    +0.109 C 
ATOM     36  O   UNL     1       6.580   7.922  34.413  0.00  0.00    -0.276 OA
ENDBRANCH  31  32
BRANCH  28  37
ATOM     37  C   UNL     1       7.547   1.115  33.161  0.00  0.00    +0.414 C 
ATOM     38  O   UNL     1       8.769   1.250  33.129  0.00  0.00    -0.240 OA
ATOM     39  O   UNL     1       6.953   0.758  32.143  0.00  0.00    -0.240 OA
ENDBRANCH  28  37
BRANCH  30  40
ATOM     40  O   UNL     1       8.554   4.383  35.986  0.00  0.00    -0.390 OA
ATOM     41  H   UNL     1       8.497   5.322  35.794  0.00  0.00    +0.210 HD
ENDBRANCH  30  40
BRANCH  28  42
ATOM     42  O   UNL     1       6.410   0.132  35.094  0.00  0.00    -0.343 OA
ATOM     43  C   UNL     1       7.207  -0.222  36.252  0.00  0.00    +0.198 C 
ENDBRANCH  28  42
ENDBRANCH  25  26
BRANCH  25  44
ATOM     44  O   UNL     1       3.605   4.379  34.564  0.00  0.00    -0.387 OA
ATOM     45  H   UNL     1       2.920   3.726  34.724  0.00  0.00    +0.210 HD
ENDBRANCH  25  44
ENDBRANCH   1  25
TORSDOF 14
