REMARK VINA RESULT:    -6.556      1.600      3.808
REMARK INTER + INTRA:         -13.657
REMARK INTER:                 -11.855
REMARK INTRA:                  -1.802
REMARK UNBOUND:                -1.736
REMARK  Name = lig_assembled_59.pdb
REMARK  18 active torsions:
REMARK  status: ('A' for Active; 'I' for Inactive)
REMARK    1  A    between atoms: _2  and  _10
REMARK    2  A    between atoms: _5  and  _20
REMARK    3  A    between atoms: _7  and  _8
REMARK    4  A    between atoms: _7  and  _20
REMARK    5  A    between atoms: _13  and  _14
REMARK    6  A    between atoms: _14  and  _15
REMARK    7  A    between atoms: _16  and  _36
REMARK    8  A    between atoms: _18  and  _24
REMARK    9  A    between atoms: _19  and  _23
REMARK   10  A    between atoms: _23  and  _24
REMARK   11  A    between atoms: _26  and  _27
REMARK   12  A    between atoms: _28  and  _29
REMARK   13  A    between atoms: _30  and  _32
REMARK   14  A    between atoms: _32  and  _33
REMARK   15  A    between atoms: _32  and  _34
REMARK   16  A    between atoms: _34  and  _35
REMARK   17  A    between atoms: _34  and  _36
REMARK   18  A    between atoms: _37  and  _39
REMARK                            x       y       z     vdW  Elec       q    Type
REMARK                         _______ _______ _______ _____ _____    ______ ____
ROOT
ATOM      1  C   UNL     1       3.238   3.035  32.711  0.00  0.00    +0.163 C 
ENDROOT
BRANCH   1   2
ATOM      2  O   UNL     1       4.019   2.147  31.894  0.00  0.00    -0.388 OA
ATOM      3  H   UNL     1       3.712   1.245  32.016  0.00  0.00    +0.210 HD
ENDBRANCH   1   2
BRANCH   1   4
ATOM      4  C   UNL     1       4.141   4.023  33.468  0.00  0.00    +0.175 C 
BRANCH   4   5
ATOM      5  C   UNL     1       5.553   3.462  33.691  0.00  0.00    +0.176 C 
ATOM      6  O   UNL     1       5.420   2.102  34.187  0.00  0.00    -0.332 OA
ATOM      7  C   UNL     1       6.675   1.364  34.359  0.00  0.00    +0.277 C 
ATOM      8  C   UNL     1       7.649   2.158  35.264  0.00  0.00    +0.110 C 
ATOM      9  C   UNL     1       7.798   3.621  34.795  0.00  0.00    +0.143 C 
ATOM     10  C   UNL     1       6.432   4.291  34.646  0.00  0.00    +0.133 C 
BRANCH  10  11
ATOM     11  N   UNL     1       6.582   5.655  34.116  0.00  0.00    -0.308 N 
ATOM     12  H   UNL     1       6.861   5.758  33.150  0.00  0.00    +0.149 HD
ATOM     13  C   UNL     1       6.375   6.767  34.827  0.00  0.00    +0.210 C 
ATOM     14  C   UNL     1       5.976   6.576  36.303  0.00  0.00    +0.109 C 
ATOM     15  O   UNL     1       6.494   7.897  34.352  0.00  0.00    -0.276 OA
ENDBRANCH  10  11
BRANCH   7  16
ATOM     16  C   UNL     1       7.343   1.095  32.994  0.00  0.00    +0.414 C 
ATOM     17  O   UNL     1       6.661   0.765  32.025  0.00  0.00    -0.240 OA
ATOM     18  O   UNL     1       8.562   1.207  32.863  0.00  0.00    -0.240 OA
ENDBRANCH   7  16
BRANCH   7  19
ATOM     19  O   UNL     1       6.370   0.104  35.010  0.00  0.00    -0.343 OA
ATOM     20  C   UNL     1       4.983  -0.309  34.925  0.00  0.00    +0.198 C 
ENDBRANCH   7  19
BRANCH   9  21
ATOM     21  O   UNL     1       8.581   4.352  35.739  0.00  0.00    -0.390 OA
ATOM     22  H   UNL     1       9.513   4.187  35.579  0.00  0.00    +0.210 HD
ENDBRANCH   9  21
ENDBRANCH   4   5
BRANCH   4  23
ATOM     23  O   UNL     1       3.541   4.376  34.730  0.00  0.00    -0.387 OA
ATOM     24  H   UNL     1       2.587   4.286  34.669  0.00  0.00    +0.210 HD
ENDBRANCH   4  23
ENDBRANCH   1   4
BRANCH   1  25
ATOM     25  C   UNL     1       2.250   3.808  31.843  0.00  0.00    +0.141 C 
BRANCH  25  28
ATOM     26  C   UNL     1       0.999   2.988  29.877  0.00  0.00    +0.401 C 
ATOM     27  O   UNL     1      -0.109   3.179  30.384  0.00  0.00    -0.226 OA
ATOM     28  N   UNL     1       2.154   3.247  30.490  0.00  0.00    -0.279 N 
ATOM     29  H   UNL     1       3.012   3.047  29.995  0.00  0.00    +0.152 HD
BRANCH  26  30
ATOM     30  O   UNL     1       1.073   2.451  28.553  0.00  0.00    -0.444 OA
BRANCH  30  31
ATOM     31  C   UNL     1       0.305   3.265  27.664  0.00  0.00    +0.292 C 
BRANCH  31  33
ATOM     32  N   UNL     1       2.245   3.981  26.310  0.00  0.00    -0.131 NA
ATOM     33  C   UNL     1       1.003   3.412  26.373  0.00  0.00    +0.121 A 
ATOM     34  C   UNL     1       0.606   3.057  25.105  0.00  0.00    +0.145 A 
ATOM     35  N   UNL     1       1.651   3.431  24.291  0.00  0.00    -0.202 N 
ATOM     36  N   UNL     1       2.635   3.986  25.043  0.00  0.00    -0.059 NA
BRANCH  35  37
ATOM     37  C   UNL     1       1.735   3.298  22.878  0.00  0.00    +0.156 A 
ATOM     38  C   UNL     1       1.752   4.446  22.089  0.00  0.00    +0.048 A 
ATOM     39  C   UNL     1       1.793   4.306  20.703  0.00  0.00    +0.011 A 
ATOM     40  C   UNL     1       1.822   3.033  20.130  0.00  0.00    -0.004 A 
ATOM     41  C   UNL     1       1.802   1.945  20.997  0.00  0.00    +0.119 A 
ATOM     42  N   UNL     1       1.770   2.044  22.348  0.00  0.00    -0.236 NA
BRANCH  40  43
ATOM     43  C   UNL     1       1.771   2.860  18.640  0.00  0.00    +0.192 C 
BRANCH  43  44
ATOM     44  O   UNL     1       3.032   3.128  18.045  0.00  0.00    -0.390 OA
ATOM     45  H   UNL     1       3.391   2.274  17.746  0.00  0.00    +0.210 HD
ENDBRANCH  43  44
ENDBRANCH  40  43
ENDBRANCH  35  37
ENDBRANCH  31  33
ENDBRANCH  30  31
ENDBRANCH  26  30
ENDBRANCH  25  28
ENDBRANCH   1  25
TORSDOF 16
