REMARK VINA RESULT:    -6.401     14.306     16.135
REMARK INTER + INTRA:         -13.630
REMARK INTER:                 -11.648
REMARK INTRA:                  -1.982
REMARK UNBOUND:                -1.802
REMARK  Name = lig_assembled_36.pdb
REMARK  18 active torsions:
REMARK  status: ('A' for Active; 'I' for Inactive)
REMARK    1  A    between atoms: _2  and  _10
REMARK    2  A    between atoms: _5  and  _21
REMARK    3  A    between atoms: _7  and  _8
REMARK    4  A    between atoms: _7  and  _21
REMARK    5  A    between atoms: _10  and  _11
REMARK    6  A    between atoms: _14  and  _15
REMARK    7  A    between atoms: _17  and  _37
REMARK    8  A    between atoms: _19  and  _25
REMARK    9  A    between atoms: _20  and  _24
REMARK   10  A    between atoms: _24  and  _25
REMARK   11  A    between atoms: _27  and  _28
REMARK   12  A    between atoms: _29  and  _30
REMARK   13  A    between atoms: _31  and  _33
REMARK   14  A    between atoms: _33  and  _34
REMARK   15  A    between atoms: _33  and  _35
REMARK   16  A    between atoms: _35  and  _36
REMARK   17  A    between atoms: _35  and  _37
REMARK   18  A    between atoms: _38  and  _40
REMARK                            x       y       z     vdW  Elec       q    Type
REMARK                         _______ _______ _______ _____ _____    ______ ____
ROOT
ATOM      1  C   UNL     1       3.179   2.952  32.807  0.00  0.00    +0.163 C 
ENDROOT
BRANCH   1   2
ATOM      2  O   UNL     1       3.898   2.257  31.775  0.00  0.00    -0.388 OA
ATOM      3  H   UNL     1       4.770   2.646  31.675  0.00  0.00    +0.210 HD
ENDBRANCH   1   2
BRANCH   1   4
ATOM      4  C   UNL     1       4.081   3.981  33.509  0.00  0.00    +0.175 C 
BRANCH   4   5
ATOM      5  C   UNL     1       5.509   3.454  33.713  0.00  0.00    +0.176 C 
ATOM      6  O   UNL     1       5.415   2.086  34.198  0.00  0.00    -0.332 OA
ATOM      7  C   UNL     1       6.690   1.379  34.351  0.00  0.00    +0.277 C 
ATOM      8  C   UNL     1       7.652   2.188  35.254  0.00  0.00    +0.110 C 
ATOM      9  C   UNL     1       7.760   3.658  34.797  0.00  0.00    +0.143 C 
ATOM     10  C   UNL     1       6.376   4.296  34.667  0.00  0.00    +0.133 C 
BRANCH  10  11
ATOM     11  N   UNL     1       6.488   5.668  34.148  0.00  0.00    -0.308 N 
ATOM     12  H   UNL     1       6.751   5.786  33.180  0.00  0.00    +0.149 HD
ATOM     13  C   UNL     1       6.263   6.767  34.873  0.00  0.00    +0.210 C 
ATOM     14  C   UNL     1       5.889   6.554  36.352  0.00  0.00    +0.109 C 
ATOM     15  O   UNL     1       6.350   7.904  34.408  0.00  0.00    -0.276 OA
ENDBRANCH  10  11
BRANCH   7  16
ATOM     16  C   UNL     1       7.350   1.138  32.978  0.00  0.00    +0.414 C 
ATOM     17  O   UNL     1       6.664   0.823  32.006  0.00  0.00    -0.240 OA
ATOM     18  O   UNL     1       8.569   1.259  32.841  0.00  0.00    -0.240 OA
ENDBRANCH   7  16
BRANCH   7  19
ATOM     19  O   UNL     1       6.422   0.106  34.994  0.00  0.00    -0.343 OA
ATOM     20  C   UNL     1       5.020  -0.179  35.229  0.00  0.00    +0.198 C 
ENDBRANCH   7  19
BRANCH   9  21
ATOM     21  O   UNL     1       8.534   4.401  35.740  0.00  0.00    -0.390 OA
ATOM     22  H   UNL     1       8.546   5.327  35.488  0.00  0.00    +0.210 HD
ENDBRANCH   9  21
ENDBRANCH   4   5
BRANCH   4  23
ATOM     23  O   UNL     1       3.507   4.364  34.774  0.00  0.00    -0.387 OA
ATOM     24  H   UNL     1       3.298   3.577  35.283  0.00  0.00    +0.210 HD
ENDBRANCH   4  23
ENDBRANCH   1   4
BRANCH   1  25
ATOM     25  C   UNL     1       1.966   3.660  32.211  0.00  0.00    +0.141 C 
BRANCH  25  28
ATOM     26  C   UNL     1       0.710   3.637  30.083  0.00  0.00    +0.401 C 
ATOM     27  O   UNL     1       0.193   4.741  30.268  0.00  0.00    -0.226 OA
ATOM     28  N   UNL     1       1.547   3.053  30.942  0.00  0.00    -0.279 N 
ATOM     29  H   UNL     1       1.912   2.141  30.706  0.00  0.00    +0.152 HD
BRANCH  26  30
ATOM     30  O   UNL     1       0.406   2.920  28.884  0.00  0.00    -0.444 OA
BRANCH  30  31
ATOM     31  C   UNL     1       1.602   2.733  28.123  0.00  0.00    +0.292 C 
BRANCH  31  33
ATOM     32  N   UNL     1       2.631   3.828  26.153  0.00  0.00    -0.131 NA
ATOM     33  C   UNL     1       1.506   3.449  26.837  0.00  0.00    +0.120 A 
ATOM     34  C   UNL     1       0.394   3.823  26.117  0.00  0.00    +0.137 A 
ATOM     35  N   UNL     1       0.911   4.337  24.964  0.00  0.00    -0.247 N 
ATOM     36  N   UNL     1       2.255   4.390  25.013  0.00  0.00    -0.065 NA
BRANCH  35  37
ATOM     37  C   UNL     1       0.196   4.776  23.783  0.00  0.00    +0.180 C 
BRANCH  37  38
ATOM     38  C   UNL     1       0.739   4.117  22.536  0.00  0.00    -0.026 A 
ATOM     39  C   UNL     1       1.492   4.847  21.605  0.00  0.00    +0.007 A 
ATOM     40  C   UNL     1       1.995   4.228  20.456  0.00  0.00    +0.019 A 
ATOM     41  C   UNL     1       1.748   2.872  20.221  0.00  0.00    +0.052 A 
ATOM     42  C   UNL     1       0.978   2.143  21.131  0.00  0.00    +0.019 A 
ATOM     43  C   UNL     1       0.474   2.762  22.279  0.00  0.00    +0.007 A 
BRANCH  41  44
ATOM     44  C   UNL     1       2.283   2.233  19.052  0.00  0.00    +0.099 C 
ATOM     45  N   UNL     1       2.706   1.709  18.107  0.00  0.00    -0.191 NA
ENDBRANCH  41  44
ENDBRANCH  37  38
ENDBRANCH  35  37
ENDBRANCH  31  33
ENDBRANCH  30  31
ENDBRANCH  26  30
ENDBRANCH  25  28
ENDBRANCH   1  25
TORSDOF 16
