REMARK VINA RESULT:    -5.977     14.073     17.666
REMARK INTER + INTRA:         -12.409
REMARK INTER:                 -10.849
REMARK INTRA:                  -1.561
REMARK UNBOUND:                -2.065
REMARK  Name = lig_assembled_49.pdb
REMARK  16 active torsions:
REMARK  status: ('A' for Active; 'I' for Inactive)
REMARK    1  A    between atoms: _2  and  _9
REMARK    2  A    between atoms: _4  and  _17
REMARK    3  A    between atoms: _6  and  _7
REMARK    4  A    between atoms: _6  and  _17
REMARK    5  A    between atoms: _13  and  _33
REMARK    6  A    between atoms: _15  and  _21
REMARK    7  A    between atoms: _16  and  _20
REMARK    8  A    between atoms: _20  and  _21
REMARK    9  A    between atoms: _23  and  _24
REMARK   10  A    between atoms: _25  and  _26
REMARK   11  A    between atoms: _27  and  _29
REMARK   12  A    between atoms: _29  and  _30
REMARK   13  A    between atoms: _29  and  _31
REMARK   14  A    between atoms: _31  and  _32
REMARK   15  A    between atoms: _31  and  _33
REMARK   16  A    between atoms: _34  and  _36
REMARK                            x       y       z     vdW  Elec       q    Type
REMARK                         _______ _______ _______ _____ _____    ______ ____
ROOT
ATOM      1  C   UNL     1      18.725   4.029  23.503  0.00  0.00    +0.175 C 
ENDROOT
BRANCH   1   2
ATOM      2  C   UNL     1      18.029   2.870  24.230  0.00  0.00    +0.176 C 
ATOM      3  O   UNL     1      18.737   2.636  25.479  0.00  0.00    -0.332 OA
ATOM      4  C   UNL     1      18.146   1.626  26.363  0.00  0.00    +0.277 C 
ATOM      5  C   UNL     1      17.961   0.287  25.607  0.00  0.00    +0.110 C 
ATOM      6  C   UNL     1      17.242   0.490  24.257  0.00  0.00    +0.143 C 
ATOM      7  C   UNL     1      17.938   1.563  23.420  0.00  0.00    +0.133 C 
BRANCH   7   8
ATOM      8  N   UNL     1      17.193   1.808  22.175  0.00  0.00    -0.308 N 
ATOM      9  H   UNL     1      16.278   2.230  22.248  0.00  0.00    +0.149 HD
ATOM     10  C   UNL     1      17.648   1.510  20.955  0.00  0.00    +0.210 C 
ATOM     11  C   UNL     1      19.035   0.845  20.879  0.00  0.00    +0.109 C 
ATOM     12  O   UNL     1      17.008   1.740  19.928  0.00  0.00    -0.276 OA
ENDBRANCH   7   8
BRANCH   4  13
ATOM     13  C   UNL     1      16.783   2.104  26.905  0.00  0.00    +0.414 C 
ATOM     14  O   UNL     1      15.753   1.494  26.620  0.00  0.00    -0.240 OA
ATOM     15  O   UNL     1      16.713   3.100  27.627  0.00  0.00    -0.240 OA
ENDBRANCH   4  13
BRANCH   6  16
ATOM     16  O   UNL     1      17.228  -0.739  23.530  0.00  0.00    -0.390 OA
ATOM     17  H   UNL     1      17.036  -1.464  24.129  0.00  0.00    +0.210 HD
ENDBRANCH   6  16
BRANCH   4  18
ATOM     18  O   UNL     1      19.061   1.406  27.467  0.00  0.00    -0.343 OA
ATOM     19  C   UNL     1      20.121   0.452  27.203  0.00  0.00    +0.198 C 
ENDBRANCH   4  18
ENDBRANCH   1   2
BRANCH   1  20
ATOM     20  O   UNL     1      20.048   4.229  24.039  0.00  0.00    -0.387 OA
ATOM     21  H   UNL     1      20.700   3.900  23.416  0.00  0.00    +0.210 HD
ENDBRANCH   1  20
BRANCH   1  22
ATOM     22  C   UNL     1      17.916   5.335  23.588  0.00  0.00    +0.163 C 
BRANCH  22  23
ATOM     23  O   UNL     1      16.939   5.403  22.536  0.00  0.00    -0.388 OA
ATOM     24  H   UNL     1      17.378   5.579  21.701  0.00  0.00    +0.210 HD
ENDBRANCH  22  23
BRANCH  22  25
ATOM     25  C   UNL     1      18.863   6.528  23.498  0.00  0.00    +0.141 C 
BRANCH  25  28
ATOM     26  C   UNL     1      19.679   7.386  25.667  0.00  0.00    +0.401 C 
ATOM     27  O   UNL     1      20.675   6.659  25.686  0.00  0.00    -0.226 OA
ATOM     28  N   UNL     1      18.776   7.386  24.686  0.00  0.00    -0.279 N 
ATOM     29  H   UNL     1      17.987   8.012  24.765  0.00  0.00    +0.152 HD
BRANCH  26  30
ATOM     30  O   UNL     1      19.457   8.288  26.753  0.00  0.00    -0.444 OA
BRANCH  30  31
ATOM     31  C   UNL     1      19.669   7.606  27.992  0.00  0.00    +0.292 C 
BRANCH  31  33
ATOM     32  N   UNL     1      18.629   9.617  28.988  0.00  0.00    -0.131 NA
ATOM     33  C   UNL     1      18.952   8.290  29.085  0.00  0.00    +0.120 A 
ATOM     34  C   UNL     1      18.513   7.806  30.297  0.00  0.00    +0.137 A 
ATOM     35  N   UNL     1      17.937   8.889  30.893  0.00  0.00    -0.248 N 
ATOM     36  N   UNL     1      18.006   9.973  30.102  0.00  0.00    -0.065 NA
BRANCH  35  37
ATOM     37  C   UNL     1      17.332   8.958  32.202  0.00  0.00    +0.109 C 
ATOM     38  C   UNL     1      16.618  10.281  32.485  0.00  0.00    +0.027 C 
ATOM     39  C   UNL     1      15.731   9.941  33.671  0.00  0.00    +0.002 C 
ATOM     40  C   UNL     1      15.217   8.540  33.364  0.00  0.00    +0.002 C 
ATOM     41  C   UNL     1      16.274   7.881  32.473  0.00  0.00    +0.027 C 
ENDBRANCH  35  37
ENDBRANCH  31  33
ENDBRANCH  30  31
ENDBRANCH  26  30
ENDBRANCH  25  28
ENDBRANCH  22  25
ENDBRANCH   1  22
TORSDOF 14
