REMARK VINA RESULT:    -5.645      6.854     12.339
REMARK INTER + INTRA:         -12.661
REMARK INTER:                 -10.868
REMARK INTRA:                  -1.793
REMARK UNBOUND:                -1.902
REMARK  Name = lig_assembled_13.pdb
REMARK  20 active torsions:
REMARK  status: ('A' for Active; 'I' for Inactive)
REMARK    1  A    between atoms: _2  and  _9
REMARK    2  A    between atoms: _4  and  _18
REMARK    3  A    between atoms: _5  and  _11
REMARK    4  A    between atoms: _6  and  _7
REMARK    5  A    between atoms: _6  and  _18
REMARK    6  A    between atoms: _9  and  _10
REMARK    7  A    between atoms: _10  and  _12
REMARK    8  A    between atoms: _11  and  _12
REMARK    9  A    between atoms: _14  and  _34
REMARK   10  A    between atoms: _16  and  _22
REMARK   11  A    between atoms: _17  and  _21
REMARK   12  A    between atoms: _21  and  _22
REMARK   13  A    between atoms: _24  and  _25
REMARK   14  A    between atoms: _26  and  _27
REMARK   15  A    between atoms: _28  and  _30
REMARK   16  A    between atoms: _30  and  _31
REMARK   17  A    between atoms: _30  and  _32
REMARK   18  A    between atoms: _32  and  _33
REMARK   19  A    between atoms: _32  and  _34
REMARK   20  A    between atoms: _35  and  _37
REMARK                            x       y       z     vdW  Elec       q    Type
REMARK                         _______ _______ _______ _____ _____    ______ ____
ROOT
ATOM      1  C   UNL     1       9.950   3.011  35.032  0.00  0.00    +0.163 C 
ENDROOT
BRANCH   1   2
ATOM      2  O   UNL     1       9.775   2.124  33.915  0.00  0.00    -0.388 OA
ATOM      3  H   UNL     1       9.988   2.588  33.101  0.00  0.00    +0.210 HD
ENDBRANCH   1   2
BRANCH   1   4
ATOM      4  C   UNL     1       8.652   3.130  35.848  0.00  0.00    +0.175 C 
BRANCH   4   5
ATOM      5  C   UNL     1       7.814   4.347  35.428  0.00  0.00    +0.176 C 
ATOM      6  O   UNL     1       7.506   5.113  36.625  0.00  0.00    -0.332 OA
ATOM      7  C   UNL     1       6.796   6.376  36.404  0.00  0.00    +0.277 C 
ATOM      8  C   UNL     1       5.501   6.134  35.591  0.00  0.00    +0.110 C 
ATOM      9  C   UNL     1       5.773   5.295  34.324  0.00  0.00    +0.143 C 
ATOM     10  C   UNL     1       6.518   4.006  34.669  0.00  0.00    +0.133 C 
BRANCH  10  11
ATOM     11  N   UNL     1       6.848   3.258  33.445  0.00  0.00    -0.308 N 
ATOM     12  H   UNL     1       7.478   3.690  32.784  0.00  0.00    +0.149 HD
ATOM     13  C   UNL     1       6.369   2.046  33.152  0.00  0.00    +0.210 C 
ATOM     14  C   UNL     1       5.392   1.426  34.168  0.00  0.00    +0.109 C 
ATOM     15  O   UNL     1       6.674   1.437  32.126  0.00  0.00    -0.276 OA
ENDBRANCH  10  11
BRANCH   7  16
ATOM     16  C   UNL     1       7.693   7.385  35.657  0.00  0.00    +0.414 C 
ATOM     17  O   UNL     1       8.899   7.436  35.893  0.00  0.00    -0.240 OA
ATOM     18  O   UNL     1       7.211   8.147  34.817  0.00  0.00    -0.240 OA
ENDBRANCH   7  16
BRANCH   7  19
ATOM     19  O   UNL     1       6.428   6.917  37.699  0.00  0.00    -0.343 OA
ATOM     20  C   UNL     1       5.185   6.407  38.245  0.00  0.00    +0.198 C 
ENDBRANCH   7  19
BRANCH   9  21
ATOM     21  O   UNL     1       4.536   4.969  33.688  0.00  0.00    -0.390 OA
ATOM     22  H   UNL     1       4.566   4.061  33.377  0.00  0.00    +0.210 HD
ENDBRANCH   9  21
ENDBRANCH   4   5
BRANCH   4  23
ATOM     23  O   UNL     1       8.955   3.198  37.256  0.00  0.00    -0.387 OA
ATOM     24  H   UNL     1       9.835   2.847  37.412  0.00  0.00    +0.210 HD
ENDBRANCH   4  23
ENDBRANCH   1   4
BRANCH   1  25
ATOM     25  C   UNL     1      11.072   2.503  35.931  0.00  0.00    +0.141 C 
BRANCH  25  28
ATOM     26  C   UNL     1      13.020   3.944  35.443  0.00  0.00    +0.401 C 
ATOM     27  O   UNL     1      13.234   3.441  34.337  0.00  0.00    -0.226 OA
ATOM     28  N   UNL     1      12.035   3.563  36.257  0.00  0.00    -0.279 N 
ATOM     29  H   UNL     1      11.945   4.030  37.148  0.00  0.00    +0.152 HD
BRANCH  26  30
ATOM     30  O   UNL     1      13.869   4.999  35.902  0.00  0.00    -0.444 OA
BRANCH  30  31
ATOM     31  C   UNL     1      15.193   4.798  35.401  0.00  0.00    +0.292 C 
BRANCH  31  33
ATOM     32  N   UNL     1      15.360   5.986  33.236  0.00  0.00    -0.131 NA
ATOM     33  C   UNL     1      15.613   5.949  34.580  0.00  0.00    +0.120 A 
ATOM     34  C   UNL     1      16.278   7.094  34.946  0.00  0.00    +0.137 A 
ATOM     35  N   UNL     1      16.461   7.758  33.768  0.00  0.00    -0.241 N 
ATOM     36  N   UNL     1      15.867   7.114  32.751  0.00  0.00    -0.065 NA
BRANCH  35  37
ATOM     37  C   UNL     1      17.091   9.040  33.551  0.00  0.00    +0.265 C 
BRANCH  37  38
ATOM     38  C   UNL     1      16.113  10.174  33.660  0.00  0.00    +0.329 C 
ATOM     39  O   UNL     1      15.244  10.466  32.852  0.00  0.00    -0.249 OA
BRANCH  38  40
ATOM     40  O   UNL     1      16.413  10.913  34.771  0.00  0.00    -0.464 OA
BRANCH  40  41
ATOM     41  C   UNL     1      17.493  11.844  34.605  0.00  0.00    +0.229 C 
ATOM     42  C   UNL     1      17.610  12.654  35.884  0.00  0.00    +0.048 C 
ENDBRANCH  40  41
ENDBRANCH  38  40
ENDBRANCH  37  38
ENDBRANCH  35  37
ENDBRANCH  31  33
ENDBRANCH  30  31
ENDBRANCH  26  30
ENDBRANCH  25  28
ENDBRANCH   1  25
TORSDOF 17
