REMARK VINA RESULT:    -5.757     14.431     18.443
REMARK INTER + INTRA:         -13.629
REMARK INTER:                 -10.806
REMARK INTRA:                  -2.823
REMARK UNBOUND:                -1.813
REMARK  Name = lig_assembled_33.pdb
REMARK  22 active torsions:
REMARK  status: ('A' for Active; 'I' for Inactive)
REMARK    1  A    between atoms: _2  and  _9
REMARK    2  A    between atoms: _4  and  _20
REMARK    3  A    between atoms: _5  and  _13
REMARK    4  A    between atoms: _5  and  _14
REMARK    5  A    between atoms: _6  and  _7
REMARK    6  A    between atoms: _6  and  _20
REMARK    7  A    between atoms: _9  and  _10
REMARK    8  A    between atoms: _10  and  _11
REMARK    9  A    between atoms: _11  and  _12
REMARK   10  A    between atoms: _12  and  _13
REMARK   11  A    between atoms: _16  and  _36
REMARK   12  A    between atoms: _18  and  _24
REMARK   13  A    between atoms: _19  and  _23
REMARK   14  A    between atoms: _23  and  _24
REMARK   15  A    between atoms: _26  and  _27
REMARK   16  A    between atoms: _28  and  _29
REMARK   17  A    between atoms: _30  and  _32
REMARK   18  A    between atoms: _32  and  _33
REMARK   19  A    between atoms: _32  and  _34
REMARK   20  A    between atoms: _34  and  _35
REMARK   21  A    between atoms: _34  and  _36
REMARK   22  A    between atoms: _37  and  _39
REMARK                            x       y       z     vdW  Elec       q    Type
REMARK                         _______ _______ _______ _____ _____    ______ ____
ROOT
ATOM      1  C   UNL     1      17.857   1.567  23.239  0.00  0.00    +0.163 C 
ENDROOT
BRANCH   1   2
ATOM      2  O   UNL     1      17.189   1.233  22.011  0.00  0.00    -0.388 OA
ATOM      3  H   UNL     1      16.456   1.838  21.871  0.00  0.00    +0.210 HD
ENDBRANCH   1   2
BRANCH   1   4
ATOM      4  C   UNL     1      18.934   0.523  23.580  0.00  0.00    +0.175 C 
BRANCH   4   5
ATOM      5  C   UNL     1      18.334  -0.739  24.216  0.00  0.00    +0.176 C 
ATOM      6  O   UNL     1      17.705  -1.516  23.160  0.00  0.00    -0.332 OA
ATOM      7  C   UNL     1      17.166  -2.818  23.566  0.00  0.00    +0.277 C 
ATOM      8  C   UNL     1      16.181  -2.650  24.749  0.00  0.00    +0.110 C 
ATOM      9  C   UNL     1      16.794  -1.803  25.884  0.00  0.00    +0.143 C 
ATOM     10  C   UNL     1      17.327  -0.473  25.350  0.00  0.00    +0.133 C 
BRANCH  10  11
ATOM     11  N   UNL     1      17.985   0.287  26.424  0.00  0.00    -0.308 N 
ATOM     12  H   UNL     1      18.874  -0.053  26.766  0.00  0.00    +0.149 HD
ATOM     13  C   UNL     1      17.486   1.395  26.978  0.00  0.00    +0.210 C 
ATOM     14  C   UNL     1      16.118   1.872  26.454  0.00  0.00    +0.109 C 
ATOM     15  O   UNL     1      18.067   2.019  27.866  0.00  0.00    -0.276 OA
ENDBRANCH  10  11
BRANCH   7  16
ATOM     16  C   UNL     1      18.303  -3.778  23.973  0.00  0.00    +0.414 C 
ATOM     17  O   UNL     1      18.150  -4.556  24.914  0.00  0.00    -0.240 OA
ATOM     18  O   UNL     1      19.371  -3.776  23.360  0.00  0.00    -0.240 OA
ENDBRANCH   7  16
BRANCH   9  19
ATOM     19  O   UNL     1      15.805  -1.548  26.882  0.00  0.00    -0.390 OA
ATOM     20  H   UNL     1      15.355  -2.366  27.104  0.00  0.00    +0.210 HD
ENDBRANCH   9  19
BRANCH   7  21
ATOM     21  O   UNL     1      16.438  -3.372  22.440  0.00  0.00    -0.343 OA
ATOM     22  C   UNL     1      15.342  -4.253  22.794  0.00  0.00    +0.198 C 
ENDBRANCH   7  21
ENDBRANCH   4   5
BRANCH   4  23
ATOM     23  O   UNL     1      19.923   1.099  24.457  0.00  0.00    -0.387 OA
ATOM     24  H   UNL     1      19.662   1.992  24.692  0.00  0.00    +0.210 HD
ENDBRANCH   4  23
ENDBRANCH   1   4
BRANCH   1  25
ATOM     25  C   UNL     1      18.501   2.945  23.124  0.00  0.00    +0.141 C 
BRANCH  25  28
ATOM     26  C   UNL     1      19.067   4.250  25.145  0.00  0.00    +0.401 C 
ATOM     27  O   UNL     1      20.270   3.982  25.095  0.00  0.00    -0.226 OA
ATOM     28  N   UNL     1      18.167   3.802  24.268  0.00  0.00    -0.279 N 
ATOM     29  H   UNL     1      17.201   4.069  24.398  0.00  0.00    +0.152 HD
BRANCH  26  30
ATOM     30  O   UNL     1      18.585   5.084  26.201  0.00  0.00    -0.444 OA
BRANCH  30  31
ATOM     31  C   UNL     1      19.675   5.466  27.044  0.00  0.00    +0.292 C 
BRANCH  31  33
ATOM     32  N   UNL     1      20.901   7.522  27.667  0.00  0.00    -0.131 NA
ATOM     33  C   UNL     1      19.821   6.933  27.063  0.00  0.00    +0.120 A 
ATOM     34  C   UNL     1      19.003   7.916  26.548  0.00  0.00    +0.137 A 
ATOM     35  N   UNL     1      19.646   9.074  26.864  0.00  0.00    -0.251 N 
ATOM     36  N   UNL     1      20.776   8.836  27.550  0.00  0.00    -0.065 NA
BRANCH  35  37
ATOM     37  C   UNL     1      19.245  10.433  26.562  0.00  0.00    +0.145 C 
BRANCH  37  38
ATOM     38  C   UNL     1      19.071  11.274  27.825  0.00  0.00    +0.023 C 
BRANCH  38  39
ATOM     39  C   UNL     1      17.956  10.748  28.733  0.00  0.00    +0.002 C 
BRANCH  39  40
ATOM     40  C   UNL     1      18.537  10.345  30.091  0.00  0.00    +0.011 C 
BRANCH  40  41
ATOM     41  C   UNL     1      18.415   8.849  30.367  0.00  0.00    +0.120 C 
BRANCH  41  42
ATOM     42  C   UNL     1      17.677   8.588  31.661  0.00  0.00    +0.305 C 
ATOM     43  O   UNL     1      16.492   8.310  31.756  0.00  0.00    -0.251 OA
BRANCH  42  44
ATOM     44  O   UNL     1      18.483   8.691  32.743  0.00  0.00    -0.481 OA
ATOM     45  H   UNL     1      19.386   8.356  32.596  0.00  0.00    +0.295 HD
ENDBRANCH  42  44
ENDBRANCH  41  42
ENDBRANCH  40  41
ENDBRANCH  39  40
ENDBRANCH  38  39
ENDBRANCH  37  38
ENDBRANCH  35  37
ENDBRANCH  31  33
ENDBRANCH  30  31
ENDBRANCH  26  30
ENDBRANCH  25  28
ENDBRANCH   1  25
TORSDOF 20
