REMARK VINA RESULT:    -5.941     12.400     15.212
REMARK INTER + INTRA:         -12.886
REMARK INTER:                 -10.911
REMARK INTRA:                  -1.975
REMARK UNBOUND:                -2.083
REMARK  Name = lig_assembled_35.pdb
REMARK  19 active torsions:
REMARK  status: ('A' for Active; 'I' for Inactive)
REMARK    1  A    between atoms: _2  and  _9
REMARK    2  A    between atoms: _4  and  _17
REMARK    3  A    between atoms: _5  and  _9
REMARK    4  A    between atoms: _5  and  _11
REMARK    5  A    between atoms: _6  and  _7
REMARK    6  A    between atoms: _6  and  _17
REMARK    7  A    between atoms: _9  and  _10
REMARK    8  A    between atoms: _13  and  _33
REMARK    9  A    between atoms: _15  and  _21
REMARK   10  A    between atoms: _16  and  _20
REMARK   11  A    between atoms: _20  and  _21
REMARK   12  A    between atoms: _23  and  _24
REMARK   13  A    between atoms: _25  and  _26
REMARK   14  A    between atoms: _27  and  _29
REMARK   15  A    between atoms: _29  and  _30
REMARK   16  A    between atoms: _29  and  _31
REMARK   17  A    between atoms: _31  and  _32
REMARK   18  A    between atoms: _31  and  _33
REMARK   19  A    between atoms: _34  and  _36
REMARK                            x       y       z     vdW  Elec       q    Type
REMARK                         _______ _______ _______ _____ _____    ______ ____
ROOT
ATOM      1  C   UNL     1       8.044   2.477  34.295  0.00  0.00    +0.163 C 
ENDROOT
BRANCH   1   2
ATOM      2  O   UNL     1       8.645   2.844  35.548  0.00  0.00    -0.388 OA
ATOM      3  H   UNL     1       9.586   2.656  35.519  0.00  0.00    +0.210 HD
ENDBRANCH   1   2
BRANCH   1   4
ATOM      4  C   UNL     1       7.921   3.697  33.366  0.00  0.00    +0.175 C 
BRANCH   4   5
ATOM      5  C   UNL     1       7.033   4.795  33.969  0.00  0.00    +0.176 C 
ATOM      6  O   UNL     1       7.756   5.396  35.079  0.00  0.00    -0.332 OA
ATOM      7  C   UNL     1       7.102   6.543  35.714  0.00  0.00    +0.277 C 
ATOM      8  C   UNL     1       5.669   6.168  36.165  0.00  0.00    +0.110 C 
ATOM      9  C   UNL     1       4.871   5.497  35.027  0.00  0.00    +0.143 C 
ATOM     10  C   UNL     1       5.645   4.318  34.436  0.00  0.00    +0.133 C 
BRANCH  10  11
ATOM     11  N   UNL     1       4.915   3.741  33.296  0.00  0.00    -0.308 N 
ATOM     12  H   UNL     1       4.823   4.304  32.462  0.00  0.00    +0.149 HD
ATOM     13  C   UNL     1       4.366   2.524  33.292  0.00  0.00    +0.210 C 
ATOM     14  C   UNL     1       4.502   1.702  34.588  0.00  0.00    +0.109 C 
ATOM     15  O   UNL     1       3.772   2.061  32.317  0.00  0.00    -0.276 OA
ENDBRANCH  10  11
BRANCH   7  16
ATOM     16  C   UNL     1       7.040   7.743  34.746  0.00  0.00    +0.414 C 
ATOM     17  O   UNL     1       5.956   8.148  34.329  0.00  0.00    -0.240 OA
ATOM     18  O   UNL     1       8.074   8.306  34.384  0.00  0.00    -0.240 OA
ENDBRANCH   7  16
BRANCH   7  19
ATOM     19  O   UNL     1       7.871   6.904  36.890  0.00  0.00    -0.343 OA
ATOM     20  C   UNL     1       7.263   6.540  38.155  0.00  0.00    +0.198 C 
ENDBRANCH   7  19
BRANCH   9  21
ATOM     21  O   UNL     1       3.616   5.033  35.526  0.00  0.00    -0.390 OA
ATOM     22  H   UNL     1       3.618   5.075  36.486  0.00  0.00    +0.210 HD
ENDBRANCH   9  21
ENDBRANCH   4   5
BRANCH   4  23
ATOM     23  O   UNL     1       7.408   3.293  32.081  0.00  0.00    -0.387 OA
ATOM     24  H   UNL     1       8.133   3.216  31.456  0.00  0.00    +0.210 HD
ENDBRANCH   4  23
ENDBRANCH   1   4
BRANCH   1  25
ATOM     25  C   UNL     1       8.879   1.399  33.612  0.00  0.00    +0.141 C 
BRANCH  25  28
ATOM     26  C   UNL     1       7.688  -0.764  33.726  0.00  0.00    +0.401 C 
ATOM     27  O   UNL     1       8.036  -1.001  34.885  0.00  0.00    -0.226 OA
ATOM     28  N   UNL     1       8.041   0.331  33.052  0.00  0.00    -0.279 N 
ATOM     29  H   UNL     1       7.714   0.432  32.101  0.00  0.00    +0.152 HD
BRANCH  26  30
ATOM     30  O   UNL     1       6.860  -1.707  33.043  0.00  0.00    -0.444 OA
BRANCH  30  31
ATOM     31  C   UNL     1       7.669  -2.530  32.198  0.00  0.00    +0.292 C 
BRANCH  31  33
ATOM     32  N   UNL     1       6.627  -1.235  30.364  0.00  0.00    -0.131 NA
ATOM     33  C   UNL     1       7.262  -2.371  30.788  0.00  0.00    +0.120 A 
ATOM     34  C   UNL     1       7.408  -3.230  29.721  0.00  0.00    +0.138 A 
ATOM     35  N   UNL     1       6.857  -2.551  28.674  0.00  0.00    -0.238 N 
ATOM     36  N   UNL     1       6.370  -1.362  29.070  0.00  0.00    -0.065 NA
BRANCH  35  37
ATOM     37  C   UNL     1       6.714  -2.946  27.285  0.00  0.00    +0.214 C 
ATOM     38  C   UNL     1       5.779  -1.998  26.541  0.00  0.00    +0.045 C 
BRANCH  37  39
ATOM     39  C   UNL     1       8.061  -3.072  26.604  0.00  0.00    +0.329 C 
ATOM     40  O   UNL     1       8.892  -3.931  26.868  0.00  0.00    -0.249 OA
BRANCH  39  41
ATOM     41  O   UNL     1       8.307  -2.121  25.669  0.00  0.00    -0.479 OA
ATOM     42  H   UNL     1       7.869  -2.253  24.803  0.00  0.00    +0.295 HD
ENDBRANCH  39  41
ENDBRANCH  37  39
ENDBRANCH  35  37
ENDBRANCH  31  33
ENDBRANCH  30  31
ENDBRANCH  26  30
ENDBRANCH  25  28
ENDBRANCH   1  25
TORSDOF 16
