REMARK VINA RESULT:    -6.497      5.824      9.396
REMARK INTER + INTRA:         -13.639
REMARK INTER:                 -11.406
REMARK INTRA:                  -2.233
REMARK UNBOUND:                -1.444
REMARK  Name = lig_assembled_16.pdb
REMARK  19 active torsions:
REMARK  status: ('A' for Active; 'I' for Inactive)
REMARK    1  A    between atoms: _2  and  _9
REMARK    2  A    between atoms: _4  and  _22
REMARK    3  A    between atoms: _6  and  _7
REMARK    4  A    between atoms: _6  and  _22
REMARK    5  A    between atoms: _9  and  _10
REMARK    6  A    between atoms: _13  and  _14
REMARK    7  A    between atoms: _14  and  _16
REMARK    8  A    between atoms: _18  and  _38
REMARK    9  A    between atoms: _20  and  _26
REMARK   10  A    between atoms: _21  and  _25
REMARK   11  A    between atoms: _25  and  _26
REMARK   12  A    between atoms: _28  and  _29
REMARK   13  A    between atoms: _30  and  _31
REMARK   14  A    between atoms: _32  and  _34
REMARK   15  A    between atoms: _34  and  _35
REMARK   16  A    between atoms: _34  and  _36
REMARK   17  A    between atoms: _36  and  _37
REMARK   18  A    between atoms: _36  and  _38
REMARK   19  A    between atoms: _39  and  _41
REMARK                            x       y       z     vdW  Elec       q    Type
REMARK                         _______ _______ _______ _____ _____    ______ ____
ROOT
ATOM      1  C   UNL     1       4.048   3.771  36.904  0.00  0.00    +0.163 C 
ENDROOT
BRANCH   1   2
ATOM      2  O   UNL     1       5.232   2.979  36.716  0.00  0.00    -0.388 OA
ATOM      3  H   UNL     1       5.653   3.224  35.888  0.00  0.00    +0.210 HD
ENDBRANCH   1   2
BRANCH   1   4
ATOM      4  C   UNL     1       4.180   5.134  36.203  0.00  0.00    +0.175 C 
BRANCH   4   5
ATOM      5  C   UNL     1       5.330   5.972  36.782  0.00  0.00    +0.176 C 
ATOM      6  O   UNL     1       6.581   5.403  36.309  0.00  0.00    -0.332 OA
ATOM      7  C   UNL     1       7.793   6.140  36.678  0.00  0.00    +0.277 C 
ATOM      8  C   UNL     1       7.857   6.343  38.211  0.00  0.00    +0.110 C 
ATOM      9  C   UNL     1       6.537   6.917  38.766  0.00  0.00    +0.143 C 
ATOM     10  C   UNL     1       5.341   6.075  38.319  0.00  0.00    +0.133 C 
BRANCH  10  11
ATOM     11  N   UNL     1       4.083   6.681  38.781  0.00  0.00    -0.308 N 
ATOM     12  H   UNL     1       3.792   7.548  38.353  0.00  0.00    +0.149 HD
ATOM     13  C   UNL     1       3.299   6.159  39.728  0.00  0.00    +0.210 C 
ATOM     14  C   UNL     1       3.783   4.849  40.379  0.00  0.00    +0.109 C 
ATOM     15  O   UNL     1       2.242   6.681  40.084  0.00  0.00    -0.276 OA
ENDBRANCH  10  11
BRANCH   7  16
ATOM     16  C   UNL     1       7.833   7.513  35.974  0.00  0.00    +0.414 C 
ATOM     17  O   UNL     1       8.134   8.525  36.606  0.00  0.00    -0.240 OA
ATOM     18  O   UNL     1       7.565   7.608  34.776  0.00  0.00    -0.240 OA
ENDBRANCH   7  16
BRANCH   7  19
ATOM     19  O   UNL     1       8.940   5.350  36.272  0.00  0.00    -0.343 OA
ATOM     20  C   UNL     1       8.643   3.976  35.916  0.00  0.00    +0.198 C 
ENDBRANCH   7  19
BRANCH   9  21
ATOM     21  O   UNL     1       6.585   6.945  40.193  0.00  0.00    -0.390 OA
ATOM     22  H   UNL     1       6.209   6.134  40.543  0.00  0.00    +0.210 HD
ENDBRANCH   9  21
ENDBRANCH   4   5
BRANCH   4  23
ATOM     23  O   UNL     1       2.940   5.862  36.295  0.00  0.00    -0.387 OA
ATOM     24  H   UNL     1       2.216   5.246  36.431  0.00  0.00    +0.210 HD
ENDBRANCH   4  23
ENDBRANCH   1   4
BRANCH   1  25
ATOM     25  C   UNL     1       2.832   3.031  36.354  0.00  0.00    +0.141 C 
BRANCH  25  28
ATOM     26  C   UNL     1       2.402   3.108  33.922  0.00  0.00    +0.401 C 
ATOM     27  O   UNL     1       1.561   4.006  34.004  0.00  0.00    -0.226 OA
ATOM     28  N   UNL     1       3.042   2.588  34.970  0.00  0.00    -0.279 N 
ATOM     29  H   UNL     1       3.708   1.847  34.803  0.00  0.00    +0.152 HD
BRANCH  26  30
ATOM     30  O   UNL     1       2.724   2.573  32.636  0.00  0.00    -0.444 OA
BRANCH  30  31
ATOM     31  C   UNL     1       4.064   2.932  32.291  0.00  0.00    +0.292 C 
BRANCH  31  33
ATOM     32  N   UNL     1       6.190   1.660  32.257  0.00  0.00    -0.131 NA
ATOM     33  C   UNL     1       4.850   1.727  31.973  0.00  0.00    +0.120 A 
ATOM     34  C   UNL     1       4.448   0.533  31.415  0.00  0.00    +0.137 A 
ATOM     35  N   UNL     1       5.566  -0.245  31.476  0.00  0.00    -0.247 N 
ATOM     36  N   UNL     1       6.624   0.449  31.932  0.00  0.00    -0.065 NA
BRANCH  35  37
ATOM     37  C   UNL     1       5.692  -1.649  31.143  0.00  0.00    +0.180 C 
BRANCH  37  38
ATOM     38  C   UNL     1       6.073  -1.838  29.692  0.00  0.00    -0.026 A 
ATOM     39  C   UNL     1       5.163  -1.537  28.668  0.00  0.00    +0.006 A 
ATOM     40  C   UNL     1       5.534  -1.678  27.327  0.00  0.00    +0.015 A 
ATOM     41  C   UNL     1       6.811  -2.133  26.991  0.00  0.00    +0.059 A 
ATOM     42  C   UNL     1       7.722  -2.459  28.007  0.00  0.00    +0.015 A 
ATOM     43  C   UNL     1       7.346  -2.323  29.347  0.00  0.00    +0.006 A 
BRANCH  41  44
ATOM     44  C   UNL     1       7.177  -2.194  25.551  0.00  0.00    +0.337 C 
ATOM     45  O   UNL     1       6.341  -2.243  24.664  0.00  0.00    -0.245 OA
BRANCH  44  46
ATOM     46  O   UNL     1       8.502  -2.227  25.320  0.00  0.00    -0.477 OA
ATOM     47  H   UNL     1       8.777  -1.932  24.433  0.00  0.00    +0.295 HD
ENDBRANCH  44  46
ENDBRANCH  41  44
ENDBRANCH  37  38
ENDBRANCH  35  37
ENDBRANCH  31  33
ENDBRANCH  30  31
ENDBRANCH  26  30
ENDBRANCH  25  28
ENDBRANCH   1  25
TORSDOF 17
