REMARK VINA RESULT:    -5.218      3.124      5.192
REMARK INTER + INTRA:         -13.403
REMARK INTER:                 -11.096
REMARK INTRA:                  -2.307
REMARK UNBOUND:                -3.914
REMARK  Name = lig_assembled_73.pdb
REMARK  18 active torsions:
REMARK  status: ('A' for Active; 'I' for Inactive)
REMARK    1  A    between atoms: _2  and  _10
REMARK    2  A    between atoms: _3  and  _14
REMARK    3  A    between atoms: _5  and  _22
REMARK    4  A    between atoms: _7  and  _8
REMARK    5  A    between atoms: _7  and  _22
REMARK    6  A    between atoms: _13  and  _16
REMARK    7  A    between atoms: _18  and  _38
REMARK    8  A    between atoms: _20  and  _26
REMARK    9  A    between atoms: _21  and  _25
REMARK   10  A    between atoms: _25  and  _26
REMARK   11  A    between atoms: _28  and  _29
REMARK   12  A    between atoms: _30  and  _31
REMARK   13  A    between atoms: _32  and  _34
REMARK   14  A    between atoms: _34  and  _35
REMARK   15  A    between atoms: _34  and  _36
REMARK   16  A    between atoms: _36  and  _37
REMARK   17  A    between atoms: _36  and  _38
REMARK   18  A    between atoms: _39  and  _41
REMARK                            x       y       z     vdW  Elec       q    Type
REMARK                         _______ _______ _______ _____ _____    ______ ____
ROOT
ATOM      1  C   UNL     1       2.173   1.327  30.236  0.00  0.00    +0.163 C 
ENDROOT
BRANCH   1   2
ATOM      2  O   UNL     1       2.924   0.365  29.477  0.00  0.00    -0.388 OA
ATOM      3  H   UNL     1       2.650   0.399  28.557  0.00  0.00    +0.210 HD
ENDBRANCH   1   2
BRANCH   1   4
ATOM      4  C   UNL     1       3.006   2.593  30.497  0.00  0.00    +0.175 C 
BRANCH   4   5
ATOM      5  C   UNL     1       3.860   2.473  31.767  0.00  0.00    +0.176 C 
ATOM      6  O   UNL     1       4.901   1.489  31.515  0.00  0.00    -0.332 OA
ATOM      7  C   UNL     1       5.884   1.316  32.589  0.00  0.00    +0.277 C 
ATOM      8  C   UNL     1       5.173   0.995  33.927  0.00  0.00    +0.110 C 
ATOM      9  C   UNL     1       4.037   1.997  34.222  0.00  0.00    +0.143 C 
ATOM     10  C   UNL     1       3.075   2.100  33.038  0.00  0.00    +0.133 C 
BRANCH  10  11
ATOM     11  N   UNL     1       2.047   3.120  33.298  0.00  0.00    -0.308 N 
ATOM     12  H   UNL     1       2.339   4.087  33.330  0.00  0.00    +0.149 HD
ATOM     13  C   UNL     1       0.753   2.853  33.493  0.00  0.00    +0.210 C 
ATOM     14  C   UNL     1       0.344   1.368  33.464  0.00  0.00    +0.109 C 
ATOM     15  O   UNL     1      -0.089   3.729  33.694  0.00  0.00    -0.276 OA
ENDBRANCH  10  11
BRANCH   7  16
ATOM     16  C   UNL     1       6.743   2.587  32.753  0.00  0.00    +0.414 C 
ATOM     17  O   UNL     1       7.022   3.278  31.774  0.00  0.00    -0.240 OA
ATOM     18  O   UNL     1       7.156   2.922  33.864  0.00  0.00    -0.240 OA
ENDBRANCH   7  16
BRANCH   9  19
ATOM     19  O   UNL     1       3.314   1.577  35.381  0.00  0.00    -0.390 OA
ATOM     20  H   UNL     1       2.580   2.176  35.535  0.00  0.00    +0.210 HD
ENDBRANCH   9  19
BRANCH   7  21
ATOM     21  O   UNL     1       6.735   0.193  32.242  0.00  0.00    -0.343 OA
ATOM     22  C   UNL     1       6.090  -0.845  31.462  0.00  0.00    +0.198 C 
ENDBRANCH   7  21
ENDBRANCH   4   5
BRANCH   4  23
ATOM     23  O   UNL     1       2.144   3.745  30.585  0.00  0.00    -0.387 OA
ATOM     24  H   UNL     1       1.409   3.551  31.172  0.00  0.00    +0.210 HD
ENDBRANCH   4  23
ENDBRANCH   1   4
BRANCH   1  25
ATOM     25  C   UNL     1       0.897   1.700  29.489  0.00  0.00    +0.141 C 
BRANCH  25  28
ATOM     26  C   UNL     1       0.697   3.403  27.709  0.00  0.00    +0.401 C 
ATOM     27  O   UNL     1      -0.050   4.134  28.362  0.00  0.00    -0.226 OA
ATOM     28  N   UNL     1       1.183   2.243  28.155  0.00  0.00    -0.279 N 
ATOM     29  H   UNL     1       1.781   1.709  27.542  0.00  0.00    +0.152 HD
BRANCH  26  30
ATOM     30  O   UNL     1       1.077   3.799  26.389  0.00  0.00    -0.444 OA
BRANCH  30  31
ATOM     31  C   UNL     1       0.003   3.532  25.483  0.00  0.00    +0.292 C 
BRANCH  31  33
ATOM     32  N   UNL     1       0.865   5.287  23.966  0.00  0.00    -0.131 NA
ATOM     33  C   UNL     1       0.326   4.045  24.138  0.00  0.00    +0.121 A 
ATOM     34  C   UNL     1       0.173   3.448  22.909  0.00  0.00    +0.143 A 
ATOM     35  N   UNL     1       0.645   4.371  22.004  0.00  0.00    -0.220 N 
ATOM     36  N   UNL     1       1.055   5.477  22.668  0.00  0.00    -0.060 NA
BRANCH  35  37
ATOM     37  C   UNL     1       0.721   4.272  20.591  0.00  0.00    +0.074 A 
ATOM     38  C   UNL     1       1.825   3.636  19.994  0.00  0.00    +0.032 A 
ATOM     39  C   UNL     1       1.926   3.535  18.600  0.00  0.00    +0.054 A 
ATOM     40  C   UNL     1       0.929   4.072  17.788  0.00  0.00    +0.195 A 
ATOM     41  C   UNL     1      -0.163   4.700  18.385  0.00  0.00    +0.316 A 
ATOM     42  C   UNL     1      -0.287   4.804  19.778  0.00  0.00    +0.116 A 
BRANCH  41  43
ATOM     43  N   UNL     1      -1.212   5.277  17.568  0.00  0.00    +0.083 N 
ATOM     44  O   UNL     1      -0.877   6.089  16.695  0.00  0.00    +0.042 OA
ATOM     45  O   UNL     1      -2.377   4.981  17.869  0.00  0.00    -0.576 OA
ENDBRANCH  41  43
BRANCH  40  46
ATOM     46  O   UNL     1       1.018   3.955  16.434  0.00  0.00    -0.501 OA
ATOM     47  H   UNL     1       1.902   4.228  16.132  0.00  0.00    +0.292 HD
ENDBRANCH  40  46
ENDBRANCH  35  37
ENDBRANCH  31  33
ENDBRANCH  30  31
ENDBRANCH  26  30
ENDBRANCH  25  28
ENDBRANCH   1  25
TORSDOF 16
