REMARK VINA RESULT:    -5.901      5.165      7.514
REMARK INTER + INTRA:         -12.547
REMARK INTER:                 -10.213
REMARK INTRA:                  -2.334
REMARK UNBOUND:                -2.334
REMARK  Name = lig_assembled_15.pdb
REMARK  16 active torsions:
REMARK  status: ('A' for Active; 'I' for Inactive)
REMARK    1  A    between atoms: _2  and  _9
REMARK    2  A    between atoms: _4  and  _18
REMARK    3  A    between atoms: _6  and  _7
REMARK    4  A    between atoms: _6  and  _18
REMARK    5  A    between atoms: _14  and  _34
REMARK    6  A    between atoms: _16  and  _22
REMARK    7  A    between atoms: _17  and  _21
REMARK    8  A    between atoms: _21  and  _22
REMARK    9  A    between atoms: _24  and  _25
REMARK   10  A    between atoms: _26  and  _27
REMARK   11  A    between atoms: _28  and  _30
REMARK   12  A    between atoms: _30  and  _31
REMARK   13  A    between atoms: _30  and  _32
REMARK   14  A    between atoms: _32  and  _33
REMARK   15  A    between atoms: _32  and  _34
REMARK   16  A    between atoms: _35  and  _37
REMARK                            x       y       z     vdW  Elec       q    Type
REMARK                         _______ _______ _______ _____ _____    ______ ____
ROOT
ATOM      1  C   UNL     1       8.650   2.642  33.863  0.00  0.00    +0.163 C 
ENDROOT
BRANCH   1   2
ATOM      2  O   UNL     1       8.108   1.885  32.768  0.00  0.00    -0.388 OA
ATOM      3  H   UNL     1       8.803   1.700  32.132  0.00  0.00    +0.210 HD
ENDBRANCH   1   2
BRANCH   1   4
ATOM      4  C   UNL     1       8.574   1.825  35.149  0.00  0.00    +0.141 C 
BRANCH   4   7
ATOM      5  C   UNL     1       8.985  -0.611  35.093  0.00  0.00    +0.401 C 
ATOM      6  O   UNL     1      10.144  -0.520  35.503  0.00  0.00    -0.226 OA
ATOM      7  N   UNL     1       8.181   0.434  34.892  0.00  0.00    -0.279 N 
ATOM      8  H   UNL     1       7.249   0.259  34.544  0.00  0.00    +0.152 HD
BRANCH   5   9
ATOM      9  O   UNL     1       8.450  -1.905  34.803  0.00  0.00    -0.444 OA
BRANCH   9  10
ATOM     10  C   UNL     1       7.186  -1.764  34.149  0.00  0.00    +0.292 C 
BRANCH  10  12
ATOM     11  N   UNL     1       7.940  -3.302  32.363  0.00  0.00    -0.131 NA
ATOM     12  C   UNL     1       7.298  -2.156  32.731  0.00  0.00    +0.121 A 
ATOM     13  C   UNL     1       6.822  -1.527  31.603  0.00  0.00    +0.143 A 
ATOM     14  N   UNL     1       7.177  -2.351  30.560  0.00  0.00    -0.220 N 
ATOM     15  N   UNL     1       7.869  -3.411  31.044  0.00  0.00    -0.060 NA
BRANCH  14  16
ATOM     16  C   UNL     1       6.883  -2.211  29.178  0.00  0.00    +0.067 A 
ATOM     17  C   UNL     1       5.655  -1.685  28.753  0.00  0.00    +0.029 A 
ATOM     18  C   UNL     1       5.367  -1.593  27.387  0.00  0.00    +0.017 A 
ATOM     19  C   UNL     1       6.304  -2.020  26.448  0.00  0.00    +0.018 A 
ATOM     20 BR   UNL     1       5.896  -1.917  24.605  0.00  0.00    -0.050 Br
ATOM     21  C   UNL     1       7.533  -2.530  26.859  0.00  0.00    +0.017 A 
ATOM     22  C   UNL     1       7.826  -2.623  28.222  0.00  0.00    +0.029 A 
ENDBRANCH  14  16
ENDBRANCH  10  12
ENDBRANCH   9  10
ENDBRANCH   5   9
ENDBRANCH   4   7
ENDBRANCH   1   4
BRANCH   1  23
ATOM     23  C   UNL     1       7.887   3.965  34.049  0.00  0.00    +0.175 C 
BRANCH  23  24
ATOM     24  C   UNL     1       6.487   3.747  34.640  0.00  0.00    +0.176 C 
ATOM     25  O   UNL     1       5.716   2.964  33.687  0.00  0.00    -0.332 OA
ATOM     26  C   UNL     1       4.377   2.566  34.130  0.00  0.00    +0.277 C 
ATOM     27  C   UNL     1       3.561   3.807  34.570  0.00  0.00    +0.110 C 
ATOM     28  C   UNL     1       4.353   4.687  35.560  0.00  0.00    +0.143 C 
ATOM     29  C   UNL     1       5.731   5.040  35.000  0.00  0.00    +0.133 C 
BRANCH  29  30
ATOM     30  N   UNL     1       6.508   5.805  35.987  0.00  0.00    -0.308 N 
ATOM     31  H   UNL     1       6.663   5.386  36.893  0.00  0.00    +0.149 HD
ATOM     32  C   UNL     1       7.023   7.018  35.764  0.00  0.00    +0.210 C 
ATOM     33  C   UNL     1       6.747   7.640  34.383  0.00  0.00    +0.109 C 
ATOM     34  O   UNL     1       7.682   7.629  36.605  0.00  0.00    -0.276 OA
ENDBRANCH  29  30
BRANCH  26  35
ATOM     35  C   UNL     1       4.463   1.565  35.301  0.00  0.00    +0.414 C 
ATOM     36  O   UNL     1       5.460   0.857  35.439  0.00  0.00    -0.240 OA
ATOM     37  O   UNL     1       3.537   1.465  36.106  0.00  0.00    -0.240 OA
ENDBRANCH  26  35
BRANCH  28  38
ATOM     38  O   UNL     1       3.629   5.890  35.820  0.00  0.00    -0.390 OA
ATOM     39  H   UNL     1       2.864   5.693  36.366  0.00  0.00    +0.210 HD
ENDBRANCH  28  38
BRANCH  26  40
ATOM     40  O   UNL     1       3.698   1.947  33.007  0.00  0.00    -0.343 OA
ATOM     41  C   UNL     1       4.532   1.704  31.846  0.00  0.00    +0.198 C 
ENDBRANCH  26  40
ENDBRANCH  23  24
BRANCH  23  42
ATOM     42  O   UNL     1       7.793   4.664  32.791  0.00  0.00    -0.387 OA
ATOM     43  H   UNL     1       8.439   5.373  32.770  0.00  0.00    +0.210 HD
ENDBRANCH  23  42
ENDBRANCH   1  23
TORSDOF 14
