REMARK VINA RESULT:    -7.140      1.559      2.384
REMARK INTER + INTRA:         -13.560
REMARK INTER:                 -11.754
REMARK INTRA:                  -1.805
REMARK UNBOUND:                -1.202
REMARK  Name = lig_assembled_40.pdb
REMARK  17 active torsions:
REMARK  status: ('A' for Active; 'I' for Inactive)
REMARK    1  A    between atoms: _2  and  _9
REMARK    2  A    between atoms: _4  and  _19
REMARK    3  A    between atoms: _6  and  _7
REMARK    4  A    between atoms: _6  and  _19
REMARK    5  A    between atoms: _12  and  _13
REMARK    6  A    between atoms: _15  and  _35
REMARK    7  A    between atoms: _17  and  _23
REMARK    8  A    between atoms: _18  and  _22
REMARK    9  A    between atoms: _22  and  _23
REMARK   10  A    between atoms: _25  and  _26
REMARK   11  A    between atoms: _27  and  _28
REMARK   12  A    between atoms: _29  and  _31
REMARK   13  A    between atoms: _31  and  _32
REMARK   14  A    between atoms: _31  and  _33
REMARK   15  A    between atoms: _33  and  _34
REMARK   16  A    between atoms: _33  and  _35
REMARK   17  A    between atoms: _36  and  _38
REMARK                            x       y       z     vdW  Elec       q    Type
REMARK                         _______ _______ _______ _____ _____    ______ ____
ROOT
ATOM      1  C   UNL     1       3.170   3.303  32.830  0.00  0.00    +0.163 C 
ENDROOT
BRANCH   1   2
ATOM      2  O   UNL     1       3.431   4.625  32.331  0.00  0.00    -0.388 OA
ATOM      3  H   UNL     1       2.878   4.794  31.564  0.00  0.00    +0.210 HD
ENDBRANCH   1   2
BRANCH   1   4
ATOM      4  C   UNL     1       1.678   2.998  32.743  0.00  0.00    +0.141 C 
BRANCH   4   7
ATOM      5  C   UNL     1       0.818   3.950  30.631  0.00  0.00    +0.401 C 
ATOM      6  O   UNL     1       0.780   5.107  31.058  0.00  0.00    -0.226 OA
ATOM      7  N   UNL     1       1.218   2.902  31.352  0.00  0.00    -0.279 N 
ATOM      8  H   UNL     1       1.205   1.991  30.917  0.00  0.00    +0.152 HD
BRANCH   5   9
ATOM      9  O   UNL     1       0.408   3.693  29.286  0.00  0.00    -0.444 OA
BRANCH   9  10
ATOM     10  C   UNL     1       1.251   2.689  28.713  0.00  0.00    +0.292 C 
BRANCH  10  12
ATOM     11  N   UNL     1       2.516   4.000  27.039  0.00  0.00    -0.131 NA
ATOM     12  C   UNL     1       1.592   3.037  27.321  0.00  0.00    +0.121 A 
ATOM     13  C   UNL     1       1.116   2.511  26.144  0.00  0.00    +0.143 A 
ATOM     14  N   UNL     1       1.809   3.169  25.152  0.00  0.00    -0.220 N 
ATOM     15  N   UNL     1       2.637   4.082  25.720  0.00  0.00    -0.060 NA
BRANCH  14  16
ATOM     16  C   UNL     1       1.761   2.958  23.750  0.00  0.00    +0.067 A 
ATOM     17  C   UNL     1       1.668   1.665  23.222  0.00  0.00    +0.028 A 
ATOM     18  C   UNL     1       1.692   1.468  21.838  0.00  0.00    +0.005 A 
ATOM     19  C   UNL     1       1.810   2.555  20.966  0.00  0.00    -0.050 A 
ATOM     20  C   UNL     1       1.866   3.849  21.495  0.00  0.00    +0.005 A 
ATOM     21  C   UNL     1       1.883   2.343  19.483  0.00  0.00    +0.044 C 
ATOM     22  C   UNL     1       1.842   4.054  22.878  0.00  0.00    +0.028 A 
ENDBRANCH  14  16
ENDBRANCH  10  12
ENDBRANCH   9  10
ENDBRANCH   5   9
ENDBRANCH   4   7
ENDBRANCH   1   4
BRANCH   1  23
ATOM     23  C   UNL     1       3.639   3.162  34.288  0.00  0.00    +0.175 C 
BRANCH  23  24
ATOM     24  C   UNL     1       5.167   3.255  34.414  0.00  0.00    +0.176 C 
ATOM     25  O   UNL     1       5.551   4.640  34.197  0.00  0.00    -0.332 OA
ATOM     26  C   UNL     1       6.973   4.941  34.384  0.00  0.00    +0.277 C 
ATOM     27  C   UNL     1       7.843   4.012  33.502  0.00  0.00    +0.110 C 
ATOM     28  C   UNL     1       7.451   2.530  33.675  0.00  0.00    +0.143 C 
ATOM     29  C   UNL     1       5.950   2.332  33.462  0.00  0.00    +0.133 C 
BRANCH  29  30
ATOM     30  N   UNL     1       5.574   0.932  33.715  0.00  0.00    -0.308 N 
ATOM     31  H   UNL     1       5.651   0.586  34.661  0.00  0.00    +0.149 HD
ATOM     32  C   UNL     1       5.137   0.088  32.776  0.00  0.00    +0.210 C 
ATOM     33  C   UNL     1       5.055   0.638  31.339  0.00  0.00    +0.109 C 
ATOM     34  O   UNL     1       4.815  -1.075  33.019  0.00  0.00    -0.276 OA
ENDBRANCH  29  30
BRANCH  26  35
ATOM     35  C   UNL     1       7.377   4.774  35.864  0.00  0.00    +0.414 C 
ATOM     36  O   UNL     1       6.515   4.711  36.739  0.00  0.00    -0.240 OA
ATOM     37  O   UNL     1       8.565   4.702  36.182  0.00  0.00    -0.240 OA
ENDBRANCH  26  35
BRANCH  28  38
ATOM     38  O   UNL     1       8.170   1.729  32.737  0.00  0.00    -0.390 OA
ATOM     39  H   UNL     1       8.166   2.158  31.879  0.00  0.00    +0.210 HD
ENDBRANCH  28  38
BRANCH  26  40
ATOM     40  O   UNL     1       7.201   6.312  33.968  0.00  0.00    -0.343 OA
ATOM     41  C   UNL     1       6.231   7.271  34.461  0.00  0.00    +0.198 C 
ENDBRANCH  26  40
ENDBRANCH  23  24
BRANCH  23  42
ATOM     42  O   UNL     1       3.169   1.918  34.843  0.00  0.00    -0.387 OA
ATOM     43  H   UNL     1       3.716   1.197  34.522  0.00  0.00    +0.210 HD
ENDBRANCH  23  42
ENDBRANCH   1  23
TORSDOF 14
