REMARK VINA RESULT:    -6.218      4.223      6.476
REMARK INTER + INTRA:         -13.722
REMARK INTER:                 -11.036
REMARK INTRA:                  -2.686
REMARK UNBOUND:                -2.597
REMARK  Name = lig_assembled_89.pdb
REMARK  19 active torsions:
REMARK  status: ('A' for Active; 'I' for Inactive)
REMARK    1  A    between atoms: _2  and  _12
REMARK    2  A    between atoms: _5  and  _20
REMARK    3  A    between atoms: _7  and  _29
REMARK    4  A    between atoms: _9  and  _10
REMARK    5  A    between atoms: _9  and  _29
REMARK    6  A    between atoms: _20  and  _21
REMARK    7  A    between atoms: _20  and  _22
REMARK    8  A    between atoms: _25  and  _45
REMARK    9  A    between atoms: _27  and  _33
REMARK   10  A    between atoms: _28  and  _32
REMARK   11  A    between atoms: _32  and  _33
REMARK   12  A    between atoms: _35  and  _36
REMARK   13  A    between atoms: _37  and  _38
REMARK   14  A    between atoms: _39  and  _41
REMARK   15  A    between atoms: _41  and  _42
REMARK   16  A    between atoms: _41  and  _43
REMARK   17  A    between atoms: _43  and  _44
REMARK   18  A    between atoms: _43  and  _45
REMARK   19  A    between atoms: _46  and  _48
REMARK                            x       y       z     vdW  Elec       q    Type
REMARK                         _______ _______ _______ _____ _____    ______ ____
ROOT
ATOM      1  C   UNL     1       6.018   0.693  36.191  0.00  0.00    +0.401 C 
ATOM      2  O   UNL     1       6.679   1.249  37.071  0.00  0.00    -0.226 OA
ATOM      3  N   UNL     1       5.364   1.343  35.227  0.00  0.00    -0.279 N 
ATOM      4  H   UNL     1       4.856   0.798  34.544  0.00  0.00    +0.152 HD
ENDROOT
BRANCH   3   5
ATOM      5  C   UNL     1       5.340   2.805  35.102  0.00  0.00    +0.141 C 
BRANCH   5   6
ATOM      6  C   UNL     1       5.967   3.274  33.793  0.00  0.00    +0.163 C 
BRANCH   6   7
ATOM      7  O   UNL     1       5.274   4.434  33.304  0.00  0.00    -0.388 OA
ATOM      8  H   UNL     1       5.801   4.859  32.623  0.00  0.00    +0.210 HD
ENDBRANCH   6   7
BRANCH   6   9
ATOM      9  C   UNL     1       7.458   3.578  34.017  0.00  0.00    +0.175 C 
BRANCH   9  10
ATOM     10  C   UNL     1       7.703   4.334  35.331  0.00  0.00    +0.176 C 
ATOM     11  O   UNL     1       7.605   5.758  35.053  0.00  0.00    -0.332 OA
ATOM     12  C   UNL     1       7.707   6.640  36.219  0.00  0.00    +0.277 C 
ATOM     13  C   UNL     1       9.009   6.349  37.006  0.00  0.00    +0.110 C 
ATOM     14  C   UNL     1       9.173   4.842  37.298  0.00  0.00    +0.143 C 
ATOM     15  C   UNL     1       9.046   4.018  36.016  0.00  0.00    +0.133 C 
BRANCH  15  16
ATOM     16  N   UNL     1       9.117   2.580  36.319  0.00  0.00    -0.308 N 
ATOM     17  H   UNL     1       8.365   2.174  36.858  0.00  0.00    +0.149 HD
ATOM     18  C   UNL     1      10.110   1.777  35.928  0.00  0.00    +0.210 C 
ATOM     19  C   UNL     1      11.254   2.432  35.130  0.00  0.00    +0.109 C 
ATOM     20  O   UNL     1      10.136   0.573  36.183  0.00  0.00    -0.276 OA
ENDBRANCH  15  16
BRANCH  12  21
ATOM     21  C   UNL     1       6.490   6.459  37.151  0.00  0.00    +0.414 C 
ATOM     22  O   UNL     1       6.617   6.587  38.368  0.00  0.00    -0.240 OA
ATOM     23  O   UNL     1       5.383   6.185  36.685  0.00  0.00    -0.240 OA
ENDBRANCH  12  21
BRANCH  14  24
ATOM     24  O   UNL     1      10.451   4.602  37.887  0.00  0.00    -0.390 OA
ATOM     25  H   UNL     1      11.017   5.366  37.749  0.00  0.00    +0.210 HD
ENDBRANCH  14  24
BRANCH  12  26
ATOM     26  O   UNL     1       7.757   8.010  35.743  0.00  0.00    -0.343 OA
ATOM     27  C   UNL     1       7.548   8.170  34.317  0.00  0.00    +0.198 C 
ENDBRANCH  12  26
ENDBRANCH   9  10
BRANCH   9  28
ATOM     28  O   UNL     1       7.984   4.331  32.906  0.00  0.00    -0.387 OA
ATOM     29  H   UNL     1       7.731   3.906  32.083  0.00  0.00    +0.210 HD
ENDBRANCH   9  28
ENDBRANCH   6   9
ENDBRANCH   5   6
ENDBRANCH   3   5
BRANCH   1  30
ATOM     30  O   UNL     1       5.936  -0.734  36.182  0.00  0.00    -0.444 OA
BRANCH  30  31
ATOM     31  C   UNL     1       7.127  -1.278  35.607  0.00  0.00    +0.292 C 
BRANCH  31  33
ATOM     32  N   UNL     1       7.885   0.033  33.661  0.00  0.00    -0.131 NA
ATOM     33  C   UNL     1       7.162  -1.011  34.159  0.00  0.00    +0.121 A 
ATOM     34  C   UNL     1       6.570  -1.683  33.118  0.00  0.00    +0.145 A 
ATOM     35  N   UNL     1       6.984  -1.021  31.977  0.00  0.00    -0.199 N 
ATOM     36  N   UNL     1       7.777   0.013  32.339  0.00  0.00    -0.059 NA
BRANCH  35  37
ATOM     37  C   UNL     1       6.707  -1.420  30.636  0.00  0.00    +0.186 A 
ATOM     38  C   UNL     1       5.573  -1.225  29.874  0.00  0.00    +0.158 A 
ATOM     39  C   UNL     1       4.276  -0.696  30.165  0.00  0.00    +0.280 A 
ATOM     40  O   UNL     1       3.838  -0.625  31.305  0.00  0.00    -0.265 OA
ATOM     41  N   UNL     1       3.525  -0.295  29.042  0.00  0.00    -0.302 N 
ATOM     42  C   UNL     1       3.848  -0.811  27.730  0.00  0.00    +0.069 A 
ATOM     43  C   UNL     1       2.988  -0.677  26.630  0.00  0.00    +0.028 A 
ATOM     44  C   UNL     1       3.310  -1.234  25.385  0.00  0.00    +0.002 A 
ATOM     45  C   UNL     1       4.501  -1.928  25.207  0.00  0.00    +0.002 A 
ATOM     46  C   UNL     1       5.384  -2.069  26.274  0.00  0.00    +0.028 A 
ATOM     47  C   UNL     1       5.050  -1.521  27.521  0.00  0.00    +0.072 A 
ATOM     48  N   UNL     1       5.915  -1.653  28.619  0.00  0.00    -0.291 N 
ATOM     49  C   UNL     1       7.176  -2.186  28.698  0.00  0.00    +0.207 A 
ATOM     50  N   UNL     1       7.692  -2.052  29.901  0.00  0.00    -0.216 NA
BRANCH  41  51
ATOM     51  C   UNL     1       2.291   0.490  29.278  0.00  0.00    +0.085 C 
ATOM     52  C   UNL     1       2.529   1.803  30.050  0.00  0.00    +0.030 C 
ATOM     53  C   UNL     1       1.208  -0.344  29.962  0.00  0.00    +0.030 C 
ENDBRANCH  41  51
ENDBRANCH  35  37
ENDBRANCH  31  33
ENDBRANCH  30  31
ENDBRANCH   1  30
TORSDOF 15
