REMARK VINA RESULT:    -5.832     14.448     18.223
REMARK INTER + INTRA:         -13.870
REMARK INTER:                 -11.742
REMARK INTRA:                  -2.128
REMARK UNBOUND:                -2.754
REMARK  Name = lig_assembled_12.pdb
REMARK  19 active torsions:
REMARK  status: ('A' for Active; 'I' for Inactive)
REMARK    1  A    between atoms: _2  and  _9
REMARK    2  A    between atoms: _4  and  _21
REMARK    3  A    between atoms: _6  and  _7
REMARK    4  A    between atoms: _6  and  _21
REMARK    5  A    between atoms: _9  and  _16
REMARK    6  A    between atoms: _10  and  _11
REMARK    7  A    between atoms: _10  and  _16
REMARK    8  A    between atoms: _17  and  _37
REMARK    9  A    between atoms: _19  and  _25
REMARK   10  A    between atoms: _20  and  _24
REMARK   11  A    between atoms: _24  and  _25
REMARK   12  A    between atoms: _27  and  _28
REMARK   13  A    between atoms: _29  and  _30
REMARK   14  A    between atoms: _31  and  _33
REMARK   15  A    between atoms: _33  and  _34
REMARK   16  A    between atoms: _33  and  _35
REMARK   17  A    between atoms: _35  and  _36
REMARK   18  A    between atoms: _35  and  _37
REMARK   19  A    between atoms: _38  and  _40
REMARK                            x       y       z     vdW  Elec       q    Type
REMARK                         _______ _______ _______ _____ _____    ______ ____
ROOT
ATOM      1  C   UNL     1      17.082   2.478  22.920  0.00  0.00    +0.163 C 
ENDROOT
BRANCH   1   2
ATOM      2  O   UNL     1      17.746   1.667  21.937  0.00  0.00    -0.388 OA
ATOM      3  H   UNL     1      17.097   1.140  21.465  0.00  0.00    +0.210 HD
ENDBRANCH   1   2
BRANCH   1   4
ATOM      4  C   UNL     1      17.450   2.027  24.344  0.00  0.00    +0.175 C 
BRANCH   4   5
ATOM      5  C   UNL     1      17.871   0.551  24.393  0.00  0.00    +0.176 C 
ATOM      6  O   UNL     1      16.710  -0.256  24.053  0.00  0.00    -0.332 OA
ATOM      7  C   UNL     1      16.950  -1.698  23.945  0.00  0.00    +0.277 C 
ATOM      8  C   UNL     1      17.601  -2.237  25.243  0.00  0.00    +0.110 C 
ATOM      9  C   UNL     1      18.821  -1.391  25.662  0.00  0.00    +0.143 C 
ATOM     10  C   UNL     1      18.460   0.093  25.740  0.00  0.00    +0.133 C 
BRANCH  10  11
ATOM     11  N   UNL     1      19.650   0.897  26.055  0.00  0.00    -0.308 N 
ATOM     12  H   UNL     1      20.443   0.831  25.432  0.00  0.00    +0.149 HD
ATOM     13  C   UNL     1      19.752   1.710  27.111  0.00  0.00    +0.210 C 
ATOM     14  C   UNL     1      18.537   1.769  28.055  0.00  0.00    +0.109 C 
ATOM     15  O   UNL     1      20.757   2.383  27.342  0.00  0.00    -0.276 OA
ENDBRANCH  10  11
BRANCH   7  16
ATOM     16  C   UNL     1      17.864  -2.012  22.742  0.00  0.00    +0.414 C 
ATOM     17  O   UNL     1      18.405  -3.113  22.644  0.00  0.00    -0.240 OA
ATOM     18  O   UNL     1      18.060  -1.165  21.869  0.00  0.00    -0.240 OA
ENDBRANCH   7  16
BRANCH   9  19
ATOM     19  O   UNL     1      19.295  -1.828  26.936  0.00  0.00    -0.390 OA
ATOM     20  H   UNL     1      18.733  -1.470  27.627  0.00  0.00    +0.210 HD
ENDBRANCH   9  19
BRANCH   7  21
ATOM     21  O   UNL     1      15.669  -2.355  23.769  0.00  0.00    -0.343 OA
ATOM     22  C   UNL     1      15.495  -3.574  24.534  0.00  0.00    +0.198 C 
ENDBRANCH   7  21
ENDBRANCH   4   5
BRANCH   4  23
ATOM     23  O   UNL     1      16.344   2.258  25.240  0.00  0.00    -0.387 OA
ATOM     24  H   UNL     1      15.535   2.353  24.732  0.00  0.00    +0.210 HD
ENDBRANCH   4  23
ENDBRANCH   1   4
BRANCH   1  25
ATOM     25  C   UNL     1      17.465   3.942  22.734  0.00  0.00    +0.141 C 
BRANCH  25  28
ATOM     26  C   UNL     1      18.580   5.742  24.010  0.00  0.00    +0.401 C 
ATOM     27  O   UNL     1      18.409   6.595  23.136  0.00  0.00    -0.226 OA
ATOM     28  N   UNL     1      18.176   4.475  23.903  0.00  0.00    -0.279 N 
ATOM     29  H   UNL     1      18.371   3.846  24.670  0.00  0.00    +0.152 HD
BRANCH  26  30
ATOM     30  O   UNL     1      19.252   6.108  25.217  0.00  0.00    -0.444 OA
BRANCH  30  31
ATOM     31  C   UNL     1      19.647   7.481  25.146  0.00  0.00    +0.292 C 
BRANCH  31  33
ATOM     32  N   UNL     1      19.242   7.443  27.592  0.00  0.00    -0.131 NA
ATOM     33  C   UNL     1      19.393   8.157  26.431  0.00  0.00    +0.120 A 
ATOM     34  C   UNL     1      19.266   9.498  26.709  0.00  0.00    +0.139 A 
ATOM     35  N   UNL     1      19.010   9.535  28.048  0.00  0.00    -0.226 N 
ATOM     36  N   UNL     1      19.019   8.299  28.581  0.00  0.00    -0.063 NA
BRANCH  35  37
ATOM     37  C   UNL     1      18.796  10.694  28.898  0.00  0.00    +0.305 C 
BRANCH  37  38
ATOM     38  O   UNL     1      17.744  10.412  29.818  0.00  0.00    -0.353 OA
BRANCH  38  39
ATOM     39  C   UNL     1      18.193  10.474  31.165  0.00  0.00    +0.197 C 
BRANCH  39  40
ATOM     40  C   UNL     1      17.199   9.721  32.008  0.00  0.00    -0.022 A 
ATOM     41  C   UNL     1      16.300  10.408  32.835  0.00  0.00    +0.006 A 
ATOM     42  C   UNL     1      15.405   9.708  33.645  0.00  0.00    +0.000 A 
ATOM     43  C   UNL     1      15.406   8.315  33.644  0.00  0.00    +0.000 A 
ATOM     44  C   UNL     1      16.302   7.619  32.835  0.00  0.00    +0.000 A 
ATOM     45  C   UNL     1      17.198   8.318  32.023  0.00  0.00    +0.006 A 
ENDBRANCH  39  40
ENDBRANCH  38  39
ENDBRANCH  37  38
ENDBRANCH  35  37
ENDBRANCH  31  33
ENDBRANCH  30  31
ENDBRANCH  26  30
ENDBRANCH  25  28
ENDBRANCH   1  25
TORSDOF 17
