REMARK VINA RESULT:    -6.739      1.719      3.633
REMARK INTER + INTRA:         -15.883
REMARK INTER:                 -13.718
REMARK INTRA:                  -2.165
REMARK UNBOUND:                -2.643
REMARK  Name = lig_assembled_37.pdb
REMARK  21 active torsions:
REMARK  status: ('A' for Active; 'I' for Inactive)
REMARK    1  A    between atoms: _2  and  _9
REMARK    2  A    between atoms: _4  and  _24
REMARK    3  A    between atoms: _6  and  _7
REMARK    4  A    between atoms: _6  and  _24
REMARK    5  A    between atoms: _9  and  _10
REMARK    6  A    between atoms: _9  and  _11
REMARK    7  A    between atoms: _11  and  _18
REMARK    8  A    between atoms: _12  and  _13
REMARK    9  A    between atoms: _12  and  _18
REMARK   10  A    between atoms: _20  and  _40
REMARK   11  A    between atoms: _22  and  _28
REMARK   12  A    between atoms: _23  and  _27
REMARK   13  A    between atoms: _27  and  _28
REMARK   14  A    between atoms: _30  and  _31
REMARK   15  A    between atoms: _32  and  _33
REMARK   16  A    between atoms: _34  and  _36
REMARK   17  A    between atoms: _36  and  _37
REMARK   18  A    between atoms: _36  and  _38
REMARK   19  A    between atoms: _38  and  _39
REMARK   20  A    between atoms: _38  and  _40
REMARK   21  A    between atoms: _41  and  _43
REMARK                            x       y       z     vdW  Elec       q    Type
REMARK                         _______ _______ _______ _____ _____    ______ ____
ROOT
ATOM      1  C   UNL     1       5.044   3.941  33.265  0.00  0.00    +0.141 C 
ENDROOT
BRANCH   1   4
ATOM      2  C   UNL     1       3.275   3.287  31.669  0.00  0.00    +0.401 C 
ATOM      3  O   UNL     1       2.407   3.984  32.199  0.00  0.00    -0.226 OA
ATOM      4  N   UNL     1       4.532   3.202  32.105  0.00  0.00    -0.279 N 
ATOM      5  H   UNL     1       5.169   2.595  31.608  0.00  0.00    +0.152 HD
BRANCH   2   6
ATOM      6  O   UNL     1       2.933   2.510  30.518  0.00  0.00    -0.444 OA
BRANCH   6   7
ATOM      7  C   UNL     1       1.575   2.767  30.154  0.00  0.00    +0.292 C 
BRANCH   7   9
ATOM      8  N   UNL     1       2.535   3.762  28.096  0.00  0.00    -0.131 NA
ATOM      9  C   UNL     1       1.486   3.151  28.732  0.00  0.00    +0.120 A 
ATOM     10  C   UNL     1       0.450   2.991  27.840  0.00  0.00    +0.138 A 
ATOM     11  N   UNL     1       0.916   3.550  26.687  0.00  0.00    -0.238 N 
ATOM     12  N   UNL     1       2.177   3.995  26.841  0.00  0.00    -0.065 NA
BRANCH  11  13
ATOM     13  C   UNL     1       0.277   3.646  25.389  0.00  0.00    +0.214 C 
ATOM     14  C   UNL     1      -0.801   2.576  25.216  0.00  0.00    +0.045 C 
BRANCH  13  15
ATOM     15  C   UNL     1      -0.311   5.022  25.170  0.00  0.00    +0.332 C 
ATOM     16  O   UNL     1      -1.047   5.589  25.970  0.00  0.00    -0.248 OA
BRANCH  15  17
ATOM     17  O   UNL     1       0.081   5.539  23.975  0.00  0.00    -0.458 OA
BRANCH  17  18
ATOM     18  C   UNL     1       1.274   4.978  23.405  0.00  0.00    +0.267 C 
BRANCH  18  19
ATOM     19  C   UNL     1       1.039   4.630  21.958  0.00  0.00    -0.010 A 
ATOM     20  C   UNL     1       1.967   3.850  21.254  0.00  0.00    +0.007 A 
ATOM     21  C   UNL     1       1.737   3.503  19.922  0.00  0.00    +0.000 A 
ATOM     22  C   UNL     1       0.579   3.935  19.278  0.00  0.00    +0.000 A 
ATOM     23  C   UNL     1      -0.348   4.716  19.964  0.00  0.00    +0.000 A 
ATOM     24  C   UNL     1      -0.119   5.065  21.297  0.00  0.00    +0.007 A 
ENDBRANCH  18  19
ENDBRANCH  17  18
ENDBRANCH  15  17
ENDBRANCH  13  15
ENDBRANCH  11  13
ENDBRANCH   7   9
ENDBRANCH   6   7
ENDBRANCH   2   6
ENDBRANCH   1   4
BRANCH   1  25
ATOM     25  C   UNL     1       6.053   3.121  34.063  0.00  0.00    +0.163 C 
BRANCH  25  26
ATOM     26  O   UNL     1       5.783   1.719  33.901  0.00  0.00    -0.388 OA
ATOM     27  H   UNL     1       5.503   1.347  34.741  0.00  0.00    +0.210 HD
ENDBRANCH  25  26
BRANCH  25  28
ATOM     28  C   UNL     1       7.478   3.465  33.597  0.00  0.00    +0.175 C 
BRANCH  28  29
ATOM     29  C   UNL     1       8.426   3.721  34.777  0.00  0.00    +0.176 C 
ATOM     30  O   UNL     1       8.726   2.440  35.396  0.00  0.00    -0.332 OA
ATOM     31  C   UNL     1       9.708   2.476  36.484  0.00  0.00    +0.277 C 
ATOM     32  C   UNL     1       9.275   3.492  37.569  0.00  0.00    +0.110 C 
ATOM     33  C   UNL     1       8.915   4.861  36.956  0.00  0.00    +0.143 C 
ATOM     34  C   UNL     1       7.890   4.707  35.832  0.00  0.00    +0.133 C 
BRANCH  34  35
ATOM     35  N   UNL     1       7.620   6.007  35.198  0.00  0.00    -0.308 N 
ATOM     36  H   UNL     1       8.343   6.407  34.617  0.00  0.00    +0.149 HD
ATOM     37  C   UNL     1       6.482   6.692  35.341  0.00  0.00    +0.210 C 
ATOM     38  C   UNL     1       5.411   6.068  36.254  0.00  0.00    +0.109 C 
ATOM     39  O   UNL     1       6.278   7.772  34.786  0.00  0.00    -0.276 OA
ENDBRANCH  34  35
BRANCH  31  40
ATOM     40  C   UNL     1      11.104   2.855  35.949  0.00  0.00    +0.414 C 
ATOM     41  O   UNL     1      11.374   2.705  34.758  0.00  0.00    -0.240 OA
ATOM     42  O   UNL     1      11.960   3.312  36.708  0.00  0.00    -0.240 OA
ENDBRANCH  31  40
BRANCH  31  43
ATOM     43  O   UNL     1       9.758   1.157  37.087  0.00  0.00    -0.343 OA
ATOM     44  C   UNL     1       9.489   0.058  36.179  0.00  0.00    +0.198 C 
ENDBRANCH  31  43
BRANCH  33  45
ATOM     45  O   UNL     1       8.380   5.717  37.967  0.00  0.00    -0.390 OA
ATOM     46  H   UNL     1       8.282   6.605  37.616  0.00  0.00    +0.210 HD
ENDBRANCH  33  45
ENDBRANCH  28  29
BRANCH  28  47
ATOM     47  O   UNL     1       7.452   4.611  32.723  0.00  0.00    -0.387 OA
ATOM     48  H   UNL     1       6.675   5.142  32.914  0.00  0.00    +0.210 HD
ENDBRANCH  28  47
ENDBRANCH  25  28
ENDBRANCH   1  25
TORSDOF 18
