REMARK VINA RESULT:    -6.897     13.321     15.716
REMARK INTER + INTRA:         -15.542
REMARK INTER:                 -12.088
REMARK INTRA:                  -3.454
REMARK UNBOUND:                -2.597
REMARK  Name = lig_assembled_77.pdb
REMARK  19 active torsions:
REMARK  status: ('A' for Active; 'I' for Inactive)
REMARK    1  A    between atoms: _2  and  _10
REMARK    2  A    between atoms: _3  and  _17
REMARK    3  A    between atoms: _5  and  _27
REMARK    4  A    between atoms: _7  and  _8
REMARK    5  A    between atoms: _7  and  _27
REMARK    6  A    between atoms: _13  and  _47
REMARK    7  A    between atoms: _14  and  _47
REMARK    8  A    between atoms: _23  and  _43
REMARK    9  A    between atoms: _25  and  _31
REMARK   10  A    between atoms: _26  and  _30
REMARK   11  A    between atoms: _30  and  _31
REMARK   12  A    between atoms: _33  and  _34
REMARK   13  A    between atoms: _35  and  _36
REMARK   14  A    between atoms: _37  and  _39
REMARK   15  A    between atoms: _39  and  _40
REMARK   16  A    between atoms: _39  and  _41
REMARK   17  A    between atoms: _41  and  _42
REMARK   18  A    between atoms: _41  and  _43
REMARK   19  A    between atoms: _44  and  _46
REMARK                            x       y       z     vdW  Elec       q    Type
REMARK                         _______ _______ _______ _____ _____    ______ ____
ROOT
ATOM      1  C   UNL     1      20.513  12.227  28.714  0.00  0.00    +0.401 C 
ATOM      2  O   UNL     1      21.276  13.184  28.565  0.00  0.00    -0.226 OA
ATOM      3  N   UNL     1      20.337  11.587  29.870  0.00  0.00    -0.279 N 
ATOM      4  H   UNL     1      19.681  10.818  29.895  0.00  0.00    +0.152 HD
ENDROOT
BRANCH   3   5
ATOM      5  C   UNL     1      21.043  11.935  31.109  0.00  0.00    +0.141 C 
BRANCH   5   6
ATOM      6  C   UNL     1      20.183  11.684  32.344  0.00  0.00    +0.163 C 
BRANCH   6   7
ATOM      7  O   UNL     1      18.806  11.971  32.049  0.00  0.00    -0.388 OA
ATOM      8  H   UNL     1      18.309  12.033  32.869  0.00  0.00    +0.210 HD
ENDBRANCH   6   7
BRANCH   6   9
ATOM      9  C   UNL     1      20.355  10.226  32.803  0.00  0.00    +0.175 C 
BRANCH   9  10
ATOM     10  C   UNL     1      19.107   9.379  32.518  0.00  0.00    +0.176 C 
ATOM     11  O   UNL     1      18.361   9.250  33.760  0.00  0.00    -0.332 OA
ATOM     12  C   UNL     1      17.074   8.556  33.658  0.00  0.00    +0.277 C 
ATOM     13  C   UNL     1      17.261   7.161  33.012  0.00  0.00    +0.110 C 
ATOM     14  C   UNL     1      18.076   7.243  31.704  0.00  0.00    +0.143 C 
ATOM     15  C   UNL     1      19.394   7.987  31.925  0.00  0.00    +0.133 C 
BRANCH  15  16
ATOM     16  N   UNL     1      20.121   8.135  30.654  0.00  0.00    -0.308 N 
ATOM     17  H   UNL     1      19.669   8.647  29.909  0.00  0.00    +0.149 HD
ATOM     18  C   UNL     1      21.338   7.638  30.422  0.00  0.00    +0.210 C 
ATOM     19  C   UNL     1      21.989   6.841  31.568  0.00  0.00    +0.109 C 
ATOM     20  O   UNL     1      21.930   7.790  29.352  0.00  0.00    -0.276 OA
ENDBRANCH  15  16
BRANCH  12  21
ATOM     21  C   UNL     1      16.073   9.380  32.822  0.00  0.00    +0.414 C 
ATOM     22  O   UNL     1      16.456  10.363  32.188  0.00  0.00    -0.240 OA
ATOM     23  O   UNL     1      14.883   9.063  32.781  0.00  0.00    -0.240 OA
ENDBRANCH  12  21
BRANCH  14  24
ATOM     24  O   UNL     1      18.354   5.926  31.226  0.00  0.00    -0.390 OA
ATOM     25  H   UNL     1      18.431   5.325  31.970  0.00  0.00    +0.210 HD
ENDBRANCH  14  24
BRANCH  12  26
ATOM     26  O   UNL     1      16.554   8.373  35.000  0.00  0.00    -0.343 OA
ATOM     27  C   UNL     1      16.621   7.014  35.502  0.00  0.00    +0.198 C 
ENDBRANCH  12  26
ENDBRANCH   9  10
BRANCH   9  28
ATOM     28  O   UNL     1      20.675  10.183  34.208  0.00  0.00    -0.387 OA
ATOM     29  H   UNL     1      20.148   9.504  34.636  0.00  0.00    +0.210 HD
ENDBRANCH   9  28
ENDBRANCH   6   9
ENDBRANCH   5   6
ENDBRANCH   3   5
BRANCH   1  30
ATOM     30  O   UNL     1      19.757  11.761  27.593  0.00  0.00    -0.444 OA
BRANCH  30  31
ATOM     31  C   UNL     1      20.539  10.827  26.844  0.00  0.00    +0.292 C 
BRANCH  31  33
ATOM     32  N   UNL     1      19.114   9.161  27.989  0.00  0.00    -0.131 NA
ATOM     33  C   UNL     1      19.994   9.463  26.991  0.00  0.00    +0.121 A 
ATOM     34  C   UNL     1      20.226   8.335  26.238  0.00  0.00    +0.143 A 
ATOM     35  N   UNL     1      19.448   7.357  26.815  0.00  0.00    -0.220 N 
ATOM     36  N   UNL     1      18.794   7.879  27.882  0.00  0.00    -0.060 NA
BRANCH  35  37
ATOM     37  C   UNL     1      19.244   6.016  26.394  0.00  0.00    +0.067 A 
ATOM     38  C   UNL     1      19.612   5.602  25.105  0.00  0.00    +0.030 A 
ATOM     39  C   UNL     1      19.294   4.313  24.665  0.00  0.00    +0.029 A 
ATOM     40  C   UNL     1      18.615   3.439  25.516  0.00  0.00    +0.094 A 
ATOM     41  C   UNL     1      18.325   3.809  26.833  0.00  0.00    +0.029 A 
ATOM     42  C   UNL     1      18.629   5.102  27.267  0.00  0.00    +0.030 A 
BRANCH  40  43
ATOM     43  S   UNL     1      18.149   1.822  24.931  0.00  0.00    +0.025 S 
ATOM     44  O   UNL     1      19.343   1.000  25.022  0.00  0.00    -0.164 OA
ATOM     45  O   UNL     1      16.935   1.443  25.627  0.00  0.00    -0.164 OA
BRANCH  43  46
ATOM     46  C   UNL     1      17.723   1.935  23.205  0.00  0.00    +0.094 A 
ATOM     47  C   UNL     1      16.803   2.881  22.752  0.00  0.00    +0.029 A 
ATOM     48  C   UNL     1      16.445   2.901  21.399  0.00  0.00    +0.024 A 
ATOM     49  C   UNL     1      17.030   2.016  20.483  0.00  0.00    +0.025 A 
ATOM     50  C   UNL     1      17.927   1.055  20.961  0.00  0.00    +0.024 A 
ATOM     51  C   UNL     1      18.292   1.024  22.310  0.00  0.00    +0.029 A 
BRANCH  49  52
ATOM     52  N   UNL     1      16.542   1.930  19.177  0.00  0.00    -0.358 N 
ATOM     53  H   UNL     1      15.535   1.828  19.105  0.00  0.00    +0.142 HD
ATOM     54  H   UNL     1      16.908   2.636  18.545  0.00  0.00    +0.142 HD
ENDBRANCH  49  52
ENDBRANCH  43  46
ENDBRANCH  40  43
ENDBRANCH  35  37
ENDBRANCH  31  33
ENDBRANCH  30  31
ENDBRANCH   1  30
TORSDOF 17
