REMARK VINA RESULT:    -7.048      3.147      6.211
REMARK INTER + INTRA:         -16.703
REMARK INTER:                 -12.980
REMARK INTRA:                  -3.723
REMARK UNBOUND:                -3.474
REMARK  Name = lig_assembled_34.pdb
REMARK  19 active torsions:
REMARK  status: ('A' for Active; 'I' for Inactive)
REMARK    1  A    between atoms: _2  and  _9
REMARK    2  A    between atoms: _4  and  _37
REMARK    3  A    between atoms: _6  and  _7
REMARK    4  A    between atoms: _6  and  _37
REMARK    5  A    between atoms: _11  and  _12
REMARK    6  A    between atoms: _13  and  _14
REMARK    7  A    between atoms: _18  and  _31
REMARK    8  A    between atoms: _33  and  _53
REMARK    9  A    between atoms: _35  and  _41
REMARK   10  A    between atoms: _36  and  _40
REMARK   11  A    between atoms: _40  and  _41
REMARK   12  A    between atoms: _43  and  _44
REMARK   13  A    between atoms: _45  and  _46
REMARK   14  A    between atoms: _47  and  _49
REMARK   15  A    between atoms: _49  and  _50
REMARK   16  A    between atoms: _49  and  _51
REMARK   17  A    between atoms: _51  and  _52
REMARK   18  A    between atoms: _51  and  _53
REMARK   19  A    between atoms: _54  and  _56
REMARK                            x       y       z     vdW  Elec       q    Type
REMARK                         _______ _______ _______ _____ _____    ______ ____
ROOT
ATOM      1  N   UNL     1      -1.778  21.075  15.490  0.00  0.00    -0.131 NA
ATOM      2  C   UNL     1      -0.513  21.315  15.947  0.00  0.00    +0.121 A 
ATOM      3  C   UNL     1      -0.508  21.211  17.316  0.00  0.00    +0.143 A 
ATOM      4  N   UNL     1      -1.798  20.875  17.666  0.00  0.00    -0.220 N 
ATOM      5  N   UNL     1      -2.558  20.823  16.539  0.00  0.00    -0.060 NA
ENDROOT
BRANCH   4   6
ATOM      6  C   UNL     1      -2.302  20.570  18.958  0.00  0.00    +0.068 A 
ATOM      7  C   UNL     1      -1.588  19.706  19.794  0.00  0.00    +0.038 A 
ATOM      8  C   UNL     1      -2.091  19.258  21.041  0.00  0.00    +0.007 A 
ATOM      9  C   UNL     1      -3.328  19.764  21.487  0.00  0.00    -0.008 A 
ATOM     10  C   UNL     1      -4.023  20.678  20.657  0.00  0.00    +0.011 A 
ATOM     11  C   UNL     1      -3.529  21.066  19.400  0.00  0.00    +0.028 A 
BRANCH   9  12
ATOM     12  C   UNL     1      -4.014  19.345  22.753  0.00  0.00    +0.004 A 
ATOM     13  C   UNL     1      -3.908  20.058  23.911  0.00  0.00    +0.026 A 
ATOM     14  C   UNL     1      -3.069  21.256  24.032  0.00  0.00    +0.016 A 
ATOM     15  C   UNL     1      -2.831  21.830  25.221  0.00  0.00    +0.051 A 
ATOM     16  C   UNL     1      -3.443  21.287  26.457  0.00  0.00    +0.183 A 
ATOM     17  O   UNL     1      -3.183  21.763  27.559  0.00  0.00    -0.288 OA
ATOM     18  C   UNL     1      -4.434  20.203  26.306  0.00  0.00    +0.097 A 
ATOM     19  C   UNL     1      -4.672  19.656  25.108  0.00  0.00    +0.140 A 
ATOM     20  O   UNL     1      -5.709  18.742  24.995  0.00  0.00    -0.455 OA
ATOM     21  C   UNL     1      -5.800  17.994  23.852  0.00  0.00    +0.140 A 
ATOM     22  C   UNL     1      -6.803  17.024  23.827  0.00  0.00    +0.092 A 
ATOM     23  C   UNL     1      -6.916  16.192  22.724  0.00  0.00    +0.120 A 
ATOM     24  C   UNL     1      -5.992  16.265  21.687  0.00  0.00    +0.046 A 
ATOM     25  C   UNL     1      -5.000  17.250  21.721  0.00  0.00    +0.016 A 
ATOM     26  C   UNL     1      -4.931  18.170  22.778  0.00  0.00    +0.026 A 
BRANCH  23  27
ATOM     27  O   UNL     1      -7.958  15.314  22.681  0.00  0.00    -0.507 OA
ATOM     28  H   UNL     1      -8.285  15.202  23.589  0.00  0.00    +0.292 HD
ENDBRANCH  23  27
ENDBRANCH   9  12
BRANCH   8  29
ATOM     29  C   UNL     1      -1.276  18.200  21.758  0.00  0.00    +0.072 C 
ATOM     30  O   UNL     1      -1.577  16.991  21.495  0.00  0.00    -0.545 OA
ATOM     31  O   UNL     1      -0.420  18.576  22.611  0.00  0.00    -0.545 OA
ENDBRANCH   8  29
ENDBRANCH   4   6
BRANCH   2  32
ATOM     32  C   UNL     1       0.610  21.626  15.042  0.00  0.00    +0.292 C 
BRANCH  32  33
ATOM     33  O   UNL     1       0.378  21.082  13.740  0.00  0.00    -0.444 OA
BRANCH  33  34
ATOM     34  C   UNL     1       1.616  20.642  13.178  0.00  0.00    +0.401 C 
ATOM     35  O   UNL     1       1.783  20.720  11.958  0.00  0.00    -0.226 OA
ATOM     36  N   UNL     1       2.531  20.169  14.025  0.00  0.00    -0.279 N 
ATOM     37  H   UNL     1       2.305  20.153  15.010  0.00  0.00    +0.152 HD
BRANCH  36  38
ATOM     38  C   UNL     1       3.847  19.669  13.608  0.00  0.00    +0.141 C 
BRANCH  38  39
ATOM     39  C   UNL     1       4.888  20.783  13.559  0.00  0.00    +0.163 C 
BRANCH  39  40
ATOM     40  O   UNL     1       4.758  21.523  12.333  0.00  0.00    -0.388 OA
ATOM     41  H   UNL     1       3.862  21.858  12.255  0.00  0.00    +0.210 HD
ENDBRANCH  39  40
BRANCH  39  42
ATOM     42  C   UNL     1       4.714  21.704  14.778  0.00  0.00    +0.175 C 
BRANCH  42  43
ATOM     43  C   UNL     1       4.990  23.175  14.436  0.00  0.00    +0.176 C 
ATOM     44  O   UNL     1       6.366  23.276  13.976  0.00  0.00    -0.332 OA
ATOM     45  C   UNL     1       6.780  24.600  13.501  0.00  0.00    +0.277 C 
ATOM     46  C   UNL     1       6.510  25.673  14.585  0.00  0.00    +0.110 C 
ATOM     47  C   UNL     1       5.068  25.584  15.127  0.00  0.00    +0.143 C 
ATOM     48  C   UNL     1       4.743  24.163  15.591  0.00  0.00    +0.133 C 
BRANCH  48  49
ATOM     49  N   UNL     1       3.339  24.072  16.024  0.00  0.00    -0.308 N 
ATOM     50  H   UNL     1       2.622  24.142  15.316  0.00  0.00    +0.149 HD
ATOM     51  C   UNL     1       2.952  23.901  17.291  0.00  0.00    +0.210 C 
ATOM     52  C   UNL     1       4.069  23.823  18.348  0.00  0.00    +0.109 C 
ATOM     53  O   UNL     1       1.770  23.813  17.622  0.00  0.00    -0.276 OA
ENDBRANCH  48  49
BRANCH  45  54
ATOM     54  C   UNL     1       6.031  24.976  12.206  0.00  0.00    +0.414 C 
ATOM     55  O   UNL     1       5.620  24.096  11.450  0.00  0.00    -0.240 OA
ATOM     56  O   UNL     1       5.837  26.157  11.917  0.00  0.00    -0.240 OA
ENDBRANCH  45  54
BRANCH  47  57
ATOM     57  O   UNL     1       4.909  26.485  16.224  0.00  0.00    -0.390 OA
ATOM     58  H   UNL     1       5.011  26.005  17.050  0.00  0.00    +0.210 HD
ENDBRANCH  47  57
BRANCH  45  59
ATOM     59  O   UNL     1       8.208  24.559  13.245  0.00  0.00    -0.343 OA
ATOM     60  C   UNL     1       9.033  24.323  14.413  0.00  0.00    +0.198 C 
ENDBRANCH  45  59
ENDBRANCH  42  43
BRANCH  42  61
ATOM     61  O   UNL     1       5.574  21.274  15.852  0.00  0.00    -0.387 OA
ATOM     62  H   UNL     1       5.764  22.018  16.428  0.00  0.00    +0.210 HD
ENDBRANCH  42  61
ENDBRANCH  39  42
ENDBRANCH  38  39
ENDBRANCH  36  38
ENDBRANCH  33  34
ENDBRANCH  32  33
ENDBRANCH   2  32
TORSDOF 17
