REMARK VINA RESULT:    -5.935      0.000      0.000
REMARK INTER + INTRA:         -14.694
REMARK INTER:                 -11.515
REMARK INTRA:                  -3.179
REMARK UNBOUND:                -3.380
REMARK  Name = lig_assembled_62.pdb
REMARK  20 active torsions:
REMARK  status: ('A' for Active; 'I' for Inactive)
REMARK    1  A    between atoms: _2  and  _10
REMARK    2  A    between atoms: _5  and  _19
REMARK    3  A    between atoms: _6  and  _10
REMARK    4  A    between atoms: _7  and  _8
REMARK    5  A    between atoms: _7  and  _19
REMARK    6  A    between atoms: _10  and  _11
REMARK    7  A    between atoms: _11  and  _14
REMARK    8  A    between atoms: _12  and  _14
REMARK    9  A    between atoms: _15  and  _35
REMARK   10  A    between atoms: _17  and  _23
REMARK   11  A    between atoms: _18  and  _22
REMARK   12  A    between atoms: _22  and  _23
REMARK   13  A    between atoms: _25  and  _26
REMARK   14  A    between atoms: _27  and  _28
REMARK   15  A    between atoms: _29  and  _31
REMARK   16  A    between atoms: _31  and  _32
REMARK   17  A    between atoms: _31  and  _33
REMARK   18  A    between atoms: _33  and  _34
REMARK   19  A    between atoms: _33  and  _35
REMARK   20  A    between atoms: _36  and  _38
REMARK                            x       y       z     vdW  Elec       q    Type
REMARK                         _______ _______ _______ _____ _____    ______ ____
ROOT
ATOM      1  C   UNL     1      17.749   4.041  22.576  0.00  0.00    +0.163 C 
ENDROOT
BRANCH   1   2
ATOM      2  O   UNL     1      17.097   5.248  23.006  0.00  0.00    -0.388 OA
ATOM      3  H   UNL     1      16.152   5.095  23.077  0.00  0.00    +0.210 HD
ENDBRANCH   1   2
BRANCH   1   4
ATOM      4  C   UNL     1      18.308   3.261  23.778  0.00  0.00    +0.175 C 
BRANCH   4   5
ATOM      5  C   UNL     1      18.373   4.123  25.047  0.00  0.00    +0.176 C 
ATOM      6  O   UNL     1      19.633   4.849  25.030  0.00  0.00    -0.332 OA
ATOM      7  C   UNL     1      19.826   5.810  26.120  0.00  0.00    +0.277 C 
ATOM      8  C   UNL     1      19.640   5.117  27.492  0.00  0.00    +0.110 C 
ATOM      9  C   UNL     1      18.328   4.306  27.547  0.00  0.00    +0.143 C 
ATOM     10  C   UNL     1      18.230   3.340  26.366  0.00  0.00    +0.133 C 
BRANCH  10  11
ATOM     11  N   UNL     1      16.938   2.637  26.382  0.00  0.00    -0.308 N 
ATOM     12  H   UNL     1      16.102   3.180  26.216  0.00  0.00    +0.149 HD
ATOM     13  C   UNL     1      16.797   1.327  26.601  0.00  0.00    +0.210 C 
ATOM     14  C   UNL     1      18.086   0.531  26.876  0.00  0.00    +0.109 C 
ATOM     15  O   UNL     1      15.702   0.761  26.593  0.00  0.00    -0.276 OA
ENDBRANCH  10  11
BRANCH   7  16
ATOM     16  C   UNL     1      18.832   6.984  25.996  0.00  0.00    +0.414 C 
ATOM     17  O   UNL     1      18.727   7.806  26.906  0.00  0.00    -0.240 OA
ATOM     18  O   UNL     1      18.136   7.108  24.988  0.00  0.00    -0.240 OA
ENDBRANCH   7  16
BRANCH   7  19
ATOM     19  O   UNL     1      21.185   6.311  26.042  0.00  0.00    -0.343 OA
ATOM     20  C   UNL     1      22.217   5.293  26.088  0.00  0.00    +0.198 C 
ENDBRANCH   7  19
BRANCH   9  21
ATOM     21  O   UNL     1      18.270   3.565  28.767  0.00  0.00    -0.390 OA
ATOM     22  H   UNL     1      17.383   3.219  28.890  0.00  0.00    +0.210 HD
ENDBRANCH   9  21
ENDBRANCH   4   5
BRANCH   4  23
ATOM     23  O   UNL     1      19.614   2.737  23.466  0.00  0.00    -0.387 OA
ATOM     24  H   UNL     1      20.243   3.025  24.131  0.00  0.00    +0.210 HD
ENDBRANCH   4  23
ENDBRANCH   1   4
BRANCH   1  25
ATOM     25  C   UNL     1      16.766   3.162  21.811  0.00  0.00    +0.141 C 
BRANCH  25  28
ATOM     26  C   UNL     1      17.977   1.333  20.673  0.00  0.00    +0.401 C 
ATOM     27  O   UNL     1      18.320   2.029  19.715  0.00  0.00    -0.226 OA
ATOM     28  N   UNL     1      17.244   1.779  21.694  0.00  0.00    -0.279 N 
ATOM     29  H   UNL     1      17.004   1.129  22.430  0.00  0.00    +0.152 HD
BRANCH  26  30
ATOM     30  O   UNL     1      18.373  -0.040  20.711  0.00  0.00    -0.444 OA
BRANCH  30  31
ATOM     31  C   UNL     1      18.940  -0.339  21.990  0.00  0.00    +0.292 C 
BRANCH  31  33
ATOM     32  N   UNL     1      18.211  -2.675  22.366  0.00  0.00    -0.131 NA
ATOM     33  C   UNL     1      18.125  -1.348  22.690  0.00  0.00    +0.120 A 
ATOM     34  C   UNL     1      17.207  -1.194  23.706  0.00  0.00    +0.138 A 
ATOM     35  N   UNL     1      16.759  -2.460  23.946  0.00  0.00    -0.237 N 
ATOM     36  N   UNL     1      17.373  -3.349  23.141  0.00  0.00    -0.065 NA
BRANCH  35  37
ATOM     37  C   UNL     1      15.792  -2.930  24.924  0.00  0.00    +0.219 C 
BRANCH  37  38
ATOM     38  C   UNL     1      16.326  -2.729  26.333  0.00  0.00    +0.237 C 
ATOM     39  O   UNL     1      17.478  -2.979  26.680  0.00  0.00    -0.274 OA
ATOM     40  N   UNL     1      15.455  -2.173  27.232  0.00  0.00    -0.328 N 
ATOM     41  H   UNL     1      14.524  -1.859  26.992  0.00  0.00    +0.145 HD
ATOM     42  H   UNL     1      15.787  -2.019  28.176  0.00  0.00    +0.145 HD
ENDBRANCH  37  38
BRANCH  37  43
ATOM     43  C   UNL     1      15.442  -4.395  24.676  0.00  0.00    +0.195 C 
BRANCH  43  44
ATOM     44  O   UNL     1      14.739  -4.915  25.814  0.00  0.00    -0.380 OA
ATOM     45  C   UNL     1      14.881  -6.326  25.922  0.00  0.00    +0.194 C 
ENDBRANCH  43  44
ENDBRANCH  37  43
ENDBRANCH  35  37
ENDBRANCH  31  33
ENDBRANCH  30  31
ENDBRANCH  26  30
ENDBRANCH  25  28
ENDBRANCH   1  25
TORSDOF 17
