REMARK VINA RESULT:    -6.082     15.080     17.922
REMARK INTER + INTRA:         -13.490
REMARK INTER:                 -10.522
REMARK INTRA:                  -2.967
REMARK UNBOUND:                -2.608
REMARK  Name = lig_assembled_4.pdb
REMARK  19 active torsions:
REMARK  status: ('A' for Active; 'I' for Inactive)
REMARK    1  A    between atoms: _2  and  _9
REMARK    2  A    between atoms: _4  and  _21
REMARK    3  A    between atoms: _6  and  _7
REMARK    4  A    between atoms: _6  and  _21
REMARK    5  A    between atoms: _10  and  _11
REMARK    6  A    between atoms: _11  and  _12
REMARK    7  A    between atoms: _11  and  _13
REMARK    8  A    between atoms: _17  and  _37
REMARK    9  A    between atoms: _19  and  _25
REMARK   10  A    between atoms: _20  and  _24
REMARK   11  A    between atoms: _24  and  _25
REMARK   12  A    between atoms: _27  and  _28
REMARK   13  A    between atoms: _29  and  _30
REMARK   14  A    between atoms: _31  and  _33
REMARK   15  A    between atoms: _33  and  _34
REMARK   16  A    between atoms: _33  and  _35
REMARK   17  A    between atoms: _35  and  _36
REMARK   18  A    between atoms: _35  and  _37
REMARK   19  A    between atoms: _38  and  _40
REMARK                            x       y       z     vdW  Elec       q    Type
REMARK                         _______ _______ _______ _____ _____    ______ ____
ROOT
ATOM      1  C   UNL     1      17.369   1.896  21.915  0.00  0.00    +0.163 C 
ENDROOT
BRANCH   1   2
ATOM      2  O   UNL     1      17.641   2.539  20.660  0.00  0.00    -0.388 OA
ATOM      3  H   UNL     1      18.477   2.222  20.311  0.00  0.00    +0.210 HD
ENDBRANCH   1   2
BRANCH   1   4
ATOM      4  C   UNL     1      16.837   2.913  22.919  0.00  0.00    +0.141 C 
BRANCH   4   7
ATOM      5  C   UNL     1      17.518   5.288  22.847  0.00  0.00    +0.401 C 
ATOM      6  O   UNL     1      16.455   5.675  22.355  0.00  0.00    -0.226 OA
ATOM      7  N   UNL     1      17.784   4.014  23.137  0.00  0.00    -0.279 N 
ATOM      8  H   UNL     1      18.689   3.793  23.529  0.00  0.00    +0.152 HD
BRANCH   5   9
ATOM      9  O   UNL     1      18.543   6.244  23.127  0.00  0.00    -0.444 OA
BRANCH   9  10
ATOM     10  C   UNL     1      19.578   5.625  23.895  0.00  0.00    +0.292 C 
BRANCH  10  12
ATOM     11  N   UNL     1      21.076   6.628  25.580  0.00  0.00    -0.131 NA
ATOM     12  C   UNL     1      19.813   6.367  25.147  0.00  0.00    +0.121 A 
ATOM     13  C   UNL     1      18.911   6.860  26.062  0.00  0.00    +0.143 A 
ATOM     14  N   UNL     1      19.684   7.306  27.118  0.00  0.00    -0.219 N 
ATOM     15  N   UNL     1      20.985   7.221  26.763  0.00  0.00    -0.060 NA
BRANCH  14  16
ATOM     16  C   UNL     1      19.233   7.762  28.393  0.00  0.00    +0.070 A 
ATOM     17  C   UNL     1      19.025   9.134  28.702  0.00  0.00    -0.019 A 
ATOM     18  C   UNL     1      18.607   9.449  30.015  0.00  0.00    +0.006 A 
ATOM     19  C   UNL     1      18.414   8.467  30.989  0.00  0.00    +0.000 A 
ATOM     20  C   UNL     1      18.614   7.132  30.673  0.00  0.00    +0.002 A 
ATOM     21  C   UNL     1      19.021   6.781  29.387  0.00  0.00    +0.028 A 
BRANCH  17  22
ATOM     22  C   UNL     1      19.233  10.282  27.713  0.00  0.00    +0.015 C 
ATOM     23  C   UNL     1      19.763  11.586  28.331  0.00  0.00    +0.012 C 
ATOM     24  C   UNL     1      17.933  10.559  26.954  0.00  0.00    +0.012 C 
ENDBRANCH  17  22
ENDBRANCH  14  16
ENDBRANCH  10  12
ENDBRANCH   9  10
ENDBRANCH   5   9
ENDBRANCH   4   7
ENDBRANCH   1   4
BRANCH   1  25
ATOM     25  C   UNL     1      18.637   1.232  22.479  0.00  0.00    +0.175 C 
BRANCH  25  26
ATOM     26  C   UNL     1      18.545   1.005  23.995  0.00  0.00    +0.176 C 
ATOM     27  O   UNL     1      19.522   1.871  24.637  0.00  0.00    -0.332 OA
ATOM     28  C   UNL     1      19.506   1.868  26.102  0.00  0.00    +0.277 C 
ATOM     29  C   UNL     1      19.652   0.424  26.642  0.00  0.00    +0.110 C 
ATOM     30  C   UNL     1      18.655  -0.540  25.966  0.00  0.00    +0.143 C 
ATOM     31  C   UNL     1      18.754  -0.453  24.443  0.00  0.00    +0.133 C 
BRANCH  31  32
ATOM     32  N   UNL     1      17.740  -1.311  23.811  0.00  0.00    -0.308 N 
ATOM     33  H   UNL     1      16.768  -1.092  23.974  0.00  0.00    +0.149 HD
ATOM     34  C   UNL     1      18.021  -2.362  23.035  0.00  0.00    +0.210 C 
ATOM     35  C   UNL     1      19.512  -2.686  22.826  0.00  0.00    +0.109 C 
ATOM     36  O   UNL     1      17.150  -3.055  22.506  0.00  0.00    -0.276 OA
ENDBRANCH  31  32
BRANCH  28  37
ATOM     37  C   UNL     1      18.198   2.488  26.637  0.00  0.00    +0.414 C 
ATOM     38  O   UNL     1      17.533   1.897  27.486  0.00  0.00    -0.240 OA
ATOM     39  O   UNL     1      17.808   3.579  26.219  0.00  0.00    -0.240 OA
ENDBRANCH  28  37
BRANCH  30  40
ATOM     40  O   UNL     1      18.925  -1.880  26.380  0.00  0.00    -0.390 OA
ATOM     41  H   UNL     1      18.617  -2.492  25.707  0.00  0.00    +0.210 HD
ENDBRANCH  30  40
BRANCH  28  42
ATOM     42  O   UNL     1      20.640   2.646  26.565  0.00  0.00    -0.343 OA
ATOM     43  C   UNL     1      21.741   2.741  25.627  0.00  0.00    +0.198 C 
ENDBRANCH  28  42
ENDBRANCH  25  26
BRANCH  25  44
ATOM     44  O   UNL     1      19.796   2.029  22.165  0.00  0.00    -0.387 OA
ATOM     45  H   UNL     1      19.561   2.692  21.512  0.00  0.00    +0.210 HD
ENDBRANCH  25  44
ENDBRANCH   1  25
TORSDOF 15
