REMARK VINA RESULT:    -6.144      2.231      4.467
REMARK INTER + INTRA:         -13.003
REMARK INTER:                 -11.542
REMARK INTRA:                  -1.460
REMARK UNBOUND:                -2.370
REMARK  Name = lig_assembled_87.pdb
REMARK  17 active torsions:
REMARK  status: ('A' for Active; 'I' for Inactive)
REMARK    1  A    between atoms: _2  and  _10
REMARK    2  A    between atoms: _3  and  _13
REMARK    3  A    between atoms: _5  and  _21
REMARK    4  A    between atoms: _7  and  _8
REMARK    5  A    between atoms: _7  and  _21
REMARK    6  A    between atoms: _17  and  _37
REMARK    7  A    between atoms: _19  and  _25
REMARK    8  A    between atoms: _20  and  _24
REMARK    9  A    between atoms: _24  and  _25
REMARK   10  A    between atoms: _27  and  _28
REMARK   11  A    between atoms: _29  and  _30
REMARK   12  A    between atoms: _31  and  _33
REMARK   13  A    between atoms: _33  and  _34
REMARK   14  A    between atoms: _33  and  _35
REMARK   15  A    between atoms: _35  and  _36
REMARK   16  A    between atoms: _35  and  _37
REMARK   17  A    between atoms: _38  and  _40
REMARK                            x       y       z     vdW  Elec       q    Type
REMARK                         _______ _______ _______ _____ _____    ______ ____
ROOT
ATOM      1  C   UNL     1       6.455   2.825  32.728  0.00  0.00    +0.163 C 
ENDROOT
BRANCH   1   2
ATOM      2  O   UNL     1       6.431   3.239  31.352  0.00  0.00    -0.388 OA
ATOM      3  H   UNL     1       5.729   3.881  31.223  0.00  0.00    +0.210 HD
ENDBRANCH   1   2
BRANCH   1   4
ATOM      4  C   UNL     1       5.069   2.983  33.344  0.00  0.00    +0.141 C 
BRANCH   4   7
ATOM      5  C   UNL     1       2.875   3.054  32.211  0.00  0.00    +0.401 C 
ATOM      6  O   UNL     1       2.572   4.161  32.662  0.00  0.00    -0.226 OA
ATOM      7  N   UNL     1       4.020   2.426  32.482  0.00  0.00    -0.279 N 
ATOM      8  H   UNL     1       4.173   1.516  32.072  0.00  0.00    +0.152 HD
BRANCH   5   9
ATOM      9  O   UNL     1       1.957   2.382  31.345  0.00  0.00    -0.444 OA
BRANCH   9  10
ATOM     10  C   UNL     1       0.925   3.289  30.946  0.00  0.00    +0.292 C 
BRANCH  10  12
ATOM     11  N   UNL     1      -0.077   4.136  28.853  0.00  0.00    -0.131 NA
ATOM     12  C   UNL     1       0.903   3.416  29.478  0.00  0.00    +0.120 A 
ATOM     13  C   UNL     1       1.767   2.916  28.531  0.00  0.00    +0.137 A 
ATOM     14  N   UNL     1       1.335   3.466  27.353  0.00  0.00    -0.248 N 
ATOM     15  N   UNL     1       0.160   4.098  27.553  0.00  0.00    -0.065 NA
BRANCH  14  16
ATOM     16  C   UNL     1       1.926   3.450  26.002  0.00  0.00    +0.112 C 
ATOM     17  C   UNL     1       1.249   4.407  24.983  0.00  0.00    +0.045 C 
ATOM     18  C   UNL     1       0.656   3.737  23.732  0.00  0.00    +0.059 C 
ATOM     19  C   UNL     1       1.736   3.387  22.700  0.00  0.00    +0.020 C 
ATOM     20  C   UNL     1       2.070   1.921  22.972  0.00  0.00    +0.020 C 
ATOM     21  C   UNL     1       1.292   1.597  24.249  0.00  0.00    +0.059 C 
ATOM     22  N   UNL     1       0.108   2.416  24.010  0.00  0.00    -0.299 NA
ATOM     23  C   UNL     1      -0.974   2.327  24.967  0.00  0.00    +0.105 C 
ATOM     24  C   UNL     1       2.103   1.990  25.485  0.00  0.00    +0.045 C 
ENDBRANCH  14  16
ENDBRANCH  10  12
ENDBRANCH   9  10
ENDBRANCH   5   9
ENDBRANCH   4   7
ENDBRANCH   1   4
BRANCH   1  25
ATOM     25  C   UNL     1       7.474   3.650  33.533  0.00  0.00    +0.175 C 
BRANCH  25  26
ATOM     26  C   UNL     1       6.919   4.079  34.899  0.00  0.00    +0.176 C 
ATOM     27  O   UNL     1       7.108   5.515  35.028  0.00  0.00    -0.332 OA
ATOM     28  C   UNL     1       6.539   6.124  36.234  0.00  0.00    +0.277 C 
ATOM     29  C   UNL     1       7.069   5.410  37.502  0.00  0.00    +0.110 C 
ATOM     30  C   UNL     1       6.919   3.878  37.398  0.00  0.00    +0.143 C 
ATOM     31  C   UNL     1       7.542   3.352  36.105  0.00  0.00    +0.133 C 
BRANCH  31  32
ATOM     32  N   UNL     1       7.316   1.903  35.976  0.00  0.00    -0.308 N 
ATOM     33  H   UNL     1       6.362   1.572  35.993  0.00  0.00    +0.149 HD
ATOM     34  C   UNL     1       8.289   0.999  35.838  0.00  0.00    +0.210 C 
ATOM     35  C   UNL     1       9.734   1.534  35.843  0.00  0.00    +0.109 C 
ATOM     36  O   UNL     1       8.069  -0.207  35.718  0.00  0.00    -0.276 OA
ENDBRANCH  31  32
BRANCH  28  37
ATOM     37  C   UNL     1       4.998   6.051  36.209  0.00  0.00    +0.414 C 
ATOM     38  O   UNL     1       4.357   6.096  37.258  0.00  0.00    -0.240 OA
ATOM     39  O   UNL     1       4.395   5.949  35.139  0.00  0.00    -0.240 OA
ENDBRANCH  28  37
BRANCH  30  40
ATOM     40  O   UNL     1       7.554   3.255  38.515  0.00  0.00    -0.390 OA
ATOM     41  H   UNL     1       8.310   3.781  38.788  0.00  0.00    +0.210 HD
ENDBRANCH  30  40
BRANCH  28  42
ATOM     42  O   UNL     1       6.962   7.511  36.279  0.00  0.00    -0.343 OA
ATOM     43  C   UNL     1       8.329   7.720  36.713  0.00  0.00    +0.198 C 
ENDBRANCH  28  42
ENDBRANCH  25  26
BRANCH  25  44
ATOM     44  O   UNL     1       7.883   4.808  32.778  0.00  0.00    -0.387 OA
ATOM     45  H   UNL     1       8.726   5.125  33.110  0.00  0.00    +0.210 HD
ENDBRANCH  25  44
ENDBRANCH   1  25
TORSDOF 14
