REMARK VINA RESULT:    -5.221      4.059      8.593
REMARK INTER + INTRA:         -12.304
REMARK INTER:                 -10.271
REMARK INTRA:                  -2.032
REMARK UNBOUND:                -2.810
REMARK  Name = lig_assembled_53.pdb
REMARK  18 active torsions:
REMARK  status: ('A' for Active; 'I' for Inactive)
REMARK    1  A    between atoms: _2  and  _9
REMARK    2  A    between atoms: _4  and  _16
REMARK    3  A    between atoms: _5  and  _9
REMARK    4  A    between atoms: _5  and  _10
REMARK    5  A    between atoms: _6  and  _7
REMARK    6  A    between atoms: _6  and  _16
REMARK    7  A    between atoms: _12  and  _32
REMARK    8  A    between atoms: _14  and  _20
REMARK    9  A    between atoms: _15  and  _19
REMARK   10  A    between atoms: _19  and  _20
REMARK   11  A    between atoms: _22  and  _23
REMARK   12  A    between atoms: _24  and  _25
REMARK   13  A    between atoms: _26  and  _28
REMARK   14  A    between atoms: _28  and  _29
REMARK   15  A    between atoms: _28  and  _30
REMARK   16  A    between atoms: _30  and  _31
REMARK   17  A    between atoms: _30  and  _32
REMARK   18  A    between atoms: _33  and  _35
REMARK                            x       y       z     vdW  Elec       q    Type
REMARK                         _______ _______ _______ _____ _____    ______ ____
ROOT
ATOM      1  C   UNL     1      19.859   3.537  23.845  0.00  0.00    +0.175 C 
ENDROOT
BRANCH   1   2
ATOM      2  C   UNL     1      18.756   2.710  24.522  0.00  0.00    +0.176 C 
ATOM      3  O   UNL     1      19.250   2.285  25.822  0.00  0.00    -0.332 OA
ATOM      4  C   UNL     1      18.287   1.568  26.663  0.00  0.00    +0.277 C 
ATOM      5  C   UNL     1      17.704   0.352  25.901  0.00  0.00    +0.110 C 
ATOM      6  C   UNL     1      17.195   0.749  24.500  0.00  0.00    +0.143 C 
ATOM      7  C   UNL     1      18.275   1.492  23.713  0.00  0.00    +0.133 C 
BRANCH   7   8
ATOM      8  N   UNL     1      17.750   1.941  22.414  0.00  0.00    -0.308 N 
ATOM      9  H   UNL     1      17.057   2.676  22.414  0.00  0.00    +0.149 HD
ATOM     10  C   UNL     1      18.129   1.440  21.235  0.00  0.00    +0.210 C 
ATOM     11  C   UNL     1      19.168   0.304  21.270  0.00  0.00    +0.109 C 
ATOM     12  O   UNL     1      17.683   1.846  20.161  0.00  0.00    -0.276 OA
ENDBRANCH   7   8
BRANCH   4  13
ATOM     13  C   UNL     1      17.139   2.502  27.098  0.00  0.00    +0.414 C 
ATOM     14  O   UNL     1      17.380   3.520  27.746  0.00  0.00    -0.240 OA
ATOM     15  O   UNL     1      15.973   2.238  26.803  0.00  0.00    -0.240 OA
ENDBRANCH   4  13
BRANCH   4  16
ATOM     16  O   UNL     1      18.990   1.079  27.834  0.00  0.00    -0.343 OA
ATOM     17  C   UNL     1      20.315   1.636  28.030  0.00  0.00    +0.198 C 
ENDBRANCH   4  16
BRANCH   6  18
ATOM     18  O   UNL     1      16.808  -0.421  23.778  0.00  0.00    -0.390 OA
ATOM     19  H   UNL     1      15.877  -0.364  23.549  0.00  0.00    +0.210 HD
ENDBRANCH   6  18
ENDBRANCH   1   2
BRANCH   1  20
ATOM     20  O   UNL     1      21.025   2.720  23.620  0.00  0.00    -0.387 OA
ATOM     21  H   UNL     1      20.793   1.794  23.727  0.00  0.00    +0.210 HD
ENDBRANCH   1  20
BRANCH   1  22
ATOM     22  C   UNL     1      20.235   4.783  24.666  0.00  0.00    +0.163 C 
BRANCH  22  23
ATOM     23  O   UNL     1      21.010   4.422  25.821  0.00  0.00    -0.388 OA
ATOM     24  H   UNL     1      21.944   4.448  25.601  0.00  0.00    +0.210 HD
ENDBRANCH  22  23
BRANCH  22  25
ATOM     25  C   UNL     1      18.967   5.513  25.095  0.00  0.00    +0.141 C 
BRANCH  25  28
ATOM     26  C   UNL     1      19.007   7.116  26.974  0.00  0.00    +0.401 C 
ATOM     27  O   UNL     1      19.013   8.112  26.247  0.00  0.00    -0.226 OA
ATOM     28  N   UNL     1      18.992   5.862  26.520  0.00  0.00    -0.279 N 
ATOM     29  H   UNL     1      18.998   5.110  27.195  0.00  0.00    +0.152 HD
BRANCH  26  30
ATOM     30  O   UNL     1      19.021   7.292  28.393  0.00  0.00    -0.444 OA
BRANCH  30  31
ATOM     31  C   UNL     1      19.033   8.688  28.702  0.00  0.00    +0.292 C 
BRANCH  31  33
ATOM     32  N   UNL     1      17.731  10.144  30.225  0.00  0.00    -0.131 NA
ATOM     33  C   UNL     1      18.335   8.941  29.976  0.00  0.00    +0.120 A 
ATOM     34  C   UNL     1      18.161   8.116  31.065  0.00  0.00    +0.137 A 
ATOM     35  N   UNL     1      17.501   8.893  31.969  0.00  0.00    -0.241 N 
ATOM     36  N   UNL     1      17.205  10.097  31.441  0.00  0.00    -0.065 NA
BRANCH  35  37
ATOM     37  C   UNL     1      16.969   8.564  33.275  0.00  0.00    +0.265 C 
BRANCH  37  38
ATOM     38  C   UNL     1      15.504   8.222  33.306  0.00  0.00    +0.326 C 
ATOM     39  O   UNL     1      14.996   7.226  33.801  0.00  0.00    -0.249 OA
BRANCH  38  40
ATOM     40  O   UNL     1      14.738   9.159  32.688  0.00  0.00    -0.479 OA
ATOM     41  H   UNL     1      13.897   8.840  32.308  0.00  0.00    +0.295 HD
ENDBRANCH  38  40
ENDBRANCH  37  38
ENDBRANCH  35  37
ENDBRANCH  31  33
ENDBRANCH  30  31
ENDBRANCH  26  30
ENDBRANCH  25  28
ENDBRANCH  22  25
ENDBRANCH   1  22
TORSDOF 16
