REMARK VINA RESULT:    -6.462     17.404     20.750
REMARK INTER + INTRA:         -13.098
REMARK INTER:                 -11.154
REMARK INTRA:                  -1.944
REMARK UNBOUND:                -1.914
REMARK  Name = lig_assembled_56.pdb
REMARK  16 active torsions:
REMARK  status: ('A' for Active; 'I' for Inactive)
REMARK    1  A    between atoms: _2  and  _10
REMARK    2  A    between atoms: _5  and  _18
REMARK    3  A    between atoms: _7  and  _8
REMARK    4  A    between atoms: _7  and  _18
REMARK    5  A    between atoms: _14  and  _34
REMARK    6  A    between atoms: _16  and  _22
REMARK    7  A    between atoms: _17  and  _21
REMARK    8  A    between atoms: _21  and  _22
REMARK    9  A    between atoms: _24  and  _25
REMARK   10  A    between atoms: _26  and  _27
REMARK   11  A    between atoms: _28  and  _30
REMARK   12  A    between atoms: _30  and  _31
REMARK   13  A    between atoms: _30  and  _32
REMARK   14  A    between atoms: _32  and  _33
REMARK   15  A    between atoms: _32  and  _34
REMARK   16  A    between atoms: _35  and  _37
REMARK                            x       y       z     vdW  Elec       q    Type
REMARK                         _______ _______ _______ _____ _____    ______ ____
ROOT
ATOM      1  C   UNL     1       7.775   2.342  34.121  0.00  0.00    +0.163 C 
ENDROOT
BRANCH   1   2
ATOM      2  O   UNL     1       8.497   2.562  35.344  0.00  0.00    -0.388 OA
ATOM      3  H   UNL     1       8.509   1.752  35.859  0.00  0.00    +0.210 HD
ENDBRANCH   1   2
BRANCH   1   4
ATOM      4  C   UNL     1       8.422   1.210  33.329  0.00  0.00    +0.141 C 
BRANCH   4   7
ATOM      5  C   UNL     1       7.066  -0.855  33.288  0.00  0.00    +0.401 C 
ATOM      6  O   UNL     1       7.548  -1.304  34.330  0.00  0.00    -0.226 OA
ATOM      7  N   UNL     1       7.421   0.310  32.744  0.00  0.00    -0.279 N 
ATOM      8  H   UNL     1       6.975   0.589  31.881  0.00  0.00    +0.152 HD
BRANCH   5   9
ATOM      9  O   UNL     1       6.068  -1.614  32.601  0.00  0.00    -0.444 OA
BRANCH   9  10
ATOM     10  C   UNL     1       5.522  -0.832  31.535  0.00  0.00    +0.292 C 
BRANCH  10  12
ATOM     11  N   UNL     1       7.334  -1.774  30.138  0.00  0.00    -0.131 NA
ATOM     12  C   UNL     1       6.066  -1.279  30.240  0.00  0.00    +0.121 A 
ATOM     13  C   UNL     1       5.477  -1.296  28.995  0.00  0.00    +0.143 A 
ATOM     14  N   UNL     1       6.429  -1.833  28.159  0.00  0.00    -0.220 N 
ATOM     15  N   UNL     1       7.549  -2.105  28.873  0.00  0.00    -0.060 NA
BRANCH  14  16
ATOM     16  C   UNL     1       6.341  -2.105  26.772  0.00  0.00    +0.070 A 
ATOM     17  C   UNL     1       5.129  -1.980  26.089  0.00  0.00    +0.047 A 
ATOM     18  C   UNL     1       5.111  -2.278  24.736  0.00  0.00    +0.113 A 
ATOM     19  N   UNL     1       6.194  -2.680  24.039  0.00  0.00    -0.263 NA
ATOM     20  C   UNL     1       7.354  -2.791  24.722  0.00  0.00    +0.113 A 
ATOM     21  C   UNL     1       7.480  -2.517  26.073  0.00  0.00    +0.047 A 
ENDBRANCH  14  16
ENDBRANCH  10  12
ENDBRANCH   9  10
ENDBRANCH   5   9
ENDBRANCH   4   7
ENDBRANCH   1   4
BRANCH   1  22
ATOM     22  C   UNL     1       7.745   3.618  33.262  0.00  0.00    +0.175 C 
BRANCH  22  23
ATOM     23  C   UNL     1       6.925   4.738  33.920  0.00  0.00    +0.176 C 
ATOM     24  O   UNL     1       7.716   5.292  35.008  0.00  0.00    -0.332 OA
ATOM     25  C   UNL     1       7.133   6.451  35.689  0.00  0.00    +0.277 C 
ATOM     26  C   UNL     1       5.707   6.121  36.194  0.00  0.00    +0.110 C 
ATOM     27  C   UNL     1       4.838   5.500  35.081  0.00  0.00    +0.143 C 
ATOM     28  C   UNL     1       5.541   4.305  34.438  0.00  0.00    +0.133 C 
BRANCH  28  29
ATOM     29  N   UNL     1       4.742   3.776  33.322  0.00  0.00    -0.308 N 
ATOM     30  H   UNL     1       4.637   4.355  32.501  0.00  0.00    +0.149 HD
ATOM     31  C   UNL     1       4.146   2.580  33.322  0.00  0.00    +0.210 C 
ATOM     32  C   UNL     1       4.303   1.732  34.599  0.00  0.00    +0.109 C 
ATOM     33  O   UNL     1       3.495   2.157  32.367  0.00  0.00    -0.276 OA
ENDBRANCH  28  29
BRANCH  25  34
ATOM     34  C   UNL     1       7.076   7.670  34.744  0.00  0.00    +0.414 C 
ATOM     35  O   UNL     1       8.115   8.192  34.343  0.00  0.00    -0.240 OA
ATOM     36  O   UNL     1       5.992   8.130  34.383  0.00  0.00    -0.240 OA
ENDBRANCH  25  34
BRANCH  27  37
ATOM     37  O   UNL     1       3.588   5.074  35.626  0.00  0.00    -0.390 OA
ATOM     38  H   UNL     1       3.228   4.367  35.086  0.00  0.00    +0.210 HD
ENDBRANCH  27  37
BRANCH  25  39
ATOM     39  O   UNL     1       7.964   6.762  36.837  0.00  0.00    -0.343 OA
ATOM     40  C   UNL     1       7.244   7.223  38.008  0.00  0.00    +0.198 C 
ENDBRANCH  25  39
ENDBRANCH  22  23
BRANCH  22  41
ATOM     41  O   UNL     1       7.221   3.323  31.952  0.00  0.00    -0.387 OA
ATOM     42  H   UNL     1       6.306   3.610  31.901  0.00  0.00    +0.210 HD
ENDBRANCH  22  41
ENDBRANCH   1  22
TORSDOF 14
