REMARK VINA RESULT:    -6.671      1.651      3.517
REMARK INTER + INTRA:         -14.533
REMARK INTER:                 -13.135
REMARK INTRA:                  -1.398
REMARK UNBOUND:                -2.597
REMARK  Name = lig_assembled_89.pdb
REMARK  19 active torsions:
REMARK  status: ('A' for Active; 'I' for Inactive)
REMARK    1  A    between atoms: _2  and  _12
REMARK    2  A    between atoms: _5  and  _20
REMARK    3  A    between atoms: _7  and  _29
REMARK    4  A    between atoms: _9  and  _10
REMARK    5  A    between atoms: _9  and  _29
REMARK    6  A    between atoms: _20  and  _21
REMARK    7  A    between atoms: _20  and  _22
REMARK    8  A    between atoms: _25  and  _45
REMARK    9  A    between atoms: _27  and  _33
REMARK   10  A    between atoms: _28  and  _32
REMARK   11  A    between atoms: _32  and  _33
REMARK   12  A    between atoms: _35  and  _36
REMARK   13  A    between atoms: _37  and  _38
REMARK   14  A    between atoms: _39  and  _41
REMARK   15  A    between atoms: _41  and  _42
REMARK   16  A    between atoms: _41  and  _43
REMARK   17  A    between atoms: _43  and  _44
REMARK   18  A    between atoms: _43  and  _45
REMARK   19  A    between atoms: _46  and  _48
REMARK                            x       y       z     vdW  Elec       q    Type
REMARK                         _______ _______ _______ _____ _____    ______ ____
ROOT
ATOM      1  C   UNL     1       0.109   2.052  30.977  0.00  0.00    +0.401 C 
ATOM      2  O   UNL     1      -0.132   1.157  31.790  0.00  0.00    -0.226 OA
ATOM      3  N   UNL     1       0.980   3.039  31.192  0.00  0.00    -0.279 N 
ATOM      4  H   UNL     1       1.116   3.722  30.460  0.00  0.00    +0.152 HD
ENDROOT
BRANCH   3   5
ATOM      5  C   UNL     1       1.752   3.188  32.431  0.00  0.00    +0.141 C 
BRANCH   5   6
ATOM      6  C   UNL     1       3.243   2.963  32.203  0.00  0.00    +0.163 C 
BRANCH   6   7
ATOM      7  O   UNL     1       3.566   3.173  30.818  0.00  0.00    -0.388 OA
ATOM      8  H   UNL     1       4.505   3.029  30.683  0.00  0.00    +0.210 HD
ENDBRANCH   6   7
BRANCH   6   9
ATOM      9  C   UNL     1       4.051   3.911  33.106  0.00  0.00    +0.175 C 
BRANCH   9  10
ATOM     10  C   UNL     1       5.431   3.337  33.460  0.00  0.00    +0.176 C 
ATOM     11  O   UNL     1       5.244   1.964  33.900  0.00  0.00    -0.332 OA
ATOM     12  C   UNL     1       6.473   1.216  34.182  0.00  0.00    +0.277 C 
ATOM     13  C   UNL     1       7.349   1.980  35.205  0.00  0.00    +0.110 C 
ATOM     14  C   UNL     1       7.549   3.454  34.796  0.00  0.00    +0.143 C 
ATOM     15  C   UNL     1       6.207   4.135  34.524  0.00  0.00    +0.133 C 
BRANCH  15  16
ATOM     16  N   UNL     1       6.414   5.513  34.051  0.00  0.00    -0.308 N 
ATOM     17  H   UNL     1       6.796   5.641  33.124  0.00  0.00    +0.149 HD
ATOM     18  C   UNL     1       6.132   6.605  34.767  0.00  0.00    +0.210 C 
ATOM     19  C   UNL     1       5.577   6.376  36.185  0.00  0.00    +0.109 C 
ATOM     20  O   UNL     1       6.303   7.747  34.339  0.00  0.00    -0.276 OA
ENDBRANCH  15  16
BRANCH  12  21
ATOM     21  C   UNL     1       7.279   0.982  32.887  0.00  0.00    +0.414 C 
ATOM     22  O   UNL     1       6.764   0.403  31.932  0.00  0.00    -0.240 OA
ATOM     23  O   UNL     1       8.445   1.371  32.798  0.00  0.00    -0.240 OA
ENDBRANCH  12  21
BRANCH  14  24
ATOM     24  O   UNL     1       8.230   4.155  35.837  0.00  0.00    -0.390 OA
ATOM     25  H   UNL     1       7.665   4.854  36.175  0.00  0.00    +0.210 HD
ENDBRANCH  14  24
BRANCH  12  26
ATOM     26  O   UNL     1       6.099  -0.060  34.762  0.00  0.00    -0.343 OA
ATOM     27  C   UNL     1       5.863  -0.037  36.192  0.00  0.00    +0.198 C 
ENDBRANCH  12  26
ENDBRANCH   9  10
BRANCH   9  28
ATOM     28  O   UNL     1       3.311   4.202  34.308  0.00  0.00    -0.387 OA
ATOM     29  H   UNL     1       2.682   4.907  34.135  0.00  0.00    +0.210 HD
ENDBRANCH   9  28
ENDBRANCH   6   9
ENDBRANCH   5   6
ENDBRANCH   3   5
BRANCH   1  30
ATOM     30  O   UNL     1      -0.573   2.051  29.720  0.00  0.00    -0.444 OA
BRANCH  30  31
ATOM     31  C   UNL     1      -0.706   3.394  29.247  0.00  0.00    +0.292 C 
BRANCH  31  33
ATOM     32  N   UNL     1       1.580   3.629  28.355  0.00  0.00    -0.131 NA
ATOM     33  C   UNL     1       0.234   3.639  28.140  0.00  0.00    +0.121 A 
ATOM     34  C   UNL     1      -0.006   3.878  26.808  0.00  0.00    +0.145 A 
ATOM     35  N   UNL     1       1.244   3.985  26.228  0.00  0.00    -0.199 N 
ATOM     36  N   UNL     1       2.183   3.831  27.191  0.00  0.00    -0.059 NA
BRANCH  35  37
ATOM     37  C   UNL     1       1.506   4.130  24.835  0.00  0.00    +0.186 A 
ATOM     38  C   UNL     1       1.572   3.171  23.845  0.00  0.00    +0.158 A 
ATOM     39  C   UNL     1       1.536   1.740  23.862  0.00  0.00    +0.280 A 
ATOM     40  O   UNL     1       1.779   1.091  24.870  0.00  0.00    -0.265 OA
ATOM     41  N   UNL     1       1.232   1.132  22.627  0.00  0.00    -0.302 N 
ATOM     42  C   UNL     1       1.417   1.862  21.393  0.00  0.00    +0.069 A 
ATOM     43  C   UNL     1       1.402   1.241  20.136  0.00  0.00    +0.028 A 
ATOM     44  C   UNL     1       1.636   1.972  18.962  0.00  0.00    +0.002 A 
ATOM     45  C   UNL     1       1.878   3.340  19.018  0.00  0.00    +0.002 A 
ATOM     46  C   UNL     1       1.886   3.991  20.247  0.00  0.00    +0.028 A 
ATOM     47  C   UNL     1       1.666   3.252  21.419  0.00  0.00    +0.072 A 
ATOM     48  N   UNL     1       1.677   3.877  22.677  0.00  0.00    -0.291 N 
ATOM     49  C   UNL     1       1.784   5.203  23.009  0.00  0.00    +0.207 A 
ATOM     50  N   UNL     1       1.673   5.396  24.306  0.00  0.00    -0.216 NA
BRANCH  41  51
ATOM     51  C   UNL     1       0.928  -0.318  22.625  0.00  0.00    +0.085 C 
ATOM     52  C   UNL     1      -0.417  -0.670  23.293  0.00  0.00    +0.030 C 
ATOM     53  C   UNL     1       2.061  -1.138  23.241  0.00  0.00    +0.030 C 
ENDBRANCH  41  51
ENDBRANCH  35  37
ENDBRANCH  31  33
ENDBRANCH  30  31
ENDBRANCH   1  30
TORSDOF 15
