REMARK VINA RESULT:    -6.407     15.017     18.416
REMARK INTER + INTRA:         -14.830
REMARK INTER:                 -12.190
REMARK INTRA:                  -2.640
REMARK UNBOUND:                -2.243
REMARK  Name = lig_assembled_31.pdb
REMARK  20 active torsions:
REMARK  status: ('A' for Active; 'I' for Inactive)
REMARK    1  A    between atoms: _2  and  _11
REMARK    2  A    between atoms: _3  and  _12
REMARK    3  A    between atoms: _4  and  _14
REMARK    4  A    between atoms: _6  and  _24
REMARK    5  A    between atoms: _8  and  _9
REMARK    6  A    between atoms: _8  and  _24
REMARK    7  A    between atoms: _11  and  _12
REMARK    8  A    between atoms: _14  and  _15
REMARK    9  A    between atoms: _20  and  _40
REMARK   10  A    between atoms: _22  and  _28
REMARK   11  A    between atoms: _23  and  _27
REMARK   12  A    between atoms: _27  and  _28
REMARK   13  A    between atoms: _30  and  _31
REMARK   14  A    between atoms: _32  and  _33
REMARK   15  A    between atoms: _34  and  _36
REMARK   16  A    between atoms: _36  and  _37
REMARK   17  A    between atoms: _36  and  _38
REMARK   18  A    between atoms: _38  and  _39
REMARK   19  A    between atoms: _38  and  _40
REMARK   20  A    between atoms: _41  and  _43
REMARK                            x       y       z     vdW  Elec       q    Type
REMARK                         _______ _______ _______ _____ _____    ______ ____
ROOT
ATOM      1  C   UNL     1       2.831   1.067  33.135  0.00  0.00    +0.401 C 
ATOM      2  O   UNL     1       2.928   0.268  32.201  0.00  0.00    -0.226 OA
ATOM      3  N   UNL     1       3.859   1.746  33.645  0.00  0.00    -0.279 N 
ATOM      4  H   UNL     1       3.677   2.386  34.405  0.00  0.00    +0.152 HD
ENDROOT
BRANCH   1   5
ATOM      5  O   UNL     1       1.546   1.300  33.718  0.00  0.00    -0.444 OA
BRANCH   5   6
ATOM      6  C   UNL     1       1.311   2.708  33.809  0.00  0.00    +0.292 C 
BRANCH   6   8
ATOM      7  N   UNL     1       1.732   4.244  31.914  0.00  0.00    -0.131 NA
ATOM      8  C   UNL     1       0.969   3.259  32.483  0.00  0.00    +0.120 A 
ATOM      9  C   UNL     1      -0.065   2.944  31.631  0.00  0.00    +0.137 A 
ATOM     10  N   UNL     1       0.120   3.778  30.568  0.00  0.00    -0.250 N 
ATOM     11  N   UNL     1       1.203   4.553  30.737  0.00  0.00    -0.065 NA
BRANCH  10  12
ATOM     12  C   UNL     1      -0.687   3.894  29.371  0.00  0.00    +0.164 C 
BRANCH  12  13
ATOM     13  C   UNL     1      -0.094   3.093  28.222  0.00  0.00    +0.129 C 
BRANCH  13  14
ATOM     14  N   UNL     1      -0.297   3.678  26.903  0.00  0.00    -0.298 N 
ATOM     15  H   UNL     1      -1.166   3.541  26.407  0.00  0.00    +0.150 HD
ATOM     16  C   UNL     1       0.806   4.033  26.173  0.00  0.00    +0.300 C 
ATOM     17  O   UNL     1       1.948   3.972  26.623  0.00  0.00    -0.253 OA
ATOM     18  N   UNL     1       0.529   4.486  24.920  0.00  0.00    -0.292 N 
ATOM     19  H   UNL     1      -0.405   4.497  24.537  0.00  0.00    +0.151 HD
BRANCH  18  20
ATOM     20  C   UNL     1       1.627   4.892  24.074  0.00  0.00    +0.180 C 
BRANCH  20  21
ATOM     21  C   UNL     1       1.729   4.101  22.822  0.00  0.00    +0.122 A 
ATOM     22  O   UNL     1       1.774   4.757  21.623  0.00  0.00    -0.466 OA
ATOM     23  C   UNL     1       1.867   3.802  20.657  0.00  0.00    +0.195 A 
ATOM     24  C   UNL     1       1.879   2.544  21.213  0.00  0.00    +0.041 A 
ATOM     25  C   UNL     1       1.789   2.735  22.612  0.00  0.00    +0.046 A 
ENDBRANCH  20  21
ENDBRANCH  18  20
ENDBRANCH  13  14
ENDBRANCH  12  13
ENDBRANCH  10  12
ENDBRANCH   6   8
ENDBRANCH   5   6
ENDBRANCH   1   5
BRANCH   3  26
ATOM     26  C   UNL     1       5.240   1.614  33.166  0.00  0.00    +0.141 C 
BRANCH  26  27
ATOM     27  C   UNL     1       5.766   2.920  32.581  0.00  0.00    +0.163 C 
BRANCH  27  28
ATOM     28  O   UNL     1       4.782   3.956  32.729  0.00  0.00    -0.388 OA
ATOM     29  H   UNL     1       5.221   4.808  32.795  0.00  0.00    +0.210 HD
ENDBRANCH  27  28
BRANCH  27  30
ATOM     30  C   UNL     1       7.080   3.305  33.283  0.00  0.00    +0.175 C 
BRANCH  30  31
ATOM     31  C   UNL     1       6.839   3.869  34.691  0.00  0.00    +0.176 C 
ATOM     32  O   UNL     1       6.696   5.311  34.577  0.00  0.00    -0.332 OA
ATOM     33  C   UNL     1       6.353   6.014  35.817  0.00  0.00    +0.277 C 
ATOM     34  C   UNL     1       7.374   5.677  36.931  0.00  0.00    +0.110 C 
ATOM     35  C   UNL     1       7.585   4.154  37.068  0.00  0.00    +0.143 C 
ATOM     36  C   UNL     1       7.933   3.524  35.719  0.00  0.00    +0.133 C 
BRANCH  36  37
ATOM     37  N   UNL     1       8.046   2.063  35.846  0.00  0.00    -0.308 N 
ATOM     38  H   UNL     1       7.260   1.562  36.237  0.00  0.00    +0.149 HD
ATOM     39  C   UNL     1       9.118   1.355  35.479  0.00  0.00    +0.210 C 
ATOM     40  C   UNL     1      10.308   2.151  34.911  0.00  0.00    +0.109 C 
ATOM     41  O   UNL     1       9.178   0.130  35.583  0.00  0.00    -0.276 OA
ENDBRANCH  36  37
BRANCH  33  42
ATOM     42  C   UNL     1       4.933   5.634  36.287  0.00  0.00    +0.414 C 
ATOM     43  O   UNL     1       4.044   5.419  35.464  0.00  0.00    -0.240 OA
ATOM     44  O   UNL     1       4.677   5.542  37.488  0.00  0.00    -0.240 OA
ENDBRANCH  33  42
BRANCH  35  45
ATOM     45  O   UNL     1       8.640   3.895  37.995  0.00  0.00    -0.390 OA
ATOM     46  H   UNL     1       9.484   4.092  37.583  0.00  0.00    +0.210 HD
ENDBRANCH  35  45
BRANCH  33  47
ATOM     47  O   UNL     1       6.415   7.440  35.557  0.00  0.00    -0.343 OA
ATOM     48  C   UNL     1       7.104   7.810  34.335  0.00  0.00    +0.198 C 
ENDBRANCH  33  47
ENDBRANCH  30  31
BRANCH  30  49
ATOM     49  O   UNL     1       7.809   4.259  32.484  0.00  0.00    -0.387 OA
ATOM     50  H   UNL     1       7.670   4.070  31.553  0.00  0.00    +0.210 HD
ENDBRANCH  30  49
ENDBRANCH  27  30
ENDBRANCH  26  27
ENDBRANCH   3  26
TORSDOF 18
