REMARK VINA RESULT:    -6.367      7.011     11.724
REMARK INTER + INTRA:         -14.108
REMARK INTER:                 -10.945
REMARK INTRA:                  -3.163
REMARK UNBOUND:                -3.089
REMARK  Name = lig_assembled_91.pdb
REMARK  16 active torsions:
REMARK  status: ('A' for Active; 'I' for Inactive)
REMARK    1  A    between atoms: _2  and  _10
REMARK    2  A    between atoms: _5  and  _26
REMARK    3  A    between atoms: _7  and  _8
REMARK    4  A    between atoms: _7  and  _26
REMARK    5  A    between atoms: _22  and  _42
REMARK    6  A    between atoms: _24  and  _30
REMARK    7  A    between atoms: _25  and  _29
REMARK    8  A    between atoms: _29  and  _30
REMARK    9  A    between atoms: _32  and  _33
REMARK   10  A    between atoms: _34  and  _35
REMARK   11  A    between atoms: _36  and  _38
REMARK   12  A    between atoms: _38  and  _39
REMARK   13  A    between atoms: _38  and  _40
REMARK   14  A    between atoms: _40  and  _41
REMARK   15  A    between atoms: _40  and  _42
REMARK   16  A    between atoms: _43  and  _45
REMARK                            x       y       z     vdW  Elec       q    Type
REMARK                         _______ _______ _______ _____ _____    ______ ____
ROOT
ATOM      1  C   UNL     1      -1.023  -2.224  24.898  0.00  0.00    +0.401 C 
ATOM      2  O   UNL     1      -2.249  -2.136  24.796  0.00  0.00    -0.226 OA
ATOM      3  N   UNL     1      -0.167  -1.841  23.950  0.00  0.00    -0.279 N 
ATOM      4  H   UNL     1       0.822  -1.943  24.130  0.00  0.00    +0.152 HD
ENDROOT
BRANCH   3   5
ATOM      5  C   UNL     1      -0.581  -1.278  22.658  0.00  0.00    +0.141 C 
BRANCH   5   6
ATOM      6  C   UNL     1       0.355  -0.165  22.197  0.00  0.00    +0.163 C 
BRANCH   6   7
ATOM      7  O   UNL     1      -0.162   0.449  21.005  0.00  0.00    -0.388 OA
ATOM      8  H   UNL     1       0.002  -0.124  20.252  0.00  0.00    +0.210 HD
ENDBRANCH   6   7
BRANCH   6   9
ATOM      9  C   UNL     1       0.517   0.870  23.323  0.00  0.00    +0.175 C 
BRANCH   9  10
ATOM     10  C   UNL     1       0.413   2.311  22.803  0.00  0.00    +0.176 C 
ATOM     11  O   UNL     1       1.249   2.421  21.619  0.00  0.00    -0.332 OA
ATOM     12  C   UNL     1       1.192   3.708  20.920  0.00  0.00    +0.277 C 
ATOM     13  C   UNL     1       1.511   4.868  21.894  0.00  0.00    +0.110 C 
ATOM     14  C   UNL     1       0.668   4.776  23.184  0.00  0.00    +0.143 C 
ATOM     15  C   UNL     1       0.799   3.395  23.827  0.00  0.00    +0.133 C 
BRANCH  15  16
ATOM     16  N   UNL     1      -0.076   3.291  25.006  0.00  0.00    -0.308 N 
ATOM     17  H   UNL     1      -1.073   3.235  24.850  0.00  0.00    +0.149 HD
ATOM     18  C   UNL     1       0.361   3.265  26.268  0.00  0.00    +0.210 C 
ATOM     19  C   UNL     1       1.884   3.377  26.473  0.00  0.00    +0.109 C 
ATOM     20  O   UNL     1      -0.394   3.162  27.235  0.00  0.00    -0.276 OA
ENDBRANCH  15  16
BRANCH  12  21
ATOM     21  C   UNL     1      -0.200   3.929  20.293  0.00  0.00    +0.414 C 
ATOM     22  O   UNL     1      -0.576   5.063  20.001  0.00  0.00    -0.240 OA
ATOM     23  O   UNL     1      -0.947   2.973  20.079  0.00  0.00    -0.240 OA
ENDBRANCH  12  21
BRANCH  14  24
ATOM     24  O   UNL     1       1.100   5.771  24.113  0.00  0.00    -0.390 OA
ATOM     25  H   UNL     1       0.368   6.014  24.685  0.00  0.00    +0.210 HD
ENDBRANCH  14  24
BRANCH  12  26
ATOM     26  O   UNL     1       2.201   3.697  19.877  0.00  0.00    -0.343 OA
ATOM     27  C   UNL     1       2.411   2.411  19.241  0.00  0.00    +0.198 C 
ENDBRANCH  12  26
ENDBRANCH   9  10
BRANCH   9  28
ATOM     28  O   UNL     1       1.776   0.675  23.999  0.00  0.00    -0.387 OA
ATOM     29  H   UNL     1       1.653   0.789  24.944  0.00  0.00    +0.210 HD
ENDBRANCH   9  28
ENDBRANCH   6   9
ENDBRANCH   5   6
ENDBRANCH   3   5
BRANCH   1  30
ATOM     30  O   UNL     1      -0.463  -2.762  26.098  0.00  0.00    -0.444 OA
BRANCH  30  31
ATOM     31  C   UNL     1      -0.232  -1.705  27.033  0.00  0.00    +0.292 C 
BRANCH  31  33
ATOM     32  N   UNL     1       1.639  -0.116  26.778  0.00  0.00    -0.131 NA
ATOM     33  C   UNL     1       1.203  -1.367  27.090  0.00  0.00    +0.121 A 
ATOM     34  C   UNL     1       2.285  -2.140  27.445  0.00  0.00    +0.143 A 
ATOM     35  N   UNL     1       3.389  -1.324  27.292  0.00  0.00    -0.218 N 
ATOM     36  N   UNL     1       2.958  -0.096  26.906  0.00  0.00    -0.060 NA
BRANCH  35  37
ATOM     37  C   UNL     1       4.774  -1.623  27.473  0.00  0.00    +0.085 A 
ATOM     38  C   UNL     1       5.588  -1.997  26.344  0.00  0.00    +0.026 A 
ATOM     39  C   UNL     1       6.934  -2.296  26.637  0.00  0.00    +0.074 A 
ATOM     40  C   UNL     1       7.814  -2.670  25.632  0.00  0.00    +0.028 A 
ATOM     41  C   UNL     1       7.424  -2.763  24.301  0.00  0.00    +0.002 A 
ATOM     42  C   UNL     1       6.124  -2.446  23.962  0.00  0.00    +0.001 A 
ATOM     43  N   UNL     1       7.461  -2.223  27.856  0.00  0.00    -0.247 NA
ATOM     44  C   UNL     1       6.713  -1.848  28.892  0.00  0.00    +0.074 A 
ATOM     45  C   UNL     1       7.365  -1.809  30.121  0.00  0.00    +0.028 A 
ATOM     46  C   UNL     1       6.708  -1.473  31.300  0.00  0.00    +0.002 A 
ATOM     47  C   UNL     1       5.360  -1.180  31.255  0.00  0.00    +0.001 A 
ATOM     48  C   UNL     1       4.688  -1.221  30.029  0.00  0.00    +0.012 A 
ATOM     49  C   UNL     1       5.227  -2.049  24.961  0.00  0.00    +0.012 A 
ATOM     50  C   UNL     1       5.347  -1.537  28.797  0.00  0.00    +0.026 A 
ENDBRANCH  35  37
ENDBRANCH  31  33
ENDBRANCH  30  31
ENDBRANCH   1  30
TORSDOF 14
