REMARK VINA RESULT:    -4.572      6.025      9.076
REMARK INTER + INTRA:         -12.892
REMARK INTER:                 -10.403
REMARK INTRA:                  -2.489
REMARK UNBOUND:                -4.177
REMARK  Name = lig_assembled_50.pdb
REMARK  20 active torsions:
REMARK  status: ('A' for Active; 'I' for Inactive)
REMARK    1  A    between atoms: _2  and  _9
REMARK    2  A    between atoms: _4  and  _17
REMARK    3  A    between atoms: _5  and  _10
REMARK    4  A    between atoms: _5  and  _11
REMARK    5  A    between atoms: _6  and  _7
REMARK    6  A    between atoms: _6  and  _17
REMARK    7  A    between atoms: _9  and  _10
REMARK    8  A    between atoms: _10  and  _12
REMARK    9  A    between atoms: _13  and  _33
REMARK   10  A    between atoms: _15  and  _21
REMARK   11  A    between atoms: _16  and  _20
REMARK   12  A    between atoms: _20  and  _21
REMARK   13  A    between atoms: _23  and  _24
REMARK   14  A    between atoms: _25  and  _26
REMARK   15  A    between atoms: _27  and  _29
REMARK   16  A    between atoms: _29  and  _30
REMARK   17  A    between atoms: _29  and  _31
REMARK   18  A    between atoms: _31  and  _32
REMARK   19  A    between atoms: _31  and  _33
REMARK   20  A    between atoms: _34  and  _36
REMARK                            x       y       z     vdW  Elec       q    Type
REMARK                         _______ _______ _______ _____ _____    ______ ____
ROOT
ATOM      1  C   UNL     1      18.886  10.561  29.542  0.00  0.00    +0.163 C 
ENDROOT
BRANCH   1   2
ATOM      2  O   UNL     1      17.539  11.058  29.473  0.00  0.00    -0.388 OA
ATOM      3  H   UNL     1      17.209  10.966  28.576  0.00  0.00    +0.210 HD
ENDBRANCH   1   2
BRANCH   1   4
ATOM      4  C   UNL     1      18.917   9.131  30.108  0.00  0.00    +0.175 C 
BRANCH   4   5
ATOM      5  C   UNL     1      18.007   8.976  31.336  0.00  0.00    +0.176 C 
ATOM      6  O   UNL     1      18.197  10.143  32.183  0.00  0.00    -0.332 OA
ATOM      7  C   UNL     1      17.325  10.220  33.359  0.00  0.00    +0.277 C 
ATOM      8  C   UNL     1      17.447   8.931  34.209  0.00  0.00    +0.110 C 
ATOM      9  C   UNL     1      17.284   7.663  33.345  0.00  0.00    +0.143 C 
ATOM     10  C   UNL     1      18.235   7.688  32.148  0.00  0.00    +0.133 C 
BRANCH  10  11
ATOM     11  N   UNL     1      18.009   6.517  31.286  0.00  0.00    -0.308 N 
ATOM     12  H   UNL     1      17.141   6.470  30.772  0.00  0.00    +0.149 HD
ATOM     13  C   UNL     1      18.878   5.513  31.138  0.00  0.00    +0.210 C 
ATOM     14  C   UNL     1      20.181   5.602  31.954  0.00  0.00    +0.109 C 
ATOM     15  O   UNL     1      18.668   4.551  30.397  0.00  0.00    -0.276 OA
ENDBRANCH  10  11
BRANCH   7  16
ATOM     16  C   UNL     1      15.855  10.424  32.938  0.00  0.00    +0.414 C 
ATOM     17  O   UNL     1      14.954   9.818  33.518  0.00  0.00    -0.240 OA
ATOM     18  O   UNL     1      15.570  11.193  32.020  0.00  0.00    -0.240 OA
ENDBRANCH   7  16
BRANCH   9  19
ATOM     19  O   UNL     1      17.552   6.504  34.135  0.00  0.00    -0.390 OA
ATOM     20  H   UNL     1      17.778   5.769  33.560  0.00  0.00    +0.210 HD
ENDBRANCH   9  19
BRANCH   7  21
ATOM     21  O   UNL     1      17.762  11.343  34.168  0.00  0.00    -0.343 OA
ATOM     22  C   UNL     1      18.559  12.330  33.466  0.00  0.00    +0.198 C 
ENDBRANCH   7  21
ENDBRANCH   4   5
BRANCH   4  23
ATOM     23  O   UNL     1      20.269   8.758  30.442  0.00  0.00    -0.387 OA
ATOM     24  H   UNL     1      20.674   8.316  29.692  0.00  0.00    +0.210 HD
ENDBRANCH   4  23
ENDBRANCH   1   4
BRANCH   1  25
ATOM     25  C   UNL     1      19.518  10.573  28.154  0.00  0.00    +0.141 C 
BRANCH  25  28
ATOM     26  C   UNL     1      20.410   8.861  26.611  0.00  0.00    +0.401 C 
ATOM     27  O   UNL     1      21.276   9.602  26.139  0.00  0.00    -0.226 OA
ATOM     28  N   UNL     1      19.541   9.234  27.551  0.00  0.00    -0.279 N 
ATOM     29  H   UNL     1      18.861   8.558  27.868  0.00  0.00    +0.152 HD
BRANCH  26  30
ATOM     30  O   UNL     1      20.309   7.518  26.131  0.00  0.00    -0.444 OA
BRANCH  30  31
ATOM     31  C   UNL     1      18.931   7.169  25.972  0.00  0.00    +0.292 C 
BRANCH  31  33
ATOM     32  N   UNL     1      18.758   4.723  26.335  0.00  0.00    -0.131 NA
ATOM     33  C   UNL     1      18.804   5.787  25.469  0.00  0.00    +0.120 A 
ATOM     34  C   UNL     1      18.702   5.319  24.175  0.00  0.00    +0.137 A 
ATOM     35  N   UNL     1      18.607   3.972  24.323  0.00  0.00    -0.249 N 
ATOM     36  N   UNL     1      18.623   3.617  25.622  0.00  0.00    -0.065 NA
BRANCH  35  37
ATOM     37  C   UNL     1      18.507   2.961  23.295  0.00  0.00    +0.178 C 
BRANCH  37  38
ATOM     38  C   UNL     1      17.077   2.710  22.802  0.00  0.00    +0.161 C 
BRANCH  38  39
ATOM     39  O   UNL     1      16.096   2.937  23.818  0.00  0.00    -0.388 OA
ATOM     40  H   UNL     1      16.373   3.709  24.352  0.00  0.00    +0.210 HD
ENDBRANCH  38  39
BRANCH  38  41
ATOM     41  C   UNL     1      16.712   3.507  21.543  0.00  0.00    +0.189 C 
BRANCH  41  42
ATOM     42  O   UNL     1      16.290   2.645  20.487  0.00  0.00    -0.392 OA
ATOM     43  H   UNL     1      16.448   1.723  20.765  0.00  0.00    +0.210 HD
ENDBRANCH  41  42
ENDBRANCH  38  41
ENDBRANCH  37  38
ENDBRANCH  35  37
ENDBRANCH  31  33
ENDBRANCH  30  31
ENDBRANCH  26  30
ENDBRANCH  25  28
ENDBRANCH   1  25
TORSDOF 18
