REMARK VINA RESULT:    -7.211      1.991      4.041
REMARK INTER + INTRA:         -14.308
REMARK INTER:                 -12.500
REMARK INTRA:                  -1.808
REMARK UNBOUND:                -1.828
REMARK  Name = lig_assembled_70.pdb
REMARK  16 active torsions:
REMARK  status: ('A' for Active; 'I' for Inactive)
REMARK    1  A    between atoms: _2  and  _10
REMARK    2  A    between atoms: _5  and  _22
REMARK    3  A    between atoms: _7  and  _8
REMARK    4  A    between atoms: _7  and  _22
REMARK    5  A    between atoms: _18  and  _38
REMARK    6  A    between atoms: _20  and  _26
REMARK    7  A    between atoms: _21  and  _25
REMARK    8  A    between atoms: _25  and  _26
REMARK    9  A    between atoms: _28  and  _29
REMARK   10  A    between atoms: _30  and  _31
REMARK   11  A    between atoms: _32  and  _34
REMARK   12  A    between atoms: _34  and  _35
REMARK   13  A    between atoms: _34  and  _36
REMARK   14  A    between atoms: _36  and  _37
REMARK   15  A    between atoms: _36  and  _38
REMARK   16  A    between atoms: _39  and  _41
REMARK                            x       y       z     vdW  Elec       q    Type
REMARK                         _______ _______ _______ _____ _____    ______ ____
ROOT
ATOM      1  C   UNL     1       6.949   2.499  32.907  0.00  0.00    +0.163 C 
ENDROOT
BRANCH   1   2
ATOM      2  O   UNL     1       7.183   3.328  31.757  0.00  0.00    -0.388 OA
ATOM      3  H   UNL     1       7.497   4.189  32.041  0.00  0.00    +0.210 HD
ENDBRANCH   1   2
BRANCH   1   4
ATOM      4  C   UNL     1       5.799   1.535  32.630  0.00  0.00    +0.141 C 
BRANCH   4   7
ATOM      5  C   UNL     1       3.522   2.416  32.251  0.00  0.00    +0.401 C 
ATOM      6  O   UNL     1       3.130   2.156  33.392  0.00  0.00    -0.226 OA
ATOM      7  N   UNL     1       4.752   2.154  31.808  0.00  0.00    -0.279 N 
ATOM      8  H   UNL     1       4.976   2.396  30.853  0.00  0.00    +0.152 HD
BRANCH   5   9
ATOM      9  O   UNL     1       2.618   3.031  31.330  0.00  0.00    -0.444 OA
BRANCH   9  10
ATOM     10  C   UNL     1       2.002   2.025  30.521  0.00  0.00    +0.292 C 
BRANCH  10  12
ATOM     11  N   UNL     1       1.531   3.785  28.840  0.00  0.00    -0.131 NA
ATOM     12  C   UNL     1       1.867   2.493  29.129  0.00  0.00    +0.121 A 
ATOM     13  C   UNL     1       2.035   1.801  27.954  0.00  0.00    +0.143 A 
ATOM     14  N   UNL     1       1.802   2.723  26.960  0.00  0.00    -0.218 N 
ATOM     15  N   UNL     1       1.486   3.914  27.519  0.00  0.00    -0.060 NA
BRANCH  14  16
ATOM     16  C   UNL     1       1.883   2.544  25.563  0.00  0.00    +0.086 A 
ATOM     17  C   UNL     1       1.983   1.274  25.021  0.00  0.00    +0.139 A 
ATOM     18  N   UNL     1       2.019   1.027  23.686  0.00  0.00    -0.253 NA
ATOM     19  C   UNL     1       1.944   2.072  22.842  0.00  0.00    +0.071 A 
ATOM     20  C   UNL     1       1.857   3.402  23.303  0.00  0.00    +0.002 A 
ATOM     21  C   UNL     1       1.780   4.470  22.390  0.00  0.00    +0.010 A 
ATOM     22  C   UNL     1       1.769   4.224  21.020  0.00  0.00    +0.001 A 
ATOM     23  C   UNL     1       1.846   2.914  20.560  0.00  0.00    +0.002 A 
ATOM     24  C   UNL     1       1.940   1.857  21.470  0.00  0.00    +0.028 A 
ATOM     25  C   UNL     1       1.836   3.628  24.684  0.00  0.00    +0.039 A 
ENDBRANCH  14  16
ENDBRANCH  10  12
ENDBRANCH   9  10
ENDBRANCH   5   9
ENDBRANCH   4   7
ENDBRANCH   1   4
BRANCH   1  26
ATOM     26  C   UNL     1       6.617   3.353  34.142  0.00  0.00    +0.175 C 
BRANCH  26  27
ATOM     27  C   UNL     1       7.871   3.704  34.956  0.00  0.00    +0.176 C 
ATOM     28  O   UNL     1       8.263   2.521  35.706  0.00  0.00    -0.332 OA
ATOM     29  C   UNL     1       9.511   2.637  36.466  0.00  0.00    +0.277 C 
ATOM     30  C   UNL     1       9.458   3.862  37.412  0.00  0.00    +0.110 C 
ATOM     31  C   UNL     1       9.015   5.138  36.665  0.00  0.00    +0.143 C 
ATOM     32  C   UNL     1       7.708   4.905  35.906  0.00  0.00    +0.133 C 
BRANCH  32  33
ATOM     33  N   UNL     1       7.342   6.100  35.130  0.00  0.00    -0.308 N 
ATOM     34  H   UNL     1       8.011   6.447  34.457  0.00  0.00    +0.149 HD
ATOM     35  C   UNL     1       6.185   6.755  35.256  0.00  0.00    +0.210 C 
ATOM     36  C   UNL     1       5.199   6.215  36.309  0.00  0.00    +0.109 C 
ATOM     37  O   UNL     1       5.900   7.745  34.581  0.00  0.00    -0.276 OA
ENDBRANCH  32  33
BRANCH  29  38
ATOM     38  C   UNL     1      10.719   2.771  35.516  0.00  0.00    +0.414 C 
ATOM     39  O   UNL     1      10.648   2.354  34.361  0.00  0.00    -0.240 OA
ATOM     40  O   UNL     1      11.764   3.294  35.905  0.00  0.00    -0.240 OA
ENDBRANCH  29  38
BRANCH  31  41
ATOM     41  O   UNL     1       8.833   6.204  37.598  0.00  0.00    -0.390 OA
ATOM     42  H   UNL     1       9.389   6.054  38.367  0.00  0.00    +0.210 HD
ENDBRANCH  31  41
BRANCH  29  43
ATOM     43  O   UNL     1       9.656   1.441  37.275  0.00  0.00    -0.343 OA
ATOM     44  C   UNL     1       9.107   0.234  36.689  0.00  0.00    +0.198 C 
ENDBRANCH  29  43
ENDBRANCH  26  27
BRANCH  26  45
ATOM     45  O   UNL     1       5.659   2.670  34.976  0.00  0.00    -0.387 OA
ATOM     46  H   UNL     1       4.885   2.444  34.455  0.00  0.00    +0.210 HD
ENDBRANCH  26  45
ENDBRANCH   1  26
TORSDOF 14
