REMARK VINA RESULT:    -6.130      1.958      2.759
REMARK INTER + INTRA:         -13.023
REMARK INTER:                 -11.404
REMARK INTRA:                  -1.619
REMARK UNBOUND:                -2.413
REMARK  Name = lig_assembled_8.pdb
REMARK  16 active torsions:
REMARK  status: ('A' for Active; 'I' for Inactive)
REMARK    1  A    between atoms: _2  and  _9
REMARK    2  A    between atoms: _4  and  _18
REMARK    3  A    between atoms: _6  and  _7
REMARK    4  A    between atoms: _6  and  _18
REMARK    5  A    between atoms: _14  and  _34
REMARK    6  A    between atoms: _16  and  _22
REMARK    7  A    between atoms: _17  and  _21
REMARK    8  A    between atoms: _21  and  _22
REMARK    9  A    between atoms: _24  and  _25
REMARK   10  A    between atoms: _26  and  _27
REMARK   11  A    between atoms: _28  and  _30
REMARK   12  A    between atoms: _30  and  _31
REMARK   13  A    between atoms: _30  and  _32
REMARK   14  A    between atoms: _32  and  _33
REMARK   15  A    between atoms: _32  and  _34
REMARK   16  A    between atoms: _35  and  _37
REMARK                            x       y       z     vdW  Elec       q    Type
REMARK                         _______ _______ _______ _____ _____    ______ ____
ROOT
ATOM      1  C   UNL     1       6.333   2.845  32.750  0.00  0.00    +0.163 C 
ENDROOT
BRANCH   1   2
ATOM      2  O   UNL     1       6.118   3.204  31.375  0.00  0.00    -0.388 OA
ATOM      3  H   UNL     1       6.961   3.240  30.918  0.00  0.00    +0.210 HD
ENDBRANCH   1   2
BRANCH   1   4
ATOM      4  C   UNL     1       5.079   3.136  33.568  0.00  0.00    +0.141 C 
BRANCH   4   7
ATOM      5  C   UNL     1       2.638   3.234  33.194  0.00  0.00    +0.401 C 
ATOM      6  O   UNL     1       2.413   3.887  34.215  0.00  0.00    -0.226 OA
ATOM      7  N   UNL     1       3.854   2.835  32.817  0.00  0.00    -0.279 N 
ATOM      8  H   UNL     1       3.937   2.294  31.967  0.00  0.00    +0.152 HD
BRANCH   5   9
ATOM      9  O   UNL     1       1.545   2.867  32.348  0.00  0.00    -0.444 OA
BRANCH   9  10
ATOM     10  C   UNL     1       1.043   4.029  31.685  0.00  0.00    +0.292 C 
BRANCH  10  12
ATOM     11  N   UNL     1      -0.142   4.237  29.530  0.00  0.00    -0.131 NA
ATOM     12  C   UNL     1       0.925   3.781  30.236  0.00  0.00    +0.121 A 
ATOM     13  C   UNL     1       1.775   3.118  29.381  0.00  0.00    +0.143 A 
ATOM     14  N   UNL     1       1.188   3.212  28.130  0.00  0.00    -0.219 N 
ATOM     15  N   UNL     1       0.023   3.884  28.264  0.00  0.00    -0.060 NA
BRANCH  14  16
ATOM     16  C   UNL     1       1.687   2.723  26.883  0.00  0.00    +0.081 A 
ATOM     17  C   UNL     1       2.090   3.666  25.912  0.00  0.00    +0.029 A 
ATOM     18  C   UNL     1       2.567   3.270  24.660  0.00  0.00    +0.002 A 
ATOM     19  C   UNL     1       2.656   1.923  24.347  0.00  0.00    +0.001 A 
ATOM     20  C   UNL     1       2.273   0.973  25.290  0.00  0.00    +0.017 A 
ATOM     21  C   UNL     1       1.791   1.355  26.557  0.00  0.00    +0.043 A 
ATOM     22 BR   UNL     1       1.337  -0.120  27.674  0.00  0.00    -0.048 Br
ENDBRANCH  14  16
ENDBRANCH  10  12
ENDBRANCH   9  10
ENDBRANCH   5   9
ENDBRANCH   4   7
ENDBRANCH   1   4
BRANCH   1  23
ATOM     23  C   UNL     1       7.523   3.621  33.341  0.00  0.00    +0.175 C 
BRANCH  23  24
ATOM     24  C   UNL     1       7.228   4.143  34.755  0.00  0.00    +0.176 C 
ATOM     25  O   UNL     1       7.277   5.595  34.715  0.00  0.00    -0.332 OA
ATOM     26  C   UNL     1       6.914   6.277  35.961  0.00  0.00    +0.277 C 
ATOM     27  C   UNL     1       7.780   5.757  37.134  0.00  0.00    +0.110 C 
ATOM     28  C   UNL     1       7.785   4.215  37.199  0.00  0.00    +0.143 C 
ATOM     29  C   UNL     1       8.173   3.611  35.849  0.00  0.00    +0.133 C 
BRANCH  29  30
ATOM     30  N   UNL     1       8.090   2.142  35.898  0.00  0.00    -0.308 N 
ATOM     31  H   UNL     1       7.209   1.729  36.172  0.00  0.00    +0.149 HD
ATOM     32  C   UNL     1       9.101   1.321  35.606  0.00  0.00    +0.210 C 
ATOM     33  C   UNL     1      10.437   1.982  35.218  0.00  0.00    +0.109 C 
ATOM     34  O   UNL     1       8.998   0.094  35.642  0.00  0.00    -0.276 OA
ENDBRANCH  29  30
BRANCH  26  35
ATOM     35  C   UNL     1       5.421   6.062  36.287  0.00  0.00    +0.414 C 
ATOM     36  O   UNL     1       4.579   6.096  35.390  0.00  0.00    -0.240 OA
ATOM     37  O   UNL     1       5.059   5.854  37.446  0.00  0.00    -0.240 OA
ENDBRANCH  26  35
BRANCH  28  38
ATOM     38  O   UNL     1       8.711   3.777  38.194  0.00  0.00    -0.390 OA
ATOM     39  H   UNL     1       9.348   3.179  37.798  0.00  0.00    +0.210 HD
ENDBRANCH  28  38
BRANCH  26  40
ATOM     40  O   UNL     1       7.177   7.694  35.791  0.00  0.00    -0.343 OA
ATOM     41  C   UNL     1       7.583   8.085  34.455  0.00  0.00    +0.198 C 
ENDBRANCH  26  40
ENDBRANCH  23  24
BRANCH  23  42
ATOM     42  O   UNL     1       7.884   4.714  32.473  0.00  0.00    -0.387 OA
ATOM     43  H   UNL     1       7.360   4.671  31.670  0.00  0.00    +0.210 HD
ENDBRANCH  23  42
ENDBRANCH   1  23
TORSDOF 14
