REMARK VINA RESULT:    -5.334      2.014      2.459
REMARK INTER + INTRA:         -13.614
REMARK INTER:                 -12.621
REMARK INTRA:                  -0.994
REMARK UNBOUND:                -3.914
REMARK  Name = lig_assembled_73.pdb
REMARK  18 active torsions:
REMARK  status: ('A' for Active; 'I' for Inactive)
REMARK    1  A    between atoms: _2  and  _10
REMARK    2  A    between atoms: _3  and  _14
REMARK    3  A    between atoms: _5  and  _22
REMARK    4  A    between atoms: _7  and  _8
REMARK    5  A    between atoms: _7  and  _22
REMARK    6  A    between atoms: _13  and  _16
REMARK    7  A    between atoms: _18  and  _38
REMARK    8  A    between atoms: _20  and  _26
REMARK    9  A    between atoms: _21  and  _25
REMARK   10  A    between atoms: _25  and  _26
REMARK   11  A    between atoms: _28  and  _29
REMARK   12  A    between atoms: _30  and  _31
REMARK   13  A    between atoms: _32  and  _34
REMARK   14  A    between atoms: _34  and  _35
REMARK   15  A    between atoms: _34  and  _36
REMARK   16  A    between atoms: _36  and  _37
REMARK   17  A    between atoms: _36  and  _38
REMARK   18  A    between atoms: _39  and  _41
REMARK                            x       y       z     vdW  Elec       q    Type
REMARK                         _______ _______ _______ _____ _____    ______ ____
ROOT
ATOM      1  C   UNL     1       6.195   2.433  33.176  0.00  0.00    +0.163 C 
ENDROOT
BRANCH   1   2
ATOM      2  O   UNL     1       6.486   1.497  32.126  0.00  0.00    -0.388 OA
ATOM      3  H   UNL     1       6.199   0.619  32.390  0.00  0.00    +0.210 HD
ENDBRANCH   1   2
BRANCH   1   4
ATOM      4  C   UNL     1       7.430   3.289  33.507  0.00  0.00    +0.175 C 
BRANCH   4   5
ATOM      5  C   UNL     1       7.342   3.912  34.908  0.00  0.00    +0.176 C 
ATOM      6  O   UNL     1       7.071   5.332  34.750  0.00  0.00    -0.332 OA
ATOM      7  C   UNL     1       6.848   6.077  35.992  0.00  0.00    +0.277 C 
ATOM      8  C   UNL     1       8.037   5.877  36.964  0.00  0.00    +0.110 C 
ATOM      9  C   UNL     1       8.384   4.384  37.139  0.00  0.00    +0.143 C 
ATOM     10  C   UNL     1       8.592   3.706  35.785  0.00  0.00    +0.133 C 
BRANCH  10  11
ATOM     11  N   UNL     1       8.836   2.266  35.961  0.00  0.00    -0.308 N 
ATOM     12  H   UNL     1       8.079   1.699  36.319  0.00  0.00    +0.149 HD
ATOM     13  C   UNL     1       9.992   1.658  35.680  0.00  0.00    +0.210 C 
ATOM     14  C   UNL     1      11.133   2.553  35.161  0.00  0.00    +0.109 C 
ATOM     15  O   UNL     1      10.163   0.447  35.824  0.00  0.00    -0.276 OA
ENDBRANCH  10  11
BRANCH   7  16
ATOM     16  C   UNL     1       5.542   5.623  36.676  0.00  0.00    +0.414 C 
ATOM     17  O   UNL     1       5.064   6.280  37.600  0.00  0.00    -0.240 OA
ATOM     18  O   UNL     1       4.965   4.600  36.304  0.00  0.00    -0.240 OA
ENDBRANCH   7  16
BRANCH   9  19
ATOM     19  O   UNL     1       9.574   4.254  37.918  0.00  0.00    -0.390 OA
ATOM     20  H   UNL     1       9.354   3.904  38.784  0.00  0.00    +0.210 HD
ENDBRANCH   9  19
BRANCH   7  21
ATOM     21  O   UNL     1       6.761   7.487  35.660  0.00  0.00    -0.343 OA
ATOM     22  C   UNL     1       7.144   7.821  34.303  0.00  0.00    +0.198 C 
ENDBRANCH   7  21
ENDBRANCH   4   5
BRANCH   4  23
ATOM     23  O   UNL     1       7.600   4.320  32.515  0.00  0.00    -0.387 OA
ATOM     24  H   UNL     1       7.398   3.965  31.646  0.00  0.00    +0.210 HD
ENDBRANCH   4  23
ENDBRANCH   1   4
BRANCH   1  25
ATOM     25  C   UNL     1       5.042   3.341  32.762  0.00  0.00    +0.141 C 
BRANCH  25  28
ATOM     26  C   UNL     1       3.234   2.930  31.129  0.00  0.00    +0.401 C 
ATOM     27  O   UNL     1       2.327   3.127  31.941  0.00  0.00    -0.226 OA
ATOM     28  N   UNL     1       4.532   3.003  31.427  0.00  0.00    -0.279 N 
ATOM     29  H   UNL     1       5.201   2.815  30.695  0.00  0.00    +0.152 HD
BRANCH  26  30
ATOM     30  O   UNL     1       2.897   2.597  29.779  0.00  0.00    -0.444 OA
BRANCH  30  31
ATOM     31  C   UNL     1       1.481   2.686  29.605  0.00  0.00    +0.292 C 
BRANCH  31  33
ATOM     32  N   UNL     1       0.069   3.974  28.032  0.00  0.00    -0.131 NA
ATOM     33  C   UNL     1       1.160   3.186  28.254  0.00  0.00    +0.121 A 
ATOM     34  C   UNL     1       1.821   2.988  27.064  0.00  0.00    +0.143 A 
ATOM     35  N   UNL     1       1.092   3.690  26.132  0.00  0.00    -0.220 N 
ATOM     36  N   UNL     1       0.034   4.276  26.742  0.00  0.00    -0.060 NA
BRANCH  35  37
ATOM     37  C   UNL     1       1.326   3.828  24.740  0.00  0.00    +0.074 A 
ATOM     38  C   UNL     1       1.388   5.111  24.167  0.00  0.00    +0.032 A 
ATOM     39  C   UNL     1       1.609   5.272  22.792  0.00  0.00    +0.054 A 
ATOM     40  C   UNL     1       1.768   4.154  21.976  0.00  0.00    +0.195 A 
ATOM     41  C   UNL     1       1.707   2.885  22.550  0.00  0.00    +0.316 A 
ATOM     42  C   UNL     1       1.494   2.703  23.924  0.00  0.00    +0.116 A 
BRANCH  41  43
ATOM     43  N   UNL     1       1.858   1.702  21.726  0.00  0.00    +0.083 N 
ATOM     44  O   UNL     1       2.354   1.847  20.601  0.00  0.00    +0.042 OA
ATOM     45  O   UNL     1       1.393   0.647  22.180  0.00  0.00    -0.576 OA
ENDBRANCH  41  43
BRANCH  40  46
ATOM     46  O   UNL     1       2.004   4.312  20.644  0.00  0.00    -0.501 OA
ATOM     47  H   UNL     1       2.012   3.446  20.201  0.00  0.00    +0.292 HD
ENDBRANCH  40  46
ENDBRANCH  35  37
ENDBRANCH  31  33
ENDBRANCH  30  31
ENDBRANCH  26  30
ENDBRANCH  25  28
ENDBRANCH   1  25
TORSDOF 16
