REMARK VINA RESULT:    -5.534     26.399     28.752
REMARK INTER + INTRA:         -13.770
REMARK INTER:                 -11.805
REMARK INTRA:                  -1.965
REMARK UNBOUND:                -3.868
REMARK  Name = lig_assembled_85.pdb
REMARK  19 active torsions:
REMARK  status: ('A' for Active; 'I' for Inactive)
REMARK    1  A    between atoms: _2  and  _10
REMARK    2  A    between atoms: _3  and  _6
REMARK    3  A    between atoms: _3  and  _17
REMARK    4  A    between atoms: _5  and  _23
REMARK    5  A    between atoms: _7  and  _8
REMARK    6  A    between atoms: _7  and  _23
REMARK    7  A    between atoms: _15  and  _16
REMARK    8  A    between atoms: _19  and  _39
REMARK    9  A    between atoms: _21  and  _27
REMARK   10  A    between atoms: _22  and  _26
REMARK   11  A    between atoms: _26  and  _27
REMARK   12  A    between atoms: _29  and  _30
REMARK   13  A    between atoms: _31  and  _32
REMARK   14  A    between atoms: _33  and  _35
REMARK   15  A    between atoms: _35  and  _36
REMARK   16  A    between atoms: _35  and  _37
REMARK   17  A    between atoms: _37  and  _38
REMARK   18  A    between atoms: _37  and  _39
REMARK   19  A    between atoms: _40  and  _42
REMARK                            x       y       z     vdW  Elec       q    Type
REMARK                         _______ _______ _______ _____ _____    ______ ____
ROOT
ATOM      1  C   UNL     1      -0.606  21.451  16.122  0.00  0.00    +0.141 C 
ENDROOT
BRANCH   1   4
ATOM      2  C   UNL     1       1.046  21.879  14.335  0.00  0.00    +0.401 C 
ATOM      3  O   UNL     1       0.507  22.921  13.957  0.00  0.00    -0.226 OA
ATOM      4  N   UNL     1       0.590  21.125  15.336  0.00  0.00    -0.279 N 
ATOM      5  H   UNL     1       1.096  20.281  15.567  0.00  0.00    +0.152 HD
BRANCH   2   6
ATOM      6  O   UNL     1       2.231  21.429  13.672  0.00  0.00    -0.444 OA
BRANCH   6   7
ATOM      7  C   UNL     1       1.901  20.986  12.353  0.00  0.00    +0.292 C 
BRANCH   7   9
ATOM      8  N   UNL     1       3.122  18.891  12.815  0.00  0.00    -0.131 NA
ATOM      9  C   UNL     1       2.050  19.524  12.255  0.00  0.00    +0.121 A 
ATOM     10  C   UNL     1       1.208  18.588  11.698  0.00  0.00    +0.143 A 
ATOM     11  N   UNL     1       1.815  17.382  11.949  0.00  0.00    -0.219 N 
ATOM     12  N   UNL     1       2.957  17.587  12.648  0.00  0.00    -0.060 NA
BRANCH  11  13
ATOM     13  C   UNL     1       1.364  16.073  11.672  0.00  0.00    +0.080 A 
ATOM     14  C   UNL     1       1.826  15.291  10.601  0.00  0.00    +0.062 A 
ATOM     15  C   UNL     1       1.112  14.108  10.296  0.00  0.00    +0.016 A 
ATOM     16  C   UNL     1      -0.001  13.703  11.040  0.00  0.00    +0.021 A 
ATOM     17  C   UNL     1      -0.396  14.452  12.138  0.00  0.00    +0.043 A 
ATOM     18 CL   UNL     1      -1.783  13.989  13.043  0.00  0.00    -0.083 Cl
ATOM     19  C   UNL     1       0.294  15.613  12.473  0.00  0.00    +0.048 A 
BRANCH  14  20
ATOM     20  C   UNL     1       2.950  15.572   9.659  0.00  0.00    +0.248 C 
ATOM     21  O   UNL     1       3.983  14.933   9.873  0.00  0.00    -0.270 OA
ATOM     22  N   UNL     1       2.893  16.531   8.641  0.00  0.00    -0.304 N 
ATOM     23  C   UNL     1       1.728  17.272   8.175  0.00  0.00    +0.132 C 
ATOM     24  C   UNL     1       4.092  16.678   7.822  0.00  0.00    +0.132 C 
ENDBRANCH  14  20
ENDBRANCH  11  13
ENDBRANCH   7   9
ENDBRANCH   6   7
ENDBRANCH   2   6
ENDBRANCH   1   4
BRANCH   1  25
ATOM     25  C   UNL     1      -0.490  20.964  17.563  0.00  0.00    +0.163 C 
BRANCH  25  26
ATOM     26  O   UNL     1       0.547  21.689  18.244  0.00  0.00    -0.388 OA
ATOM     27  H   UNL     1       0.508  22.615  17.995  0.00  0.00    +0.210 HD
ENDBRANCH  25  26
BRANCH  25  28
ATOM     28  C   UNL     1      -1.842  21.139  18.275  0.00  0.00    +0.175 C 
BRANCH  28  29
ATOM     29  C   UNL     1      -1.801  20.638  19.726  0.00  0.00    +0.176 C 
ATOM     30  O   UNL     1      -2.750  19.544  19.849  0.00  0.00    -0.332 OA
ATOM     31  C   UNL     1      -2.771  18.866  21.149  0.00  0.00    +0.277 C 
ATOM     32  C   UNL     1      -3.002  19.889  22.288  0.00  0.00    +0.110 C 
ATOM     33  C   UNL     1      -2.036  21.087  22.181  0.00  0.00    +0.143 C 
ATOM     34  C   UNL     1      -2.092  21.715  20.788  0.00  0.00    +0.133 C 
BRANCH  34  35
ATOM     35  N   UNL     1      -1.105  22.800  20.671  0.00  0.00    -0.308 N 
ATOM     36  H   UNL     1      -0.127  22.559  20.751  0.00  0.00    +0.149 HD
ATOM     37  C   UNL     1      -1.418  24.083  20.467  0.00  0.00    +0.210 C 
ATOM     38  C   UNL     1      -2.918  24.421  20.377  0.00  0.00    +0.109 C 
ATOM     39  O   UNL     1      -0.569  24.968  20.359  0.00  0.00    -0.276 OA
ENDBRANCH  34  35
BRANCH  31  40
ATOM     40  C   UNL     1      -1.449  18.110  21.393  0.00  0.00    +0.414 C 
ATOM     41  O   UNL     1      -0.838  18.256  22.451  0.00  0.00    -0.240 OA
ATOM     42  O   UNL     1      -0.993  17.355  20.534  0.00  0.00    -0.240 OA
ENDBRANCH  31  40
BRANCH  33  43
ATOM     43  O   UNL     1      -2.381  22.073  23.156  0.00  0.00    -0.390 OA
ATOM     44  H   UNL     1      -3.120  21.758  23.682  0.00  0.00    +0.210 HD
ENDBRANCH  33  43
BRANCH  31  45
ATOM     45  O   UNL     1      -3.877  17.927  21.147  0.00  0.00    -0.343 OA
ATOM     46  C   UNL     1      -4.629  17.863  22.385  0.00  0.00    +0.198 C 
ENDBRANCH  31  45
ENDBRANCH  28  29
BRANCH  28  47
ATOM     47  O   UNL     1      -2.881  20.457  17.544  0.00  0.00    -0.387 OA
ATOM     48  H   UNL     1      -3.663  21.013  17.504  0.00  0.00    +0.210 HD
ENDBRANCH  28  47
ENDBRANCH  25  28
ENDBRANCH   1  25
TORSDOF 15
