REMARK VINA RESULT:    -7.476     14.610     16.934
REMARK INTER + INTRA:         -14.931
REMARK INTER:                 -12.076
REMARK INTRA:                  -2.855
REMARK UNBOUND:                -1.992
REMARK  Name = lig_assembled_25.pdb
REMARK  16 active torsions:
REMARK  status: ('A' for Active; 'I' for Inactive)
REMARK    1  A    between atoms: _2  and  _9
REMARK    2  A    between atoms: _4  and  _25
REMARK    3  A    between atoms: _6  and  _7
REMARK    4  A    between atoms: _6  and  _25
REMARK    5  A    between atoms: _21  and  _41
REMARK    6  A    between atoms: _23  and  _29
REMARK    7  A    between atoms: _24  and  _28
REMARK    8  A    between atoms: _28  and  _29
REMARK    9  A    between atoms: _31  and  _32
REMARK   10  A    between atoms: _33  and  _34
REMARK   11  A    between atoms: _35  and  _37
REMARK   12  A    between atoms: _37  and  _38
REMARK   13  A    between atoms: _37  and  _39
REMARK   14  A    between atoms: _39  and  _40
REMARK   15  A    between atoms: _39  and  _41
REMARK   16  A    between atoms: _42  and  _44
REMARK                            x       y       z     vdW  Elec       q    Type
REMARK                         _______ _______ _______ _____ _____    ______ ____
ROOT
ATOM      1  C   UNL     1      16.754   3.183  21.819  0.00  0.00    +0.141 C 
ENDROOT
BRANCH   1   4
ATOM      2  C   UNL     1      17.962   1.383  20.634  0.00  0.00    +0.401 C 
ATOM      3  O   UNL     1      18.344   2.114  19.717  0.00  0.00    -0.226 OA
ATOM      4  N   UNL     1      17.210   1.798  21.654  0.00  0.00    -0.279 N 
ATOM      5  H   UNL     1      16.938   1.120  22.353  0.00  0.00    +0.152 HD
BRANCH   2   6
ATOM      6  O   UNL     1      18.332   0.002  20.621  0.00  0.00    -0.444 OA
BRANCH   6   7
ATOM      7  C   UNL     1      19.005  -0.324  21.841  0.00  0.00    +0.292 C 
BRANCH   7   9
ATOM      8  N   UNL     1      18.726  -2.689  22.497  0.00  0.00    -0.131 NA
ATOM      9  C   UNL     1      18.285  -1.395  22.557  0.00  0.00    +0.120 A 
ATOM     10  C   UNL     1      17.144  -1.342  23.326  0.00  0.00    +0.138 A 
ATOM     11  N   UNL     1      16.927  -2.641  23.692  0.00  0.00    -0.240 N 
ATOM     12  N   UNL     1      17.893  -3.445  23.197  0.00  0.00    -0.064 NA
BRANCH  11  13
ATOM     13  C   UNL     1      15.818  -3.232  24.423  0.00  0.00    +0.170 C 
ATOM     14  C   UNL     1      16.219  -3.686  25.821  0.00  0.00    -0.011 A 
ATOM     15  C   UNL     1      15.911  -5.054  25.990  0.00  0.00    -0.012 A 
ATOM     16  C   UNL     1      15.336  -5.563  24.761  0.00  0.00    -0.012 A 
ATOM     17  C   UNL     1      14.848  -6.823  24.454  0.00  0.00    +0.009 A 
ATOM     18  C   UNL     1      14.309  -7.035  23.182  0.00  0.00    +0.001 A 
ATOM     19  C   UNL     1      14.268  -5.998  22.235  0.00  0.00    +0.000 A 
ATOM     20  C   UNL     1      14.760  -4.727  22.541  0.00  0.00    +0.006 A 
ATOM     21  C   UNL     1      16.166  -5.686  27.195  0.00  0.00    +0.009 A 
ATOM     22  C   UNL     1      16.730  -4.939  28.233  0.00  0.00    +0.001 A 
ATOM     23  C   UNL     1      17.030  -3.578  28.061  0.00  0.00    +0.000 A 
ATOM     24  C   UNL     1      16.773  -2.936  26.849  0.00  0.00    +0.006 A 
ATOM     25  C   UNL     1      15.293  -4.522  23.805  0.00  0.00    -0.011 A 
ENDBRANCH  11  13
ENDBRANCH   7   9
ENDBRANCH   6   7
ENDBRANCH   2   6
ENDBRANCH   1   4
BRANCH   1  26
ATOM     26  C   UNL     1      17.751   4.019  22.615  0.00  0.00    +0.163 C 
BRANCH  26  27
ATOM     27  O   UNL     1      17.129   5.238  23.054  0.00  0.00    -0.388 OA
ATOM     28  H   UNL     1      16.482   5.521  22.404  0.00  0.00    +0.210 HD
ENDBRANCH  26  27
BRANCH  26  29
ATOM     29  C   UNL     1      18.267   3.202  23.811  0.00  0.00    +0.175 C 
BRANCH  29  30
ATOM     30  C   UNL     1      18.366   4.048  25.089  0.00  0.00    +0.176 C 
ATOM     31  O   UNL     1      19.620   4.782  25.043  0.00  0.00    -0.332 OA
ATOM     32  C   UNL     1      19.840   5.731  26.139  0.00  0.00    +0.277 C 
ATOM     33  C   UNL     1      19.700   5.019  27.507  0.00  0.00    +0.110 C 
ATOM     34  C   UNL     1      18.396   4.199  27.591  0.00  0.00    +0.143 C 
ATOM     35  C   UNL     1      18.268   3.248  26.401  0.00  0.00    +0.133 C 
BRANCH  35  36
ATOM     36  N   UNL     1      16.981   2.535  26.447  0.00  0.00    -0.308 N 
ATOM     37  H   UNL     1      16.135   3.088  26.444  0.00  0.00    +0.149 HD
ATOM     38  C   UNL     1      16.858   1.206  26.492  0.00  0.00    +0.210 C 
ATOM     39  C   UNL     1      18.165   0.393  26.521  0.00  0.00    +0.109 C 
ATOM     40  O   UNL     1      15.766   0.636  26.514  0.00  0.00    -0.276 OA
ENDBRANCH  35  36
BRANCH  32  41
ATOM     41  C   UNL     1      18.836   6.899  26.061  0.00  0.00    +0.414 C 
ATOM     42  O   UNL     1      18.686   7.653  27.022  0.00  0.00    -0.240 OA
ATOM     43  O   UNL     1      18.176   7.088  25.038  0.00  0.00    -0.240 OA
ENDBRANCH  32  41
BRANCH  34  44
ATOM     44  O   UNL     1      18.380   3.442  28.802  0.00  0.00    -0.390 OA
ATOM     45  H   UNL     1      19.248   3.472  29.211  0.00  0.00    +0.210 HD
ENDBRANCH  34  44
BRANCH  32  46
ATOM     46  O   UNL     1      21.194   6.241  26.026  0.00  0.00    -0.343 OA
ATOM     47  C   UNL     1      22.155   5.310  25.468  0.00  0.00    +0.198 C 
ENDBRANCH  32  46
ENDBRANCH  29  30
BRANCH  29  48
ATOM     48  O   UNL     1      19.549   2.621  23.499  0.00  0.00    -0.387 OA
ATOM     49  H   UNL     1      19.445   1.971  22.800  0.00  0.00    +0.210 HD
ENDBRANCH  29  48
ENDBRANCH  26  29
ENDBRANCH   1  26
TORSDOF 14
