REMARK VINA RESULT:    -5.880     18.698     21.735
REMARK INTER + INTRA:         -13.848
REMARK INTER:                 -11.849
REMARK INTRA:                  -2.000
REMARK UNBOUND:                -2.640
REMARK  Name = lig_assembled_29.pdb
REMARK  21 active torsions:
REMARK  status: ('A' for Active; 'I' for Inactive)
REMARK    1  A    between atoms: _2  and  _9
REMARK    2  A    between atoms: _4  and  _23
REMARK    3  A    between atoms: _6  and  _7
REMARK    4  A    between atoms: _6  and  _23
REMARK    5  A    between atoms: _9  and  _10
REMARK    6  A    between atoms: _12  and  _18
REMARK    7  A    between atoms: _13  and  _18
REMARK    8  A    between atoms: _14  and  _17
REMARK    9  A    between atoms: _15  and  _17
REMARK   10  A    between atoms: _19  and  _39
REMARK   11  A    between atoms: _21  and  _27
REMARK   12  A    between atoms: _22  and  _26
REMARK   13  A    between atoms: _26  and  _27
REMARK   14  A    between atoms: _29  and  _30
REMARK   15  A    between atoms: _31  and  _32
REMARK   16  A    between atoms: _33  and  _35
REMARK   17  A    between atoms: _35  and  _36
REMARK   18  A    between atoms: _35  and  _37
REMARK   19  A    between atoms: _37  and  _38
REMARK   20  A    between atoms: _37  and  _39
REMARK   21  A    between atoms: _40  and  _42
REMARK                            x       y       z     vdW  Elec       q    Type
REMARK                         _______ _______ _______ _____ _____    ______ ____
ROOT
ATOM      1  C   UNL     1      17.485   1.605  22.095  0.00  0.00    +0.163 C 
ENDROOT
BRANCH   1   2
ATOM      2  O   UNL     1      18.143   2.148  20.939  0.00  0.00    -0.388 OA
ATOM      3  H   UNL     1      18.596   1.444  20.468  0.00  0.00    +0.210 HD
ENDBRANCH   1   2
BRANCH   1   4
ATOM      4  C   UNL     1      18.481   0.848  22.991  0.00  0.00    +0.175 C 
BRANCH   4   5
ATOM      5  C   UNL     1      17.935   0.636  24.411  0.00  0.00    +0.176 C 
ATOM      6  O   UNL     1      18.734   1.439  25.322  0.00  0.00    -0.332 OA
ATOM      7  C   UNL     1      18.290   1.445  26.719  0.00  0.00    +0.277 C 
ATOM      8  C   UNL     1      18.179  -0.003  27.257  0.00  0.00    +0.110 C 
ATOM      9  C   UNL     1      17.364  -0.904  26.305  0.00  0.00    +0.143 C 
ATOM     10  C   UNL     1      17.911  -0.831  24.879  0.00  0.00    +0.133 C 
BRANCH  10  11
ATOM     11  N   UNL     1      17.074  -1.625  23.965  0.00  0.00    -0.308 N 
ATOM     12  H   UNL     1      16.110  -1.345  23.846  0.00  0.00    +0.149 HD
ATOM     13  C   UNL     1      17.504  -2.690  23.284  0.00  0.00    +0.210 C 
ATOM     14  C   UNL     1      18.970  -3.106  23.508  0.00  0.00    +0.109 C 
ATOM     15  O   UNL     1      16.784  -3.327  22.514  0.00  0.00    -0.276 OA
ENDBRANCH  10  11
BRANCH   7  16
ATOM     16  C   UNL     1      16.925   2.151  26.856  0.00  0.00    +0.414 C 
ATOM     17  O   UNL     1      16.801   3.122  27.602  0.00  0.00    -0.240 OA
ATOM     18  O   UNL     1      15.948   1.751  26.221  0.00  0.00    -0.240 OA
ENDBRANCH   7  16
BRANCH   7  19
ATOM     19  O   UNL     1      19.286   2.150  27.504  0.00  0.00    -0.343 OA
ATOM     20  C   UNL     1      20.336   1.315  28.053  0.00  0.00    +0.198 C 
ENDBRANCH   7  19
BRANCH   9  21
ATOM     21  O   UNL     1      17.415  -2.256  26.760  0.00  0.00    -0.390 OA
ATOM     22  H   UNL     1      18.300  -2.456  27.075  0.00  0.00    +0.210 HD
ENDBRANCH   9  21
ENDBRANCH   4   5
BRANCH   4  23
ATOM     23  O   UNL     1      19.737   1.553  23.042  0.00  0.00    -0.387 OA
ATOM     24  H   UNL     1      20.102   1.494  23.928  0.00  0.00    +0.210 HD
ENDBRANCH   4  23
ENDBRANCH   1   4
BRANCH   1  25
ATOM     25  C   UNL     1      16.829   2.725  22.896  0.00  0.00    +0.141 C 
BRANCH  25  28
ATOM     26  C   UNL     1      17.725   5.022  23.048  0.00  0.00    +0.401 C 
ATOM     27  O   UNL     1      16.828   5.519  22.362  0.00  0.00    -0.226 OA
ATOM     28  N   UNL     1      17.807   3.724  23.342  0.00  0.00    -0.279 N 
ATOM     29  H   UNL     1      18.586   3.411  23.904  0.00  0.00    +0.152 HD
BRANCH  26  30
ATOM     30  O   UNL     1      18.753   5.871  23.567  0.00  0.00    -0.444 OA
BRANCH  30  31
ATOM     31  C   UNL     1      18.166   6.894  24.374  0.00  0.00    +0.292 C 
BRANCH  31  33
ATOM     32  N   UNL     1      18.843   5.613  26.386  0.00  0.00    -0.131 NA
ATOM     33  C   UNL     1      18.675   6.817  25.756  0.00  0.00    +0.120 A 
ATOM     34  C   UNL     1      19.075   7.827  26.602  0.00  0.00    +0.137 A 
ATOM     35  N   UNL     1      19.562   7.166  27.692  0.00  0.00    -0.247 N 
ATOM     36  N   UNL     1      19.378   5.839  27.579  0.00  0.00    -0.065 NA
BRANCH  35  37
ATOM     37  C   UNL     1      20.252   7.722  28.841  0.00  0.00    +0.180 C 
BRANCH  37  38
ATOM     38  C   UNL     1      19.316   8.573  29.670  0.00  0.00    -0.022 A 
ATOM     39  C   UNL     1      18.308   7.969  30.442  0.00  0.00    +0.054 A 
ATOM     40  C   UNL     1      17.485   8.740  31.276  0.00  0.00    +0.162 A 
ATOM     41  C   UNL     1      17.665  10.136  31.332  0.00  0.00    +0.162 A 
ATOM     42  C   UNL     1      18.667  10.734  30.564  0.00  0.00    +0.050 A 
ATOM     43  C   UNL     1      19.484   9.959  29.737  0.00  0.00    +0.009 A 
BRANCH  40  44
ATOM     44  O   UNL     1      16.494   8.224  32.075  0.00  0.00    -0.491 OA
ATOM     45  C   UNL     1      16.881   7.371  33.143  0.00  0.00    +0.277 C 
ENDBRANCH  40  44
BRANCH  41  46
ATOM     46  O   UNL     1      16.815  10.822  32.167  0.00  0.00    -0.491 OA
ATOM     47  C   UNL     1      17.389  11.532  33.255  0.00  0.00    +0.277 C 
ENDBRANCH  41  46
ENDBRANCH  37  38
ENDBRANCH  35  37
ENDBRANCH  31  33
ENDBRANCH  30  31
ENDBRANCH  26  30
ENDBRANCH  25  28
ENDBRANCH   1  25
TORSDOF 17
