REMARK VINA RESULT:    -5.716     14.277     17.840
REMARK INTER + INTRA:         -12.615
REMARK INTER:                 -11.093
REMARK INTRA:                  -1.521
REMARK UNBOUND:                -2.722
REMARK  Name = lig_assembled_3.pdb
REMARK  16 active torsions:
REMARK  status: ('A' for Active; 'I' for Inactive)
REMARK    1  A    between atoms: _2  and  _9
REMARK    2  A    between atoms: _4  and  _18
REMARK    3  A    between atoms: _6  and  _7
REMARK    4  A    between atoms: _6  and  _18
REMARK    5  A    between atoms: _14  and  _34
REMARK    6  A    between atoms: _16  and  _22
REMARK    7  A    between atoms: _17  and  _21
REMARK    8  A    between atoms: _21  and  _22
REMARK    9  A    between atoms: _24  and  _25
REMARK   10  A    between atoms: _26  and  _27
REMARK   11  A    between atoms: _28  and  _30
REMARK   12  A    between atoms: _30  and  _31
REMARK   13  A    between atoms: _30  and  _32
REMARK   14  A    between atoms: _32  and  _33
REMARK   15  A    between atoms: _32  and  _34
REMARK   16  A    between atoms: _35  and  _37
REMARK                            x       y       z     vdW  Elec       q    Type
REMARK                         _______ _______ _______ _____ _____    ______ ____
ROOT
ATOM      1  C   UNL     1      16.545   1.061  26.227  0.00  0.00    +0.163 C 
ENDROOT
BRANCH   1   2
ATOM      2  O   UNL     1      15.609   0.165  26.851  0.00  0.00    -0.388 OA
ATOM      3  H   UNL     1      15.888  -0.012  27.752  0.00  0.00    +0.210 HD
ENDBRANCH   1   2
BRANCH   1   4
ATOM      4  C   UNL     1      16.393   2.462  26.809  0.00  0.00    +0.141 C 
BRANCH   4   7
ATOM      5  C   UNL     1      18.339   3.752  27.616  0.00  0.00    +0.401 C 
ATOM      6  O   UNL     1      18.077   3.582  28.808  0.00  0.00    -0.226 OA
ATOM      7  N   UNL     1      17.603   3.270  26.614  0.00  0.00    -0.279 N 
ATOM      8  H   UNL     1      17.894   3.471  25.668  0.00  0.00    +0.152 HD
BRANCH   5   9
ATOM      9  O   UNL     1      19.496   4.514  27.261  0.00  0.00    -0.444 OA
BRANCH   9  10
ATOM     10  C   UNL     1      19.131   5.529  26.322  0.00  0.00    +0.292 C 
BRANCH  10  12
ATOM     11  N   UNL     1      19.058   8.001  26.242  0.00  0.00    -0.131 NA
ATOM     12  C   UNL     1      19.119   6.852  26.976  0.00  0.00    +0.121 A 
ATOM     13  C   UNL     1      19.153   7.174  28.313  0.00  0.00    +0.143 A 
ATOM     14  N   UNL     1      19.082   8.548  28.352  0.00  0.00    -0.220 N 
ATOM     15  N   UNL     1      19.042   9.026  27.083  0.00  0.00    -0.060 NA
BRANCH  14  16
ATOM     16  C   UNL     1      19.034   9.404  29.483  0.00  0.00    +0.067 A 
ATOM     17  C   UNL     1      18.192   9.117  30.567  0.00  0.00    +0.028 A 
ATOM     18  C   UNL     1      18.135   9.989  31.657  0.00  0.00    +0.002 A 
ATOM     19  C   UNL     1      18.916  11.142  31.675  0.00  0.00    +0.000 A 
ATOM     20  C   UNL     1      19.763  11.428  30.605  0.00  0.00    +0.002 A 
ATOM     21  C   UNL     1      19.824  10.562  29.510  0.00  0.00    +0.028 A 
ENDBRANCH  14  16
ENDBRANCH  10  12
ENDBRANCH   9  10
ENDBRANCH   5   9
ENDBRANCH   4   7
ENDBRANCH   1   4
BRANCH   1  22
ATOM     22  C   UNL     1      16.328   1.110  24.705  0.00  0.00    +0.175 C 
BRANCH  22  23
ATOM     23  C   UNL     1      17.517   0.520  23.932  0.00  0.00    +0.176 C 
ATOM     24  O   UNL     1      17.587   1.186  22.642  0.00  0.00    -0.332 OA
ATOM     25  C   UNL     1      18.733   0.824  21.803  0.00  0.00    +0.277 C 
ATOM     26  C   UNL     1      18.793  -0.711  21.603  0.00  0.00    +0.110 C 
ATOM     27  C   UNL     1      18.690  -1.464  22.946  0.00  0.00    +0.143 C 
ATOM     28  C   UNL     1      17.465  -1.007  23.738  0.00  0.00    +0.133 C 
BRANCH  28  29
ATOM     29  N   UNL     1      17.425  -1.669  25.052  0.00  0.00    -0.308 N 
ATOM     30  H   UNL     1      18.111  -1.392  25.740  0.00  0.00    +0.149 HD
ATOM     31  C   UNL     1      16.542  -2.610  25.395  0.00  0.00    +0.210 C 
ATOM     32  C   UNL     1      15.526  -3.028  24.315  0.00  0.00    +0.109 C 
ATOM     33  O   UNL     1      16.524  -3.136  26.508  0.00  0.00    -0.276 OA
ENDBRANCH  28  29
BRANCH  25  34
ATOM     34  C   UNL     1      20.051   1.314  22.436  0.00  0.00    +0.414 C 
ATOM     35  O   UNL     1      21.100   0.703  22.235  0.00  0.00    -0.240 OA
ATOM     36  O   UNL     1      20.067   2.319  23.147  0.00  0.00    -0.240 OA
ENDBRANCH  25  34
BRANCH  27  37
ATOM     37  O   UNL     1      18.597  -2.869  22.704  0.00  0.00    -0.390 OA
ATOM     38  H   UNL     1      17.680  -3.145  22.767  0.00  0.00    +0.210 HD
ENDBRANCH  27  37
BRANCH  25  39
ATOM     39  O   UNL     1      18.553   1.447  20.505  0.00  0.00    -0.343 OA
ATOM     40  C   UNL     1      17.222   1.962  20.251  0.00  0.00    +0.198 C 
ENDBRANCH  25  39
ENDBRANCH  22  23
BRANCH  22  41
ATOM     41  O   UNL     1      16.084   2.466  24.282  0.00  0.00    -0.387 OA
ATOM     42  H   UNL     1      15.139   2.631  24.262  0.00  0.00    +0.210 HD
ENDBRANCH  22  41
ENDBRANCH   1  22
TORSDOF 14
