REMARK VINA RESULT:    -6.190     11.668     14.452
REMARK INTER + INTRA:         -14.804
REMARK INTER:                 -12.591
REMARK INTRA:                  -2.213
REMARK UNBOUND:                -2.643
REMARK  Name = lig_assembled_37.pdb
REMARK  21 active torsions:
REMARK  status: ('A' for Active; 'I' for Inactive)
REMARK    1  A    between atoms: _2  and  _9
REMARK    2  A    between atoms: _4  and  _24
REMARK    3  A    between atoms: _6  and  _7
REMARK    4  A    between atoms: _6  and  _24
REMARK    5  A    between atoms: _9  and  _10
REMARK    6  A    between atoms: _9  and  _11
REMARK    7  A    between atoms: _11  and  _18
REMARK    8  A    between atoms: _12  and  _13
REMARK    9  A    between atoms: _12  and  _18
REMARK   10  A    between atoms: _20  and  _40
REMARK   11  A    between atoms: _22  and  _28
REMARK   12  A    between atoms: _23  and  _27
REMARK   13  A    between atoms: _27  and  _28
REMARK   14  A    between atoms: _30  and  _31
REMARK   15  A    between atoms: _32  and  _33
REMARK   16  A    between atoms: _34  and  _36
REMARK   17  A    between atoms: _36  and  _37
REMARK   18  A    between atoms: _36  and  _38
REMARK   19  A    between atoms: _38  and  _39
REMARK   20  A    between atoms: _38  and  _40
REMARK   21  A    between atoms: _41  and  _43
REMARK                            x       y       z     vdW  Elec       q    Type
REMARK                         _______ _______ _______ _____ _____    ______ ____
ROOT
ATOM      1  C   UNL     1      16.865  -0.964  27.203  0.00  0.00    +0.141 C 
ENDROOT
BRANCH   1   4
ATOM      2  C   UNL     1      15.998  -3.262  26.936  0.00  0.00    +0.401 C 
ATOM      3  O   UNL     1      17.081  -3.800  27.177  0.00  0.00    -0.226 OA
ATOM      4  N   UNL     1      15.808  -1.942  26.921  0.00  0.00    -0.279 N 
ATOM      5  H   UNL     1      14.884  -1.596  26.703  0.00  0.00    +0.152 HD
BRANCH   2   6
ATOM      6  O   UNL     1      14.863  -4.084  26.649  0.00  0.00    -0.444 OA
BRANCH   6   7
ATOM      7  C   UNL     1      14.451  -4.762  27.839  0.00  0.00    +0.292 C 
BRANCH   7   9
ATOM      8  N   UNL     1      12.910  -6.485  26.942  0.00  0.00    -0.131 NA
ATOM      9  C   UNL     1      13.103  -5.336  27.663  0.00  0.00    +0.120 A 
ATOM     10  C   UNL     1      11.890  -4.893  28.137  0.00  0.00    +0.138 A 
ATOM     11  N   UNL     1      10.992  -5.795  27.649  0.00  0.00    -0.238 N 
ATOM     12  N   UNL     1      11.613  -6.761  26.946  0.00  0.00    -0.065 NA
BRANCH  11  13
ATOM     13  C   UNL     1       9.557  -5.865  27.846  0.00  0.00    +0.214 C 
ATOM     14  C   UNL     1       9.166  -5.428  29.258  0.00  0.00    +0.045 C 
BRANCH  13  15
ATOM     15  C   UNL     1       8.823  -5.033  26.818  0.00  0.00    +0.332 C 
ATOM     16  O   UNL     1       8.287  -5.495  25.817  0.00  0.00    -0.248 OA
BRANCH  15  17
ATOM     17  O   UNL     1       8.841  -3.715  27.151  0.00  0.00    -0.458 OA
BRANCH  17  18
ATOM     18  C   UNL     1       7.909  -2.874  26.452  0.00  0.00    +0.267 C 
BRANCH  18  19
ATOM     19  C   UNL     1       6.917  -2.288  27.422  0.00  0.00    -0.010 A 
ATOM     20  C   UNL     1       5.645  -1.890  26.985  0.00  0.00    +0.007 A 
ATOM     21  C   UNL     1       4.715  -1.373  27.887  0.00  0.00    +0.000 A 
ATOM     22  C   UNL     1       5.046  -1.246  29.235  0.00  0.00    +0.000 A 
ATOM     23  C   UNL     1       6.308  -1.632  29.681  0.00  0.00    +0.000 A 
ATOM     24  C   UNL     1       7.241  -2.148  28.779  0.00  0.00    +0.007 A 
ENDBRANCH  18  19
ENDBRANCH  17  18
ENDBRANCH  15  17
ENDBRANCH  13  15
ENDBRANCH  11  13
ENDBRANCH   7   9
ENDBRANCH   6   7
ENDBRANCH   2   6
ENDBRANCH   1   4
BRANCH   1  25
ATOM     25  C   UNL     1      17.367  -0.286  25.933  0.00  0.00    +0.163 C 
BRANCH  25  26
ATOM     26  O   UNL     1      17.704  -1.277  24.947  0.00  0.00    -0.388 OA
ATOM     27  H   UNL     1      17.108  -1.200  24.199  0.00  0.00    +0.210 HD
ENDBRANCH  25  26
BRANCH  25  28
ATOM     28  C   UNL     1      16.288   0.673  25.401  0.00  0.00    +0.175 C 
BRANCH  28  29
ATOM     29  C   UNL     1      16.895   1.869  24.653  0.00  0.00    +0.176 C 
ATOM     30  O   UNL     1      17.349   1.400  23.354  0.00  0.00    -0.332 OA
ATOM     31  C   UNL     1      17.866   2.433  22.452  0.00  0.00    +0.277 C 
ATOM     32  C   UNL     1      18.995   3.237  23.141  0.00  0.00    +0.110 C 
ATOM     33  C   UNL     1      18.570   3.731  24.540  0.00  0.00    +0.143 C 
ATOM     34  C   UNL     1      18.046   2.575  25.394  0.00  0.00    +0.133 C 
BRANCH  34  35
ATOM     35  N   UNL     1      17.564   3.071  26.692  0.00  0.00    -0.308 N 
ATOM     36  H   UNL     1      16.692   3.581  26.708  0.00  0.00    +0.149 HD
ATOM     37  C   UNL     1      18.203   2.891  27.851  0.00  0.00    +0.210 C 
ATOM     38  C   UNL     1      19.543   2.133  27.790  0.00  0.00    +0.109 C 
ATOM     39  O   UNL     1      17.768   3.306  28.926  0.00  0.00    -0.276 OA
ENDBRANCH  34  35
BRANCH  31  40
ATOM     40  C   UNL     1      16.739   3.394  22.018  0.00  0.00    +0.414 C 
ATOM     41  O   UNL     1      16.902   4.611  22.087  0.00  0.00    -0.240 OA
ATOM     42  O   UNL     1      15.669   2.952  21.598  0.00  0.00    -0.240 OA
ENDBRANCH  31  40
BRANCH  31  43
ATOM     43  O   UNL     1      18.421   1.773  21.285  0.00  0.00    -0.343 OA
ATOM     44  C   UNL     1      19.509   0.855  21.560  0.00  0.00    +0.198 C 
ENDBRANCH  31  43
BRANCH  33  45
ATOM     45  O   UNL     1      19.686   4.333  25.198  0.00  0.00    -0.390 OA
ATOM     46  H   UNL     1      19.560   5.284  25.237  0.00  0.00    +0.210 HD
ENDBRANCH  33  45
ENDBRANCH  28  29
BRANCH  28  47
ATOM     47  O   UNL     1      15.457   1.135  26.485  0.00  0.00    -0.387 OA
ATOM     48  H   UNL     1      14.830   0.448  26.724  0.00  0.00    +0.210 HD
ENDBRANCH  28  47
ENDBRANCH  25  28
ENDBRANCH   1  25
TORSDOF 18
