REMARK VINA RESULT:    -6.436      3.007      5.121
REMARK INTER + INTRA:         -16.464
REMARK INTER:                 -13.127
REMARK INTRA:                  -3.338
REMARK UNBOUND:                -3.256
REMARK  Name = lig_assembled_47.pdb
REMARK  22 active torsions:
REMARK  status: ('A' for Active; 'I' for Inactive)
REMARK    1  A    between atoms: _2  and  _9
REMARK    2  A    between atoms: _4  and  _30
REMARK    3  A    between atoms: _6  and  _7
REMARK    4  A    between atoms: _6  and  _30
REMARK    5  A    between atoms: _9  and  _10
REMARK    6  A    between atoms: _10  and  _11
REMARK    7  A    between atoms: _10  and  _12
REMARK    8  A    between atoms: _11  and  _24
REMARK    9  A    between atoms: _12  and  _13
REMARK   10  A    between atoms: _12  and  _19
REMARK   11  A    between atoms: _26  and  _46
REMARK   12  A    between atoms: _28  and  _34
REMARK   13  A    between atoms: _29  and  _33
REMARK   14  A    between atoms: _33  and  _34
REMARK   15  A    between atoms: _36  and  _37
REMARK   16  A    between atoms: _38  and  _39
REMARK   17  A    between atoms: _40  and  _42
REMARK   18  A    between atoms: _42  and  _43
REMARK   19  A    between atoms: _42  and  _44
REMARK   20  A    between atoms: _44  and  _45
REMARK   21  A    between atoms: _44  and  _46
REMARK   22  A    between atoms: _47  and  _49
REMARK                            x       y       z     vdW  Elec       q    Type
REMARK                         _______ _______ _______ _____ _____    ______ ____
ROOT
ATOM      1  C   UNL     1      -2.378  20.933  15.326  0.00  0.00    +0.401 C 
ATOM      2  O   UNL     1      -3.441  20.610  15.862  0.00  0.00    -0.226 OA
ATOM      3  N   UNL     1      -1.799  20.242  14.343  0.00  0.00    -0.279 N 
ATOM      4  H   UNL     1      -0.932  20.593  13.961  0.00  0.00    +0.152 HD
ENDROOT
BRANCH   3   5
ATOM      5  C   UNL     1      -2.350  19.001  13.786  0.00  0.00    +0.141 C 
BRANCH   5   6
ATOM      6  C   UNL     1      -2.548  19.094  12.277  0.00  0.00    +0.163 C 
BRANCH   6   7
ATOM      7  O   UNL     1      -2.187  20.405  11.813  0.00  0.00    -0.388 OA
ATOM      8  H   UNL     1      -1.952  20.363  10.883  0.00  0.00    +0.210 HD
ENDBRANCH   6   7
BRANCH   6   9
ATOM      9  C   UNL     1      -1.704  18.012  11.580  0.00  0.00    +0.175 C 
BRANCH   9  10
ATOM     10  C   UNL     1      -0.203  18.184  11.856  0.00  0.00    +0.176 C 
ATOM     11  O   UNL     1       0.270  19.313  11.070  0.00  0.00    -0.332 OA
ATOM     12  C   UNL     1       1.668  19.694  11.287  0.00  0.00    +0.277 C 
ATOM     13  C   UNL     1       2.601  18.478  11.070  0.00  0.00    +0.110 C 
ATOM     14  C   UNL     1       2.121  17.243  11.861  0.00  0.00    +0.143 C 
ATOM     15  C   UNL     1       0.652  16.938  11.562  0.00  0.00    +0.133 C 
BRANCH  15  16
ATOM     16  N   UNL     1       0.182  15.813  12.386  0.00  0.00    -0.308 N 
ATOM     17  H   UNL     1       0.193  15.927  13.390  0.00  0.00    +0.149 HD
ATOM     18  C   UNL     1      -0.258  14.652  11.894  0.00  0.00    +0.210 C 
ATOM     19  C   UNL     1      -0.237  14.500  10.362  0.00  0.00    +0.109 C 
ATOM     20  O   UNL     1      -0.660  13.732  12.608  0.00  0.00    -0.276 OA
ENDBRANCH  15  16
BRANCH  12  21
ATOM     21  C   UNL     1       1.869  20.250  12.713  0.00  0.00    +0.414 C 
ATOM     22  O   UNL     1       2.932  20.069  13.305  0.00  0.00    -0.240 OA
ATOM     23  O   UNL     1       0.968  20.878  13.270  0.00  0.00    -0.240 OA
ENDBRANCH  12  21
BRANCH  12  24
ATOM     24  O   UNL     1       2.011  20.714  10.314  0.00  0.00    -0.343 OA
ATOM     25  C   UNL     1       2.654  20.220   9.111  0.00  0.00    +0.198 C 
ENDBRANCH  12  24
BRANCH  14  26
ATOM     26  O   UNL     1       2.917  16.109  11.514  0.00  0.00    -0.390 OA
ATOM     27  H   UNL     1       2.839  15.441  12.199  0.00  0.00    +0.210 HD
ENDBRANCH  14  26
ENDBRANCH   9  10
BRANCH   9  28
ATOM     28  O   UNL     1      -1.953  18.026  10.160  0.00  0.00    -0.387 OA
ATOM     29  H   UNL     1      -1.135  18.210   9.693  0.00  0.00    +0.210 HD
ENDBRANCH   9  28
ENDBRANCH   6   9
ENDBRANCH   5   6
ENDBRANCH   3   5
BRANCH   1  30
ATOM     30  O   UNL     1      -1.711  22.119  15.766  0.00  0.00    -0.444 OA
BRANCH  30  31
ATOM     31  C   UNL     1      -0.391  21.789  16.205  0.00  0.00    +0.292 C 
BRANCH  31  33
ATOM     32  N   UNL     1       0.415  22.360  18.483  0.00  0.00    -0.131 NA
ATOM     33  C   UNL     1      -0.355  21.574  17.666  0.00  0.00    +0.120 A 
ATOM     34  C   UNL     1      -0.994  20.625  18.433  0.00  0.00    +0.137 A 
ATOM     35  N   UNL     1      -0.534  20.854  19.696  0.00  0.00    -0.251 N 
ATOM     36  N   UNL     1       0.296  21.910  19.726  0.00  0.00    -0.065 NA
BRANCH  35  37
ATOM     37  C   UNL     1      -0.717  20.029  20.882  0.00  0.00    +0.160 C 
BRANCH  37  38
ATOM     38  C   UNL     1      -1.637  18.825  20.665  0.00  0.00    +0.131 C 
BRANCH  38  39
ATOM     39  C   UNL     1      -0.795  17.568  20.843  0.00  0.00    +0.311 C 
ATOM     40  O   UNL     1      -1.046  16.715  21.681  0.00  0.00    -0.251 OA
BRANCH  39  41
ATOM     41  O   UNL     1       0.199  17.369  19.953  0.00  0.00    -0.480 OA
ATOM     42  H   UNL     1       0.993  17.927  20.006  0.00  0.00    +0.295 HD
ENDBRANCH  39  41
ENDBRANCH  38  39
BRANCH  38  43
ATOM     43  C   UNL     1      -2.911  18.806  21.568  0.00  0.00    +0.064 C 
BRANCH  43  44
ATOM     44  C   UNL     1      -3.007  19.927  22.604  0.00  0.00    -0.039 A 
ATOM     45  C   UNL     1      -3.290  21.242  22.185  0.00  0.00    +0.004 A 
ATOM     46  C   UNL     1      -3.385  22.290  23.107  0.00  0.00    +0.000 A 
ATOM     47  C   UNL     1      -3.182  22.049  24.462  0.00  0.00    +0.000 A 
ATOM     48  C   UNL     1      -2.883  20.760  24.893  0.00  0.00    +0.000 A 
ATOM     49  C   UNL     1      -2.806  19.707  23.974  0.00  0.00    +0.004 A 
ENDBRANCH  43  44
BRANCH  43  50
ATOM     50  C   UNL     1      -4.172  18.680  20.703  0.00  0.00    -0.039 A 
ATOM     51  C   UNL     1      -4.250  19.332  19.462  0.00  0.00    +0.004 A 
ATOM     52  C   UNL     1      -5.454  19.363  18.750  0.00  0.00    +0.000 A 
ATOM     53  C   UNL     1      -6.584  18.724  19.254  0.00  0.00    +0.000 A 
ATOM     54  C   UNL     1      -6.513  18.042  20.463  0.00  0.00    +0.000 A 
ATOM     55  C   UNL     1      -5.318  18.021  21.180  0.00  0.00    +0.004 A 
ENDBRANCH  43  50
ENDBRANCH  38  43
ENDBRANCH  37  38
ENDBRANCH  35  37
ENDBRANCH  31  33
ENDBRANCH  30  31
ENDBRANCH   1  30
TORSDOF 20
