REMARK VINA RESULT:    -5.835     14.340     15.928
REMARK INTER + INTRA:         -12.589
REMARK INTER:                 -10.445
REMARK INTRA:                  -2.144
REMARK UNBOUND:                -2.491
REMARK  Name = lig_assembled_57.pdb
REMARK  17 active torsions:
REMARK  status: ('A' for Active; 'I' for Inactive)
REMARK    1  A    between atoms: _2  and  _10
REMARK    2  A    between atoms: _3  and  _13
REMARK    3  A    between atoms: _5  and  _19
REMARK    4  A    between atoms: _7  and  _8
REMARK    5  A    between atoms: _7  and  _19
REMARK    6  A    between atoms: _15  and  _35
REMARK    7  A    between atoms: _17  and  _23
REMARK    8  A    between atoms: _18  and  _22
REMARK    9  A    between atoms: _22  and  _23
REMARK   10  A    between atoms: _25  and  _26
REMARK   11  A    between atoms: _27  and  _28
REMARK   12  A    between atoms: _29  and  _31
REMARK   13  A    between atoms: _31  and  _32
REMARK   14  A    between atoms: _31  and  _33
REMARK   15  A    between atoms: _33  and  _34
REMARK   16  A    between atoms: _33  and  _35
REMARK   17  A    between atoms: _36  and  _38
REMARK                            x       y       z     vdW  Elec       q    Type
REMARK                         _______ _______ _______ _____ _____    ______ ____
ROOT
ATOM      1  C   UNL     1      18.806  10.122  29.178  0.00  0.00    +0.163 C 
ENDROOT
BRANCH   1   2
ATOM      2  O   UNL     1      17.535  10.756  29.399  0.00  0.00    -0.388 OA
ATOM      3  H   UNL     1      17.635  11.458  30.046  0.00  0.00    +0.210 HD
ENDBRANCH   1   2
BRANCH   1   4
ATOM      4  C   UNL     1      19.055   9.961  27.682  0.00  0.00    +0.141 C 
BRANCH   4   7
ATOM      5  C   UNL     1      19.501   8.028  26.209  0.00  0.00    +0.401 C 
ATOM      6  O   UNL     1      20.321   8.629  25.511  0.00  0.00    -0.226 OA
ATOM      7  N   UNL     1      18.857   8.575  27.241  0.00  0.00    -0.279 N 
ATOM      8  H   UNL     1      18.195   8.003  27.747  0.00  0.00    +0.152 HD
BRANCH   5   9
ATOM      9  O   UNL     1      19.204   6.661  25.910  0.00  0.00    -0.444 OA
BRANCH   9  10
ATOM     10  C   UNL     1      19.615   6.364  24.573  0.00  0.00    +0.292 C 
BRANCH  10  12
ATOM     11  N   UNL     1      17.873   5.892  22.888  0.00  0.00    -0.131 NA
ATOM     12  C   UNL     1      18.639   5.463  23.933  0.00  0.00    +0.120 A 
ATOM     13  C   UNL     1      18.342   4.143  24.198  0.00  0.00    +0.137 A 
ATOM     14  N   UNL     1      17.453   3.800  23.224  0.00  0.00    -0.248 N 
ATOM     15  N   UNL     1      17.122   4.880  22.485  0.00  0.00    -0.065 NA
BRANCH  14  16
ATOM     16  C   UNL     1      16.897   2.505  22.848  0.00  0.00    +0.111 C 
ATOM     17  C   UNL     1      17.313   2.128  21.418  0.00  0.00    +0.042 C 
ATOM     18  C   UNL     1      18.780   1.704  21.381  0.00  0.00    +0.086 C 
ATOM     19  N   UNL     1      19.066   0.561  22.254  0.00  0.00    -0.305 NA
ATOM     20  C   UNL     1      18.638   0.788  23.635  0.00  0.00    +0.086 C 
ATOM     21  C   UNL     1      18.566  -0.696  21.704  0.00  0.00    +0.104 C 
ATOM     22  C   UNL     1      17.210   1.331  23.791  0.00  0.00    +0.042 C 
ENDBRANCH  14  16
ENDBRANCH  10  12
ENDBRANCH   9  10
ENDBRANCH   5   9
ENDBRANCH   4   7
ENDBRANCH   1   4
BRANCH   1  23
ATOM     23  C   UNL     1      18.858   8.744  29.860  0.00  0.00    +0.175 C 
BRANCH  23  24
ATOM     24  C   UNL     1      18.083   8.725  31.185  0.00  0.00    +0.176 C 
ATOM     25  O   UNL     1      18.381   9.958  31.895  0.00  0.00    -0.332 OA
ATOM     26  C   UNL     1      17.642  10.165  33.145  0.00  0.00    +0.277 C 
ATOM     27  C   UNL     1      17.833   8.955  34.093  0.00  0.00    +0.110 C 
ATOM     28  C   UNL     1      17.558   7.618  33.373  0.00  0.00    +0.143 C 
ATOM     29  C   UNL     1      18.376   7.510  32.085  0.00  0.00    +0.133 C 
BRANCH  29  30
ATOM     30  N   UNL     1      18.040   6.272  31.364  0.00  0.00    -0.308 N 
ATOM     31  H   UNL     1      17.118   6.197  30.959  0.00  0.00    +0.149 HD
ATOM     32  C   UNL     1      18.875   5.241  31.210  0.00  0.00    +0.210 C 
ATOM     33  C   UNL     1      20.265   5.375  31.862  0.00  0.00    +0.109 C 
ATOM     34  O   UNL     1      18.572   4.222  30.589  0.00  0.00    -0.276 OA
ENDBRANCH  29  30
BRANCH  26  35
ATOM     35  C   UNL     1      16.139  10.367  32.864  0.00  0.00    +0.414 C 
ATOM     36  O   UNL     1      15.296   9.791  33.551  0.00  0.00    -0.240 OA
ATOM     37  O   UNL     1      15.768  11.105  31.950  0.00  0.00    -0.240 OA
ENDBRANCH  26  35
BRANCH  28  38
ATOM     38  O   UNL     1      17.891   6.529  34.235  0.00  0.00    -0.390 OA
ATOM     39  H   UNL     1      17.234   6.460  34.932  0.00  0.00    +0.210 HD
ENDBRANCH  28  38
BRANCH  26  40
ATOM     40  O   UNL     1      18.181  11.345  33.795  0.00  0.00    -0.343 OA
ATOM     41  C   UNL     1      19.061  12.150  32.971  0.00  0.00    +0.198 C 
ENDBRANCH  26  40
ENDBRANCH  23  24
BRANCH  23  42
ATOM     42  O   UNL     1      20.228   8.351  30.079  0.00  0.00    -0.387 OA
ATOM     43  H   UNL     1      20.287   7.835  30.887  0.00  0.00    +0.210 HD
ENDBRANCH  23  42
ENDBRANCH   1  23
TORSDOF 14
