REMARK VINA RESULT:    -6.201      1.933      2.689
REMARK INTER + INTRA:         -12.585
REMARK INTER:                 -10.732
REMARK INTRA:                  -1.853
REMARK UNBOUND:                -1.853
REMARK  Name = lig_assembled_86.pdb
REMARK  17 active torsions:
REMARK  status: ('A' for Active; 'I' for Inactive)
REMARK    1  A    between atoms: _2  and  _10
REMARK    2  A    between atoms: _3  and  _13
REMARK    3  A    between atoms: _5  and  _21
REMARK    4  A    between atoms: _7  and  _8
REMARK    5  A    between atoms: _7  and  _21
REMARK    6  A    between atoms: _17  and  _37
REMARK    7  A    between atoms: _19  and  _25
REMARK    8  A    between atoms: _20  and  _24
REMARK    9  A    between atoms: _24  and  _25
REMARK   10  A    between atoms: _27  and  _28
REMARK   11  A    between atoms: _29  and  _30
REMARK   12  A    between atoms: _31  and  _33
REMARK   13  A    between atoms: _33  and  _34
REMARK   14  A    between atoms: _33  and  _35
REMARK   15  A    between atoms: _35  and  _36
REMARK   16  A    between atoms: _35  and  _37
REMARK   17  A    between atoms: _38  and  _40
REMARK                            x       y       z     vdW  Elec       q    Type
REMARK                         _______ _______ _______ _____ _____    ______ ____
ROOT
ATOM      1  C   UNL     1       3.129   3.249  32.915  0.00  0.00    +0.163 C 
ENDROOT
BRANCH   1   2
ATOM      2  O   UNL     1       3.601   4.463  32.308  0.00  0.00    -0.388 OA
ATOM      3  H   UNL     1       4.436   4.718  32.707  0.00  0.00    +0.210 HD
ENDBRANCH   1   2
BRANCH   1   4
ATOM      4  C   UNL     1       1.604   3.219  32.903  0.00  0.00    +0.141 C 
BRANCH   4   7
ATOM      5  C   UNL     1       0.858   4.072  30.707  0.00  0.00    +0.401 C 
ATOM      6  O   UNL     1       1.075   5.253  30.987  0.00  0.00    -0.226 OA
ATOM      7  N   UNL     1       1.071   3.056  31.545  0.00  0.00    -0.279 N 
ATOM      8  H   UNL     1       0.853   2.122  31.227  0.00  0.00    +0.152 HD
BRANCH   5   9
ATOM      9  O   UNL     1       0.342   3.748  29.414  0.00  0.00    -0.444 OA
BRANCH   9  10
ATOM     10  C   UNL     1       1.067   2.640  28.874  0.00  0.00    +0.292 C 
BRANCH  10  12
ATOM     11  N   UNL     1       2.378   3.915  27.199  0.00  0.00    -0.131 NA
ATOM     12  C   UNL     1       1.475   2.925  27.485  0.00  0.00    +0.120 A 
ATOM     13  C   UNL     1       1.092   2.318  26.313  0.00  0.00    +0.137 A 
ATOM     14  N   UNL     1       1.821   2.955  25.356  0.00  0.00    -0.248 N 
ATOM     15  N   UNL     1       2.571   3.937  25.887  0.00  0.00    -0.065 NA
BRANCH  14  16
ATOM     16  C   UNL     1       1.850   2.667  23.930  0.00  0.00    +0.112 C 
ATOM     17  C   UNL     1       2.399   1.255  23.640  0.00  0.00    +0.045 C 
ATOM     18  C   UNL     1       1.580   0.446  22.630  0.00  0.00    +0.059 C 
ATOM     19  C   UNL     1       0.300  -0.102  23.269  0.00  0.00    +0.020 C 
ATOM     20  C   UNL     1      -0.768   0.940  22.948  0.00  0.00    +0.020 C 
ATOM     21  C   UNL     1      -0.010   2.053  22.219  0.00  0.00    +0.059 C 
ATOM     22  N   UNL     1       1.033   1.272  21.554  0.00  0.00    -0.299 NA
ATOM     23  C   UNL     1       1.985   2.017  20.752  0.00  0.00    +0.105 C 
ATOM     24  C   UNL     1       0.549   3.086  23.207  0.00  0.00    +0.045 C 
ENDBRANCH  14  16
ENDBRANCH  10  12
ENDBRANCH   9  10
ENDBRANCH   5   9
ENDBRANCH   4   7
ENDBRANCH   1   4
BRANCH   1  25
ATOM     25  C   UNL     1       3.635   3.126  34.362  0.00  0.00    +0.175 C 
BRANCH  25  26
ATOM     26  C   UNL     1       5.165   3.218  34.450  0.00  0.00    +0.176 C 
ATOM     27  O   UNL     1       5.545   4.598  34.192  0.00  0.00    -0.332 OA
ATOM     28  C   UNL     1       6.972   4.900  34.338  0.00  0.00    +0.277 C 
ATOM     29  C   UNL     1       7.820   3.950  33.457  0.00  0.00    +0.110 C 
ATOM     30  C   UNL     1       7.429   2.472  33.673  0.00  0.00    +0.143 C 
ATOM     31  C   UNL     1       5.923   2.272  33.500  0.00  0.00    +0.133 C 
BRANCH  31  32
ATOM     32  N   UNL     1       5.552   0.879  33.794  0.00  0.00    -0.308 N 
ATOM     33  H   UNL     1       5.645   0.557  34.747  0.00  0.00    +0.149 HD
ATOM     34  C   UNL     1       5.099   0.013  32.884  0.00  0.00    +0.210 C 
ATOM     35  C   UNL     1       4.992   0.527  31.436  0.00  0.00    +0.109 C 
ATOM     36  O   UNL     1       4.781  -1.144  33.162  0.00  0.00    -0.276 OA
ENDBRANCH  31  32
BRANCH  28  37
ATOM     37  C   UNL     1       7.412   4.766  35.811  0.00  0.00    +0.414 C 
ATOM     38  O   UNL     1       8.588   4.533  36.089  0.00  0.00    -0.240 OA
ATOM     39  O   UNL     1       6.591   4.890  36.721  0.00  0.00    -0.240 OA
ENDBRANCH  28  37
BRANCH  30  40
ATOM     40  O   UNL     1       8.124   1.648  32.737  0.00  0.00    -0.390 OA
ATOM     41  H   UNL     1       8.824   1.171  33.188  0.00  0.00    +0.210 HD
ENDBRANCH  30  40
BRANCH  28  42
ATOM     42  O   UNL     1       7.192   6.261  33.885  0.00  0.00    -0.343 OA
ATOM     43  C   UNL     1       6.332   7.255  34.497  0.00  0.00    +0.198 C 
ENDBRANCH  28  42
ENDBRANCH  25  26
BRANCH  25  44
ATOM     44  O   UNL     1       3.177   1.888  34.944  0.00  0.00    -0.387 OA
ATOM     45  H   UNL     1       2.335   1.643  34.554  0.00  0.00    +0.210 HD
ENDBRANCH  25  44
ENDBRANCH   1  25
TORSDOF 14
