REMARK VINA RESULT:    -7.116      1.666      2.092
REMARK INTER + INTRA:         -15.475
REMARK INTER:                 -13.385
REMARK INTRA:                  -2.091
REMARK UNBOUND:                -1.911
REMARK  Name = lig_assembled_26.pdb
REMARK  20 active torsions:
REMARK  status: ('A' for Active; 'I' for Inactive)
REMARK    1  A    between atoms: _2  and  _9
REMARK    2  A    between atoms: _4  and  _23
REMARK    3  A    between atoms: _6  and  _7
REMARK    4  A    between atoms: _6  and  _23
REMARK    5  A    between atoms: _9  and  _10
REMARK    6  A    between atoms: _9  and  _11
REMARK    7  A    between atoms: _11  and  _12
REMARK    8  A    between atoms: _12  and  _13
REMARK    9  A    between atoms: _19  and  _39
REMARK   10  A    between atoms: _21  and  _27
REMARK   11  A    between atoms: _22  and  _26
REMARK   12  A    between atoms: _26  and  _27
REMARK   13  A    between atoms: _29  and  _30
REMARK   14  A    between atoms: _31  and  _32
REMARK   15  A    between atoms: _33  and  _35
REMARK   16  A    between atoms: _35  and  _36
REMARK   17  A    between atoms: _35  and  _37
REMARK   18  A    between atoms: _37  and  _38
REMARK   19  A    between atoms: _37  and  _39
REMARK   20  A    between atoms: _40  and  _42
REMARK                            x       y       z     vdW  Elec       q    Type
REMARK                         _______ _______ _______ _____ _____    ______ ____
ROOT
ATOM      1  C   UNL     1       7.139   2.308  34.183  0.00  0.00    +0.163 C 
ENDROOT
BRANCH   1   2
ATOM      2  O   UNL     1       7.932   1.994  35.339  0.00  0.00    -0.388 OA
ATOM      3  H   UNL     1       8.842   1.841  35.072  0.00  0.00    +0.210 HD
ENDBRANCH   1   2
BRANCH   1   4
ATOM      4  C   UNL     1       7.560   3.659  33.579  0.00  0.00    +0.175 C 
BRANCH   4   5
ATOM      5  C   UNL     1       6.988   4.848  34.366  0.00  0.00    +0.176 C 
ATOM      6  O   UNL     1       7.737   4.964  35.607  0.00  0.00    -0.332 OA
ATOM      7  C   UNL     1       7.399   6.117  36.446  0.00  0.00    +0.277 C 
ATOM      8  C   UNL     1       5.880   6.139  36.748  0.00  0.00    +0.110 C 
ATOM      9  C   UNL     1       5.041   5.986  35.462  0.00  0.00    +0.143 C 
ATOM     10  C   UNL     1       5.480   4.757  34.664  0.00  0.00    +0.133 C 
BRANCH  10  11
ATOM     11  N   UNL     1       4.733   4.671  33.399  0.00  0.00    -0.308 N 
ATOM     12  H   UNL     1       4.953   5.341  32.675  0.00  0.00    +0.149 HD
ATOM     13  C   UNL     1       3.785   3.765  33.145  0.00  0.00    +0.210 C 
ATOM     14  C   UNL     1       3.456   2.775  34.277  0.00  0.00    +0.109 C 
ATOM     15  O   UNL     1       3.186   3.708  32.070  0.00  0.00    -0.276 OA
ENDBRANCH  10  11
BRANCH   7  16
ATOM     16  C   UNL     1       7.806   7.435  35.755  0.00  0.00    +0.414 C 
ATOM     17  O   UNL     1       8.131   8.413  36.428  0.00  0.00    -0.240 OA
ATOM     18  O   UNL     1       7.810   7.521  34.527  0.00  0.00    -0.240 OA
ENDBRANCH   7  16
BRANCH   7  19
ATOM     19  O   UNL     1       8.113   5.983  37.702  0.00  0.00    -0.343 OA
ATOM     20  C   UNL     1       7.343   5.402  38.785  0.00  0.00    +0.198 C 
ENDBRANCH   7  19
BRANCH   9  21
ATOM     21  O   UNL     1       3.660   5.859  35.800  0.00  0.00    -0.390 OA
ATOM     22  H   UNL     1       3.207   5.360  35.116  0.00  0.00    +0.210 HD
ENDBRANCH   9  21
ENDBRANCH   4   5
BRANCH   4  23
ATOM     23  O   UNL     1       7.151   3.735  32.199  0.00  0.00    -0.387 OA
ATOM     24  H   UNL     1       6.898   2.861  31.891  0.00  0.00    +0.210 HD
ENDBRANCH   4  23
ENDBRANCH   1   4
BRANCH   1  25
ATOM     25  C   UNL     1       7.289   1.212  33.133  0.00  0.00    +0.141 C 
BRANCH  25  28
ATOM     26  C   UNL     1       5.830  -0.207  31.732  0.00  0.00    +0.401 C 
ATOM     27  O   UNL     1       6.748  -0.597  31.006  0.00  0.00    -0.226 OA
ATOM     28  N   UNL     1       5.992   0.644  32.746  0.00  0.00    -0.279 N 
ATOM     29  H   UNL     1       5.176   0.913  33.278  0.00  0.00    +0.152 HD
BRANCH  26  30
ATOM     30  O   UNL     1       4.503  -0.678  31.487  0.00  0.00    -0.444 OA
BRANCH  30  31
ATOM     31  C   UNL     1       3.605   0.433  31.420  0.00  0.00    +0.292 C 
BRANCH  31  33
ATOM     32  N   UNL     1       3.331  -0.349  29.082  0.00  0.00    -0.131 NA
ATOM     33  C   UNL     1       3.037   0.556  30.066  0.00  0.00    +0.120 A 
ATOM     34  C   UNL     1       2.175   1.503  29.565  0.00  0.00    +0.137 A 
ATOM     35  N   UNL     1       2.001   1.142  28.263  0.00  0.00    -0.248 N 
ATOM     36  N   UNL     1       2.677   0.009  27.984  0.00  0.00    -0.065 NA
BRANCH  35  37
ATOM     37  C   UNL     1       1.168   1.751  27.237  0.00  0.00    +0.113 C 
ATOM     38  C   UNL     1      -0.142   2.357  27.761  0.00  0.00    +0.033 C 
BRANCH  37  39
ATOM     39  C   UNL     1       1.944   2.747  26.356  0.00  0.00    +0.106 C 
BRANCH  39  40
ATOM     40  C   UNL     1       2.222   2.242  24.952  0.00  0.00    +0.165 C 
ATOM     41  O   UNL     1       2.672   1.119  24.734  0.00  0.00    -0.292 OA
BRANCH  40  42
ATOM     42  C   UNL     1       1.978   3.158  23.796  0.00  0.00    +0.017 A 
ATOM     43  C   UNL     1       1.848   4.543  23.949  0.00  0.00    +0.011 A 
ATOM     44  C   UNL     1       1.663   5.356  22.828  0.00  0.00    +0.001 A 
ATOM     45  C   UNL     1       1.600   4.792  21.555  0.00  0.00    +0.000 A 
ATOM     46  C   UNL     1       1.717   3.415  21.396  0.00  0.00    +0.001 A 
ATOM     47  C   UNL     1       1.906   2.599  22.512  0.00  0.00    +0.011 A 
ENDBRANCH  40  42
ENDBRANCH  39  40
ENDBRANCH  37  39
ENDBRANCH  35  37
ENDBRANCH  31  33
ENDBRANCH  30  31
ENDBRANCH  26  30
ENDBRANCH  25  28
ENDBRANCH   1  25
TORSDOF 17
