REMARK VINA RESULT:    -6.962      1.685      2.473
REMARK INTER + INTRA:         -14.184
REMARK INTER:                 -12.355
REMARK INTRA:                  -1.829
REMARK UNBOUND:                -2.135
REMARK  Name = lig_assembled_51.pdb
REMARK  16 active torsions:
REMARK  status: ('A' for Active; 'I' for Inactive)
REMARK    1  A    between atoms: _2  and  _9
REMARK    2  A    between atoms: _4  and  _22
REMARK    3  A    between atoms: _6  and  _7
REMARK    4  A    between atoms: _6  and  _22
REMARK    5  A    between atoms: _18  and  _38
REMARK    6  A    between atoms: _20  and  _26
REMARK    7  A    between atoms: _21  and  _25
REMARK    8  A    between atoms: _25  and  _26
REMARK    9  A    between atoms: _28  and  _29
REMARK   10  A    between atoms: _30  and  _31
REMARK   11  A    between atoms: _32  and  _34
REMARK   12  A    between atoms: _34  and  _35
REMARK   13  A    between atoms: _34  and  _36
REMARK   14  A    between atoms: _36  and  _37
REMARK   15  A    between atoms: _36  and  _38
REMARK   16  A    between atoms: _39  and  _41
REMARK                            x       y       z     vdW  Elec       q    Type
REMARK                         _______ _______ _______ _____ _____    ______ ____
ROOT
ATOM      1  C   UNL     1       6.488   2.898  32.779  0.00  0.00    +0.163 C 
ENDROOT
BRANCH   1   2
ATOM      2  O   UNL     1       6.255   3.235  31.401  0.00  0.00    -0.388 OA
ATOM      3  H   UNL     1       5.389   3.641  31.313  0.00  0.00    +0.210 HD
ENDBRANCH   1   2
BRANCH   1   4
ATOM      4  C   UNL     1       5.229   3.159  33.600  0.00  0.00    +0.141 C 
BRANCH   4   7
ATOM      5  C   UNL     1       3.034   3.476  32.510  0.00  0.00    +0.401 C 
ATOM      6  O   UNL     1       2.631   2.342  32.780  0.00  0.00    -0.226 OA
ATOM      7  N   UNL     1       4.238   3.940  32.849  0.00  0.00    -0.279 N 
ATOM      8  H   UNL     1       4.482   4.881  32.574  0.00  0.00    +0.152 HD
BRANCH   5   9
ATOM      9  O   UNL     1       2.178   4.363  31.786  0.00  0.00    -0.444 OA
BRANCH   9  10
ATOM     10  C   UNL     1       0.932   3.714  31.520  0.00  0.00    +0.292 C 
BRANCH  10  12
ATOM     11  N   UNL     1      -0.291   4.404  29.482  0.00  0.00    -0.131 NA
ATOM     12  C   UNL     1       0.686   3.649  30.067  0.00  0.00    +0.120 A 
ATOM     13  C   UNL     1       1.314   2.899  29.099  0.00  0.00    +0.137 A 
ATOM     14  N   UNL     1       0.671   3.237  27.940  0.00  0.00    -0.245 N 
ATOM     15  N   UNL     1      -0.292   4.145  28.181  0.00  0.00    -0.065 NA
BRANCH  14  16
ATOM     16  C   UNL     1       0.925   2.723  26.592  0.00  0.00    +0.066 C 
ATOM     17  C   UNL     1       1.819   3.719  25.802  0.00  0.00    +0.034 C 
ATOM     18  C   UNL     1       2.137   3.176  24.398  0.00  0.00    -0.008 C 
ATOM     19  C   UNL     1       2.864   1.827  24.530  0.00  0.00    +0.007 C 
ATOM     20  C   UNL     1       1.973   0.816  25.269  0.00  0.00    -0.008 C 
ATOM     21  C   UNL     1       0.663   0.627  24.490  0.00  0.00    +0.007 C 
ATOM     22  C   UNL     1      -0.071   1.970  24.365  0.00  0.00    -0.008 C 
ATOM     23  C   UNL     1       0.827   2.973  23.624  0.00  0.00    +0.007 C 
ATOM     24  C   UNL     1       1.655   1.354  26.675  0.00  0.00    +0.034 C 
ATOM     25  C   UNL     1      -0.383   2.511  25.772  0.00  0.00    +0.034 C 
ENDBRANCH  14  16
ENDBRANCH  10  12
ENDBRANCH   9  10
ENDBRANCH   5   9
ENDBRANCH   4   7
ENDBRANCH   1   4
BRANCH   1  26
ATOM     26  C   UNL     1       7.657   3.715  33.355  0.00  0.00    +0.175 C 
BRANCH  26  27
ATOM     27  C   UNL     1       7.351   4.247  34.763  0.00  0.00    +0.176 C 
ATOM     28  O   UNL     1       7.370   5.700  34.706  0.00  0.00    -0.332 OA
ATOM     29  C   UNL     1       6.994   6.387  35.945  0.00  0.00    +0.277 C 
ATOM     30  C   UNL     1       7.870   5.898  37.124  0.00  0.00    +0.110 C 
ATOM     31  C   UNL     1       7.907   4.358  37.205  0.00  0.00    +0.143 C 
ATOM     32  C   UNL     1       8.307   3.746  35.862  0.00  0.00    +0.133 C 
BRANCH  32  33
ATOM     33  N   UNL     1       8.254   2.277  35.928  0.00  0.00    -0.308 N 
ATOM     34  H   UNL     1       7.389   1.850  36.229  0.00  0.00    +0.149 HD
ATOM     35  C   UNL     1       9.273   1.472  35.616  0.00  0.00    +0.210 C 
ATOM     36  C   UNL     1      10.585   2.155  35.186  0.00  0.00    +0.109 C 
ATOM     37  O   UNL     1       9.195   0.244  35.667  0.00  0.00    -0.276 OA
ENDBRANCH  32  33
BRANCH  29  38
ATOM     38  C   UNL     1       5.506   6.146  36.274  0.00  0.00    +0.414 C 
ATOM     39  O   UNL     1       4.686   5.997  35.368  0.00  0.00    -0.240 OA
ATOM     40  O   UNL     1       5.125   6.099  37.445  0.00  0.00    -0.240 OA
ENDBRANCH  29  38
BRANCH  31  41
ATOM     41  O   UNL     1       8.842   3.950  38.205  0.00  0.00    -0.390 OA
ATOM     42  H   UNL     1       9.306   4.720  38.542  0.00  0.00    +0.210 HD
ENDBRANCH  31  41
BRANCH  29  43
ATOM     43  O   UNL     1       7.228   7.807  35.759  0.00  0.00    -0.343 OA
ATOM     44  C   UNL     1       7.720   8.180  34.447  0.00  0.00    +0.198 C 
ENDBRANCH  29  43
ENDBRANCH  26  27
BRANCH  26  45
ATOM     45  O   UNL     1       7.982   4.807  32.472  0.00  0.00    -0.387 OA
ATOM     46  H   UNL     1       7.248   4.964  31.873  0.00  0.00    +0.210 HD
ENDBRANCH  26  45
ENDBRANCH   1  26
TORSDOF 14
