REMARK VINA RESULT:    -5.902     14.685     16.772
REMARK INTER + INTRA:         -14.792
REMARK INTER:                 -12.198
REMARK INTRA:                  -2.594
REMARK UNBOUND:                -2.852
REMARK  Name = lig_assembled_11.pdb
REMARK  22 active torsions:
REMARK  status: ('A' for Active; 'I' for Inactive)
REMARK    1  A    between atoms: _2  and  _9
REMARK    2  A    between atoms: _4  and  _21
REMARK    3  A    between atoms: _5  and  _9
REMARK    4  A    between atoms: _5  and  _13
REMARK    5  A    between atoms: _6  and  _7
REMARK    6  A    between atoms: _6  and  _21
REMARK    7  A    between atoms: _9  and  _10
REMARK    8  A    between atoms: _10  and  _11
REMARK    9  A    between atoms: _11  and  _12
REMARK   10  A    between atoms: _12  and  _15
REMARK   11  A    between atoms: _17  and  _37
REMARK   12  A    between atoms: _19  and  _25
REMARK   13  A    between atoms: _20  and  _24
REMARK   14  A    between atoms: _24  and  _25
REMARK   15  A    between atoms: _27  and  _28
REMARK   16  A    between atoms: _29  and  _30
REMARK   17  A    between atoms: _31  and  _33
REMARK   18  A    between atoms: _33  and  _34
REMARK   19  A    between atoms: _33  and  _35
REMARK   20  A    between atoms: _35  and  _36
REMARK   21  A    between atoms: _35  and  _37
REMARK   22  A    between atoms: _38  and  _40
REMARK                            x       y       z     vdW  Elec       q    Type
REMARK                         _______ _______ _______ _____ _____    ______ ____
ROOT
ATOM      1  C   UNL     1       3.667   3.587  32.434  0.00  0.00    +0.163 C 
ENDROOT
BRANCH   1   2
ATOM      2  O   UNL     1       2.808   3.935  33.532  0.00  0.00    -0.388 OA
ATOM      3  H   UNL     1       3.268   4.540  34.119  0.00  0.00    +0.210 HD
ENDBRANCH   1   2
BRANCH   1   4
ATOM      4  C   UNL     1       5.005   3.020  32.940  0.00  0.00    +0.175 C 
BRANCH   4   5
ATOM      5  C   UNL     1       5.503   3.748  34.196  0.00  0.00    +0.176 C 
ATOM      6  O   UNL     1       5.476   5.176  33.926  0.00  0.00    -0.332 OA
ATOM      7  C   UNL     1       5.821   6.042  35.057  0.00  0.00    +0.277 C 
ATOM      8  C   UNL     1       7.200   5.646  35.641  0.00  0.00    +0.110 C 
ATOM      9  C   UNL     1       7.287   4.130  35.915  0.00  0.00    +0.143 C 
ATOM     10  C   UNL     1       6.905   3.325  34.673  0.00  0.00    +0.133 C 
BRANCH  10  11
ATOM     11  N   UNL     1       6.908   1.884  34.972  0.00  0.00    -0.308 N 
ATOM     12  H   UNL     1       6.251   1.544  35.660  0.00  0.00    +0.149 HD
ATOM     13  C   UNL     1       7.722   0.997  34.394  0.00  0.00    +0.210 C 
ATOM     14  C   UNL     1       8.730   1.551  33.369  0.00  0.00    +0.109 C 
ATOM     15  O   UNL     1       7.693  -0.207  34.654  0.00  0.00    -0.276 OA
ENDBRANCH  10  11
BRANCH   7  16
ATOM     16  C   UNL     1       4.748   5.953  36.162  0.00  0.00    +0.414 C 
ATOM     17  O   UNL     1       5.019   6.279  37.317  0.00  0.00    -0.240 OA
ATOM     18  O   UNL     1       3.613   5.554  35.899  0.00  0.00    -0.240 OA
ENDBRANCH   7  16
BRANCH   7  19
ATOM     19  O   UNL     1       5.906   7.406  34.569  0.00  0.00    -0.343 OA
ATOM     20  C   UNL     1       7.253   7.929  34.445  0.00  0.00    +0.198 C 
ENDBRANCH   7  19
BRANCH   9  21
ATOM     21  O   UNL     1       8.617   3.788  36.307  0.00  0.00    -0.390 OA
ATOM     22  H   UNL     1       8.878   4.323  37.060  0.00  0.00    +0.210 HD
ENDBRANCH   9  21
ENDBRANCH   4   5
BRANCH   4  23
ATOM     23  O   UNL     1       5.999   3.089  31.898  0.00  0.00    -0.387 OA
ATOM     24  H   UNL     1       6.633   3.780  32.106  0.00  0.00    +0.210 HD
ENDBRANCH   4  23
ENDBRANCH   1   4
BRANCH   1  25
ATOM     25  C   UNL     1       2.982   2.557  31.542  0.00  0.00    +0.141 C 
BRANCH  25  28
ATOM     26  C   UNL     1       0.989   3.672  30.597  0.00  0.00    +0.401 C 
ATOM     27  O   UNL     1       0.348   3.626  31.650  0.00  0.00    -0.226 OA
ATOM     28  N   UNL     1       2.225   3.191  30.455  0.00  0.00    -0.279 N 
ATOM     29  H   UNL     1       2.665   3.267  29.549  0.00  0.00    +0.152 HD
BRANCH  26  30
ATOM     30  O   UNL     1       0.390   4.270  29.445  0.00  0.00    -0.444 OA
BRANCH  30  31
ATOM     31  C   UNL     1      -0.055   3.245  28.552  0.00  0.00    +0.292 C 
BRANCH  31  33
ATOM     32  N   UNL     1       1.892   3.882  27.161  0.00  0.00    -0.131 NA
ATOM     33  C   UNL     1       0.628   3.365  27.250  0.00  0.00    +0.120 A 
ATOM     34  C   UNL     1       0.198   3.014  25.991  0.00  0.00    +0.138 A 
ATOM     35  N   UNL     1       1.224   3.382  25.169  0.00  0.00    -0.238 N 
ATOM     36  N   UNL     1       2.252   3.876  25.884  0.00  0.00    -0.065 NA
BRANCH  35  37
ATOM     37  C   UNL     1       1.401   3.188  23.734  0.00  0.00    +0.217 C 
BRANCH  37  38
ATOM     38  C   UNL     1       2.250   1.977  23.377  0.00  0.00    +0.330 C 
ATOM     39  O   UNL     1       2.895   1.299  24.162  0.00  0.00    -0.249 OA
BRANCH  38  40
ATOM     40  O   UNL     1       2.256   1.678  22.054  0.00  0.00    -0.479 OA
ATOM     41  H   UNL     1       1.476   1.209  21.698  0.00  0.00    +0.295 HD
ENDBRANCH  38  40
ENDBRANCH  37  38
BRANCH  37  42
ATOM     42  C   UNL     1       1.882   4.474  23.037  0.00  0.00    +0.049 C 
BRANCH  42  43
ATOM     43  C   UNL     1       0.788   5.255  22.297  0.00  0.00    +0.123 C 
BRANCH  43  44
ATOM     44  C   UNL     1       0.499   4.637  20.948  0.00  0.00    +0.305 C 
ATOM     45  O   UNL     1       1.270   3.920  20.332  0.00  0.00    -0.251 OA
BRANCH  44  46
ATOM     46  O   UNL     1      -0.716   4.981  20.468  0.00  0.00    -0.481 OA
ATOM     47  H   UNL     1      -1.102   4.338  19.843  0.00  0.00    +0.295 HD
ENDBRANCH  44  46
ENDBRANCH  43  44
ENDBRANCH  42  43
ENDBRANCH  37  42
ENDBRANCH  35  37
ENDBRANCH  31  33
ENDBRANCH  30  31
ENDBRANCH  26  30
ENDBRANCH  25  28
ENDBRANCH   1  25
TORSDOF 20
