REMARK VINA RESULT:    -6.877     13.221     15.461
REMARK INTER + INTRA:         -15.504
REMARK INTER:                 -12.668
REMARK INTRA:                  -2.836
REMARK UNBOUND:                -2.597
REMARK  Name = lig_assembled_77.pdb
REMARK  19 active torsions:
REMARK  status: ('A' for Active; 'I' for Inactive)
REMARK    1  A    between atoms: _2  and  _10
REMARK    2  A    between atoms: _3  and  _17
REMARK    3  A    between atoms: _5  and  _27
REMARK    4  A    between atoms: _7  and  _8
REMARK    5  A    between atoms: _7  and  _27
REMARK    6  A    between atoms: _13  and  _47
REMARK    7  A    between atoms: _14  and  _47
REMARK    8  A    between atoms: _23  and  _43
REMARK    9  A    between atoms: _25  and  _31
REMARK   10  A    between atoms: _26  and  _30
REMARK   11  A    between atoms: _30  and  _31
REMARK   12  A    between atoms: _33  and  _34
REMARK   13  A    between atoms: _35  and  _36
REMARK   14  A    between atoms: _37  and  _39
REMARK   15  A    between atoms: _39  and  _40
REMARK   16  A    between atoms: _39  and  _41
REMARK   17  A    between atoms: _41  and  _42
REMARK   18  A    between atoms: _41  and  _43
REMARK   19  A    between atoms: _44  and  _46
REMARK                            x       y       z     vdW  Elec       q    Type
REMARK                         _______ _______ _______ _____ _____    ______ ____
ROOT
ATOM      1  C   UNL     1      20.259  11.368  29.849  0.00  0.00    +0.401 C 
ATOM      2  O   UNL     1      20.855  12.375  30.238  0.00  0.00    -0.226 OA
ATOM      3  N   UNL     1      20.463  10.145  30.338  0.00  0.00    -0.279 N 
ATOM      4  H   UNL     1      19.917   9.383  29.961  0.00  0.00    +0.152 HD
ENDROOT
BRANCH   3   5
ATOM      5  C   UNL     1      21.436   9.842  31.395  0.00  0.00    +0.141 C 
BRANCH   5   6
ATOM      6  C   UNL     1      20.789   9.823  32.776  0.00  0.00    +0.163 C 
BRANCH   6   7
ATOM      7  O   UNL     1      19.935  10.968  32.934  0.00  0.00    -0.388 OA
ATOM      8  H   UNL     1      20.037  11.323  33.821  0.00  0.00    +0.210 HD
ENDBRANCH   6   7
BRANCH   6   9
ATOM      9  C   UNL     1      19.997   8.516  32.953  0.00  0.00    +0.175 C 
BRANCH   9  10
ATOM     10  C   UNL     1      18.480   8.745  32.871  0.00  0.00    +0.176 C 
ATOM     11  O   UNL     1      18.057   9.387  34.105  0.00  0.00    -0.332 OA
ATOM     12  C   UNL     1      16.646   9.780  34.164  0.00  0.00    +0.277 C 
ATOM     13  C   UNL     1      15.733   8.565  33.866  0.00  0.00    +0.110 C 
ATOM     14  C   UNL     1      16.164   7.831  32.579  0.00  0.00    +0.143 C 
ATOM     15  C   UNL     1      17.650   7.472  32.624  0.00  0.00    +0.133 C 
BRANCH  15  16
ATOM     16  N   UNL     1      18.068   6.850  31.357  0.00  0.00    -0.308 N 
ATOM     17  H   UNL     1      17.949   7.385  30.508  0.00  0.00    +0.149 HD
ATOM     18  C   UNL     1      18.594   5.627  31.256  0.00  0.00    +0.210 C 
ATOM     19  C   UNL     1      18.737   4.828  32.565  0.00  0.00    +0.109 C 
ATOM     20  O   UNL     1      18.949   5.138  30.183  0.00  0.00    -0.276 OA
ENDBRANCH  15  16
BRANCH  12  21
ATOM     21  C   UNL     1      16.350  10.907  33.153  0.00  0.00    +0.414 C 
ATOM     22  O   UNL     1      15.322  10.880  32.477  0.00  0.00    -0.240 OA
ATOM     23  O   UNL     1      17.139  11.843  33.013  0.00  0.00    -0.240 OA
ENDBRANCH  12  21
BRANCH  14  24
ATOM     24  O   UNL     1      15.396   6.637  32.425  0.00  0.00    -0.390 OA
ATOM     25  H   UNL     1      14.501   6.789  32.739  0.00  0.00    +0.210 HD
ENDBRANCH  14  24
BRANCH  12  26
ATOM     26  O   UNL     1      16.365  10.245  35.509  0.00  0.00    -0.343 OA
ATOM     27  C   UNL     1      17.535  10.554  36.307  0.00  0.00    +0.198 C 
ENDBRANCH  12  26
ENDBRANCH   9  10
BRANCH   9  28
ATOM     28  O   UNL     1      20.338   7.895  34.209  0.00  0.00    -0.387 OA
ATOM     29  H   UNL     1      19.775   8.246  34.903  0.00  0.00    +0.210 HD
ENDBRANCH   9  28
ENDBRANCH   6   9
ENDBRANCH   5   6
ENDBRANCH   3   5
BRANCH   1  30
ATOM     30  O   UNL     1      19.281  11.498  28.814  0.00  0.00    -0.444 OA
BRANCH  30  31
ATOM     31  C   UNL     1      19.936  11.732  27.564  0.00  0.00    +0.292 C 
BRANCH  31  33
ATOM     32  N   UNL     1      21.054  10.296  25.891  0.00  0.00    -0.131 NA
ATOM     33  C   UNL     1      20.052  10.476  26.799  0.00  0.00    +0.121 A 
ATOM     34  C   UNL     1      19.269   9.345  26.834  0.00  0.00    +0.143 A 
ATOM     35  N   UNL     1      19.844   8.486  25.926  0.00  0.00    -0.220 N 
ATOM     36  N   UNL     1      20.916   9.090  25.358  0.00  0.00    -0.060 NA
BRANCH  35  37
ATOM     37  C   UNL     1      19.488   7.146  25.618  0.00  0.00    +0.067 A 
ATOM     38  C   UNL     1      18.894   6.318  26.583  0.00  0.00    +0.030 A 
ATOM     39  C   UNL     1      18.661   4.968  26.302  0.00  0.00    +0.029 A 
ATOM     40  C   UNL     1      19.019   4.450  25.055  0.00  0.00    +0.094 A 
ATOM     41  C   UNL     1      19.526   5.285  24.056  0.00  0.00    +0.029 A 
ATOM     42  C   UNL     1      19.772   6.630  24.342  0.00  0.00    +0.030 A 
BRANCH  40  43
ATOM     43  S   UNL     1      18.787   2.715  24.722  0.00  0.00    +0.025 S 
ATOM     44  O   UNL     1      20.114   2.123  24.719  0.00  0.00    -0.164 OA
ATOM     45  O   UNL     1      17.764   2.233  25.631  0.00  0.00    -0.164 OA
BRANCH  43  46
ATOM     46  C   UNL     1      18.128   2.526  23.079  0.00  0.00    +0.094 A 
ATOM     47  C   UNL     1      16.996   3.233  22.673  0.00  0.00    +0.029 A 
ATOM     48  C   UNL     1      16.468   3.015  21.395  0.00  0.00    +0.024 A 
ATOM     49  C   UNL     1      17.086   2.131  20.499  0.00  0.00    +0.025 A 
ATOM     50  C   UNL     1      18.201   1.409  20.935  0.00  0.00    +0.024 A 
ATOM     51  C   UNL     1      18.737   1.617  22.209  0.00  0.00    +0.029 A 
BRANCH  49  52
ATOM     52  N   UNL     1      16.457   1.793  19.298  0.00  0.00    -0.358 N 
ATOM     53  H   UNL     1      16.975   2.045  18.462  0.00  0.00    +0.142 HD
ATOM     54  H   UNL     1      16.101   0.844  19.263  0.00  0.00    +0.142 HD
ENDBRANCH  49  52
ENDBRANCH  43  46
ENDBRANCH  40  43
ENDBRANCH  35  37
ENDBRANCH  31  33
ENDBRANCH  30  31
ENDBRANCH   1  30
TORSDOF 17
