REMARK VINA RESULT:    -6.153     13.754     18.152
REMARK INTER + INTRA:         -13.959
REMARK INTER:                 -11.509
REMARK INTRA:                  -2.450
REMARK UNBOUND:                -2.230
REMARK  Name = lig_assembled_9.pdb
REMARK  20 active torsions:
REMARK  status: ('A' for Active; 'I' for Inactive)
REMARK    1  A    between atoms: _2  and  _9
REMARK    2  A    between atoms: _4  and  _23
REMARK    3  A    between atoms: _6  and  _7
REMARK    4  A    between atoms: _6  and  _23
REMARK    5  A    between atoms: _11  and  _12
REMARK    6  A    between atoms: _12  and  _17
REMARK    7  A    between atoms: _13  and  _14
REMARK    8  A    between atoms: _13  and  _17
REMARK    9  A    between atoms: _19  and  _39
REMARK   10  A    between atoms: _21  and  _27
REMARK   11  A    between atoms: _22  and  _26
REMARK   12  A    between atoms: _26  and  _27
REMARK   13  A    between atoms: _29  and  _30
REMARK   14  A    between atoms: _31  and  _32
REMARK   15  A    between atoms: _33  and  _35
REMARK   16  A    between atoms: _35  and  _36
REMARK   17  A    between atoms: _35  and  _37
REMARK   18  A    between atoms: _37  and  _38
REMARK   19  A    between atoms: _37  and  _39
REMARK   20  A    between atoms: _40  and  _42
REMARK                            x       y       z     vdW  Elec       q    Type
REMARK                         _______ _______ _______ _____ _____    ______ ____
ROOT
ATOM      1  C   UNL     1      16.353   1.030  25.987  0.00  0.00    +0.163 C 
ENDROOT
BRANCH   1   2
ATOM      2  O   UNL     1      16.229   2.121  25.059  0.00  0.00    -0.388 OA
ATOM      3  H   UNL     1      17.102   2.418  24.795  0.00  0.00    +0.210 HD
ENDBRANCH   1   2
BRANCH   1   4
ATOM      4  C   UNL     1      16.517  -0.307  25.245  0.00  0.00    +0.175 C 
BRANCH   4   5
ATOM      5  C   UNL     1      17.586  -0.231  24.145  0.00  0.00    +0.176 C 
ATOM      6  O   UNL     1      17.089   0.648  23.098  0.00  0.00    -0.332 OA
ATOM      7  C   UNL     1      18.027   0.926  22.006  0.00  0.00    +0.277 C 
ATOM      8  C   UNL     1      18.537  -0.396  21.381  0.00  0.00    +0.110 C 
ATOM      9  C   UNL     1      19.047  -1.376  22.459  0.00  0.00    +0.143 C 
ATOM     10  C   UNL     1      17.994  -1.590  23.547  0.00  0.00    +0.133 C 
BRANCH  10  11
ATOM     11  N   UNL     1      18.523  -2.457  24.612  0.00  0.00    -0.308 N 
ATOM     12  H   UNL     1      19.298  -2.111  25.160  0.00  0.00    +0.149 HD
ATOM     13  C   UNL     1      18.047  -3.670  24.901  0.00  0.00    +0.210 C 
ATOM     14  C   UNL     1      16.883  -4.180  24.031  0.00  0.00    +0.109 C 
ATOM     15  O   UNL     1      18.501  -4.368  25.809  0.00  0.00    -0.276 OA
ENDBRANCH  10  11
BRANCH   7  16
ATOM     16  C   UNL     1      19.226   1.754  22.512  0.00  0.00    +0.414 C 
ATOM     17  O   UNL     1      20.289   1.748  21.893  0.00  0.00    -0.240 OA
ATOM     18  O   UNL     1      19.131   2.428  23.538  0.00  0.00    -0.240 OA
ENDBRANCH   7  16
BRANCH   7  19
ATOM     19  O   UNL     1      17.316   1.671  20.983  0.00  0.00    -0.343 OA
ATOM     20  C   UNL     1      16.618   2.849  21.458  0.00  0.00    +0.198 C 
ENDBRANCH   7  19
BRANCH   9  21
ATOM     21  O   UNL     1      19.364  -2.631  21.857  0.00  0.00    -0.390 OA
ATOM     22  H   UNL     1      20.312  -2.689  21.717  0.00  0.00    +0.210 HD
ENDBRANCH   9  21
ENDBRANCH   4   5
BRANCH   4  23
ATOM     23  O   UNL     1      15.256  -0.721  24.683  0.00  0.00    -0.387 OA
ATOM     24  H   UNL     1      14.691  -1.062  25.381  0.00  0.00    +0.210 HD
ENDBRANCH   4  23
ENDBRANCH   1   4
BRANCH   1  25
ATOM     25  C   UNL     1      17.554   1.257  26.900  0.00  0.00    +0.141 C 
BRANCH  25  28
ATOM     26  C   UNL     1      19.462   2.819  27.048  0.00  0.00    +0.401 C 
ATOM     27  O   UNL     1      20.125   2.088  27.788  0.00  0.00    -0.226 OA
ATOM     28  N   UNL     1      18.248   2.513  26.590  0.00  0.00    -0.279 N 
ATOM     29  H   UNL     1      17.780   3.182  25.995  0.00  0.00    +0.152 HD
BRANCH  26  30
ATOM     30  O   UNL     1      20.007   4.079  26.647  0.00  0.00    -0.444 OA
BRANCH  30  31
ATOM     31  C   UNL     1      18.964   4.907  26.127  0.00  0.00    +0.292 C 
BRANCH  31  33
ATOM     32  N   UNL     1      19.082   7.372  25.930  0.00  0.00    -0.131 NA
ATOM     33  C   UNL     1      19.042   6.258  26.716  0.00  0.00    +0.121 A 
ATOM     34  C   UNL     1      19.076   6.637  28.037  0.00  0.00    +0.143 A 
ATOM     35  N   UNL     1      19.097   8.014  28.010  0.00  0.00    -0.220 N 
ATOM     36  N   UNL     1      19.124   8.435  26.723  0.00  0.00    -0.060 NA
BRANCH  35  37
ATOM     37  C   UNL     1      19.065   8.923  29.099  0.00  0.00    +0.068 A 
ATOM     38  C   UNL     1      18.184   8.720  30.170  0.00  0.00    +0.042 A 
ATOM     39  C   UNL     1      18.132   9.639  31.229  0.00  0.00    +0.061 A 
ATOM     40  C   UNL     1      18.971  10.760  31.215  0.00  0.00    +0.015 A 
ATOM     41  C   UNL     1      19.859  10.957  30.156  0.00  0.00    +0.003 A 
ATOM     42  C   UNL     1      19.910  10.043  29.102  0.00  0.00    +0.028 A 
BRANCH  39  43
ATOM     43  C   UNL     1      17.255   9.430  32.410  0.00  0.00    +0.339 C 
ATOM     44  O   UNL     1      17.472   9.913  33.509  0.00  0.00    -0.245 OA
BRANCH  43  45
ATOM     45  O   UNL     1      16.266   8.557  32.098  0.00  0.00    -0.461 OA
BRANCH  45  46
ATOM     46  C   UNL     1      15.934   7.606  33.118  0.00  0.00    +0.229 C 
ATOM     47  C   UNL     1      16.984   6.511  33.097  0.00  0.00    +0.048 C 
ENDBRANCH  45  46
ENDBRANCH  43  45
ENDBRANCH  39  43
ENDBRANCH  35  37
ENDBRANCH  31  33
ENDBRANCH  30  31
ENDBRANCH  26  30
ENDBRANCH  25  28
ENDBRANCH   1  25
TORSDOF 17
