REMARK VINA RESULT:    -4.528      4.657      8.054
REMARK INTER + INTRA:         -12.808
REMARK INTER:                  -9.805
REMARK INTRA:                  -3.003
REMARK UNBOUND:                -4.177
REMARK  Name = lig_assembled_50.pdb
REMARK  20 active torsions:
REMARK  status: ('A' for Active; 'I' for Inactive)
REMARK    1  A    between atoms: _2  and  _9
REMARK    2  A    between atoms: _4  and  _17
REMARK    3  A    between atoms: _5  and  _10
REMARK    4  A    between atoms: _5  and  _11
REMARK    5  A    between atoms: _6  and  _7
REMARK    6  A    between atoms: _6  and  _17
REMARK    7  A    between atoms: _9  and  _10
REMARK    8  A    between atoms: _10  and  _12
REMARK    9  A    between atoms: _13  and  _33
REMARK   10  A    between atoms: _15  and  _21
REMARK   11  A    between atoms: _16  and  _20
REMARK   12  A    between atoms: _20  and  _21
REMARK   13  A    between atoms: _23  and  _24
REMARK   14  A    between atoms: _25  and  _26
REMARK   15  A    between atoms: _27  and  _29
REMARK   16  A    between atoms: _29  and  _30
REMARK   17  A    between atoms: _29  and  _31
REMARK   18  A    between atoms: _31  and  _32
REMARK   19  A    between atoms: _31  and  _33
REMARK   20  A    between atoms: _34  and  _36
REMARK                            x       y       z     vdW  Elec       q    Type
REMARK                         _______ _______ _______ _____ _____    ______ ____
ROOT
ATOM      1  C   UNL     1      19.107   6.388  24.069  0.00  0.00    +0.163 C 
ENDROOT
BRANCH   1   2
ATOM      2  O   UNL     1      18.079   6.413  23.065  0.00  0.00    -0.388 OA
ATOM      3  H   UNL     1      17.929   7.318  22.782  0.00  0.00    +0.210 HD
ENDBRANCH   1   2
BRANCH   1   4
ATOM      4  C   UNL     1      19.729   4.986  24.185  0.00  0.00    +0.175 C 
BRANCH   4   5
ATOM      5  C   UNL     1      19.011   4.120  25.230  0.00  0.00    +0.176 C 
ATOM      6  O   UNL     1      19.996   3.695  26.212  0.00  0.00    -0.332 OA
ATOM      7  C   UNL     1      19.470   2.941  27.353  0.00  0.00    +0.277 C 
ATOM      8  C   UNL     1      18.657   1.717  26.864  0.00  0.00    +0.110 C 
ATOM      9  C   UNL     1      17.618   2.113  25.795  0.00  0.00    +0.143 C 
ATOM     10  C   UNL     1      18.273   2.896  24.656  0.00  0.00    +0.133 C 
BRANCH  10  11
ATOM     11  N   UNL     1      17.259   3.343  23.688  0.00  0.00    -0.308 N 
ATOM     12  H   UNL     1      16.580   4.025  23.997  0.00  0.00    +0.149 HD
ATOM     13  C   UNL     1      17.177   2.907  22.429  0.00  0.00    +0.210 C 
ATOM     14  C   UNL     1      18.210   1.849  21.996  0.00  0.00    +0.109 C 
ATOM     15  O   UNL     1      16.326   3.310  21.635  0.00  0.00    -0.276 OA
ENDBRANCH  10  11
BRANCH   7  16
ATOM     16  C   UNL     1      18.573   3.836  28.234  0.00  0.00    +0.414 C 
ATOM     17  O   UNL     1      18.595   5.059  28.099  0.00  0.00    -0.240 OA
ATOM     18  O   UNL     1      17.830   3.336  29.079  0.00  0.00    -0.240 OA
ENDBRANCH   7  16
BRANCH   9  19
ATOM     19  O   UNL     1      17.000   0.940  25.265  0.00  0.00    -0.390 OA
ATOM     20  H   UNL     1      16.546   0.470  25.969  0.00  0.00    +0.210 HD
ENDBRANCH   9  19
BRANCH   7  21
ATOM     21  O   UNL     1      20.596   2.461  28.132  0.00  0.00    -0.343 OA
ATOM     22  C   UNL     1      21.691   3.401  28.269  0.00  0.00    +0.198 C 
ENDBRANCH   7  21
ENDBRANCH   4   5
BRANCH   4  23
ATOM     23  O   UNL     1      21.131   5.089  24.503  0.00  0.00    -0.387 OA
ATOM     24  H   UNL     1      21.419   5.998  24.391  0.00  0.00    +0.210 HD
ENDBRANCH   4  23
ENDBRANCH   1   4
BRANCH   1  25
ATOM     25  C   UNL     1      20.194   7.401  23.727  0.00  0.00    +0.141 C 
BRANCH  25  28
ATOM     26  C   UNL     1      20.996   8.488  25.796  0.00  0.00    +0.401 C 
ATOM     27  O   UNL     1      21.724   7.547  26.121  0.00  0.00    -0.226 OA
ATOM     28  N   UNL     1      20.241   8.502  24.697  0.00  0.00    -0.279 N 
ATOM     29  H   UNL     1      19.670   9.316  24.522  0.00  0.00    +0.152 HD
BRANCH  26  30
ATOM     30  O   UNL     1      20.938   9.643  26.638  0.00  0.00    -0.444 OA
BRANCH  30  31
ATOM     31  C   UNL     1      19.581  10.078  26.760  0.00  0.00    +0.292 C 
BRANCH  31  33
ATOM     32  N   UNL     1      17.971  10.577  28.577  0.00  0.00    -0.131 NA
ATOM     33  C   UNL     1      19.129   9.968  28.161  0.00  0.00    +0.120 A 
ATOM     34  C   UNL     1      19.694   9.299  29.227  0.00  0.00    +0.137 A 
ATOM     35  N   UNL     1      18.842   9.547  30.255  0.00  0.00    -0.249 N 
ATOM     36  N   UNL     1      17.799  10.301  29.860  0.00  0.00    -0.065 NA
BRANCH  35  37
ATOM     37  C   UNL     1      18.948   9.118  31.632  0.00  0.00    +0.178 C 
BRANCH  37  38
ATOM     38  C   UNL     1      18.004   7.967  32.002  0.00  0.00    +0.161 C 
BRANCH  38  39
ATOM     39  O   UNL     1      16.869   7.885  31.136  0.00  0.00    -0.388 OA
ATOM     40  H   UNL     1      16.452   8.769  31.084  0.00  0.00    +0.210 HD
ENDBRANCH  38  39
BRANCH  38  41
ATOM     41  C   UNL     1      18.700   6.602  32.075  0.00  0.00    +0.189 C 
BRANCH  41  42
ATOM     42  O   UNL     1      18.285   5.749  31.009  0.00  0.00    -0.392 OA
ATOM     43  H   UNL     1      17.947   6.310  30.285  0.00  0.00    +0.210 HD
ENDBRANCH  41  42
ENDBRANCH  38  41
ENDBRANCH  37  38
ENDBRANCH  35  37
ENDBRANCH  31  33
ENDBRANCH  30  31
ENDBRANCH  26  30
ENDBRANCH  25  28
ENDBRANCH   1  25
TORSDOF 18
