REMARK VINA RESULT:    -6.164      5.656     11.194
REMARK INTER + INTRA:         -13.390
REMARK INTER:                 -11.684
REMARK INTRA:                  -1.707
REMARK UNBOUND:                -2.722
REMARK  Name = lig_assembled_3.pdb
REMARK  16 active torsions:
REMARK  status: ('A' for Active; 'I' for Inactive)
REMARK    1  A    between atoms: _2  and  _9
REMARK    2  A    between atoms: _4  and  _18
REMARK    3  A    between atoms: _6  and  _7
REMARK    4  A    between atoms: _6  and  _18
REMARK    5  A    between atoms: _14  and  _34
REMARK    6  A    between atoms: _16  and  _22
REMARK    7  A    between atoms: _17  and  _21
REMARK    8  A    between atoms: _21  and  _22
REMARK    9  A    between atoms: _24  and  _25
REMARK   10  A    between atoms: _26  and  _27
REMARK   11  A    between atoms: _28  and  _30
REMARK   12  A    between atoms: _30  and  _31
REMARK   13  A    between atoms: _30  and  _32
REMARK   14  A    between atoms: _32  and  _33
REMARK   15  A    between atoms: _32  and  _34
REMARK   16  A    between atoms: _35  and  _37
REMARK                            x       y       z     vdW  Elec       q    Type
REMARK                         _______ _______ _______ _____ _____    ______ ____
ROOT
ATOM      1  C   UNL     1       7.347   2.465  34.475  0.00  0.00    +0.163 C 
ENDROOT
BRANCH   1   2
ATOM      2  O   UNL     1       7.410   2.478  35.910  0.00  0.00    -0.388 OA
ATOM      3  H   UNL     1       7.069   3.314  36.239  0.00  0.00    +0.210 HD
ENDBRANCH   1   2
BRANCH   1   4
ATOM      4  C   UNL     1       8.226   1.347  33.924  0.00  0.00    +0.141 C 
BRANCH   4   7
ATOM      5  C   UNL     1      10.485   1.553  34.904  0.00  0.00    +0.401 C 
ATOM      6  O   UNL     1      10.163   1.057  35.986  0.00  0.00    -0.226 OA
ATOM      7  N   UNL     1       9.642   1.732  33.886  0.00  0.00    -0.279 N 
ATOM      8  H   UNL     1       9.997   2.157  33.041  0.00  0.00    +0.152 HD
BRANCH   5   9
ATOM      9  O   UNL     1      11.837   1.974  34.707  0.00  0.00    -0.444 OA
BRANCH   9  10
ATOM     10  C   UNL     1      12.325   2.590  35.901  0.00  0.00    +0.292 C 
BRANCH  10  12
ATOM     11  N   UNL     1      13.765   3.820  34.310  0.00  0.00    -0.131 NA
ATOM     12  C   UNL     1      13.260   3.682  35.570  0.00  0.00    +0.121 A 
ATOM     13  C   UNL     1      13.757   4.687  36.367  0.00  0.00    +0.143 A 
ATOM     14  N   UNL     1      14.553   5.442  35.535  0.00  0.00    -0.220 N 
ATOM     15  N   UNL     1      14.553   4.886  34.297  0.00  0.00    -0.060 NA
BRANCH  14  16
ATOM     16  C   UNL     1      15.272   6.629  35.829  0.00  0.00    +0.067 A 
ATOM     17  C   UNL     1      15.727   7.468  34.802  0.00  0.00    +0.028 A 
ATOM     18  C   UNL     1      16.460   8.617  35.111  0.00  0.00    +0.002 A 
ATOM     19  C   UNL     1      16.740   8.935  36.438  0.00  0.00    +0.000 A 
ATOM     20  C   UNL     1      16.283   8.110  37.464  0.00  0.00    +0.002 A 
ATOM     21  C   UNL     1      15.550   6.960  37.164  0.00  0.00    +0.028 A 
ENDBRANCH  14  16
ENDBRANCH  10  12
ENDBRANCH   9  10
ENDBRANCH   5   9
ENDBRANCH   4   7
ENDBRANCH   1   4
BRANCH   1  22
ATOM     22  C   UNL     1       7.804   3.813  33.891  0.00  0.00    +0.175 C 
BRANCH  22  23
ATOM     23  C   UNL     1       7.164   5.005  34.619  0.00  0.00    +0.176 C 
ATOM     24  O   UNL     1       7.844   5.168  35.894  0.00  0.00    -0.332 OA
ATOM     25  C   UNL     1       7.434   6.331  36.686  0.00  0.00    +0.277 C 
ATOM     26  C   UNL     1       5.902   6.323  36.908  0.00  0.00    +0.110 C 
ATOM     27  C   UNL     1       5.136   6.120  35.583  0.00  0.00    +0.143 C 
ATOM     28  C   UNL     1       5.645   4.885  34.839  0.00  0.00    +0.133 C 
BRANCH  28  29
ATOM     29  N   UNL     1       4.969   4.751  33.539  0.00  0.00    -0.308 N 
ATOM     30  H   UNL     1       5.189   5.427  32.821  0.00  0.00    +0.149 HD
ATOM     31  C   UNL     1       4.082   3.796  33.246  0.00  0.00    +0.210 C 
ATOM     32  C   UNL     1       3.748   2.797  34.370  0.00  0.00    +0.109 C 
ATOM     33  O   UNL     1       3.543   3.700  32.143  0.00  0.00    -0.276 OA
ENDBRANCH  28  29
BRANCH  25  34
ATOM     34  C   UNL     1       7.847   7.642  35.986  0.00  0.00    +0.414 C 
ATOM     35  O   UNL     1       7.878   7.707  34.758  0.00  0.00    -0.240 OA
ATOM     36  O   UNL     1       8.149   8.636  36.649  0.00  0.00    -0.240 OA
ENDBRANCH  25  34
BRANCH  27  37
ATOM     37  O   UNL     1       3.742   5.968  35.851  0.00  0.00    -0.390 OA
ATOM     38  H   UNL     1       3.407   6.764  36.270  0.00  0.00    +0.210 HD
ENDBRANCH  27  37
BRANCH  25  39
ATOM     39  O   UNL     1       8.084   6.243  37.981  0.00  0.00    -0.343 OA
ATOM     40  C   UNL     1       7.378   5.449  38.968  0.00  0.00    +0.198 C 
ENDBRANCH  25  39
ENDBRANCH  22  23
BRANCH  22  41
ATOM     41  O   UNL     1       7.504   3.872  32.483  0.00  0.00    -0.387 OA
ATOM     42  H   UNL     1       8.283   4.159  32.001  0.00  0.00    +0.210 HD
ENDBRANCH  22  41
ENDBRANCH   1  22
TORSDOF 14
