REMARK VINA RESULT:    -5.711      7.426     11.094
REMARK INTER + INTRA:         -13.525
REMARK INTER:                 -11.253
REMARK INTRA:                  -2.272
REMARK UNBOUND:                -2.640
REMARK  Name = lig_assembled_29.pdb
REMARK  21 active torsions:
REMARK  status: ('A' for Active; 'I' for Inactive)
REMARK    1  A    between atoms: _2  and  _9
REMARK    2  A    between atoms: _4  and  _23
REMARK    3  A    between atoms: _6  and  _7
REMARK    4  A    between atoms: _6  and  _23
REMARK    5  A    between atoms: _9  and  _10
REMARK    6  A    between atoms: _12  and  _18
REMARK    7  A    between atoms: _13  and  _18
REMARK    8  A    between atoms: _14  and  _17
REMARK    9  A    between atoms: _15  and  _17
REMARK   10  A    between atoms: _19  and  _39
REMARK   11  A    between atoms: _21  and  _27
REMARK   12  A    between atoms: _22  and  _26
REMARK   13  A    between atoms: _26  and  _27
REMARK   14  A    between atoms: _29  and  _30
REMARK   15  A    between atoms: _31  and  _32
REMARK   16  A    between atoms: _33  and  _35
REMARK   17  A    between atoms: _35  and  _36
REMARK   18  A    between atoms: _35  and  _37
REMARK   19  A    between atoms: _37  and  _38
REMARK   20  A    between atoms: _37  and  _39
REMARK   21  A    between atoms: _40  and  _42
REMARK                            x       y       z     vdW  Elec       q    Type
REMARK                         _______ _______ _______ _____ _____    ______ ____
ROOT
ATOM      1  C   UNL     1       1.393  -0.097  22.583  0.00  0.00    +0.163 C 
ENDROOT
BRANCH   1   2
ATOM      2  O   UNL     1       0.384  -0.099  21.559  0.00  0.00    -0.388 OA
ATOM      3  H   UNL     1       0.663   0.463  20.833  0.00  0.00    +0.210 HD
ENDBRANCH   1   2
BRANCH   1   4
ATOM      4  C   UNL     1       1.043   0.906  23.696  0.00  0.00    +0.175 C 
BRANCH   4   5
ATOM      5  C   UNL     1       0.713   2.298  23.137  0.00  0.00    +0.176 C 
ATOM      6  O   UNL     1       1.478   2.482  21.914  0.00  0.00    -0.332 OA
ATOM      7  C   UNL     1       1.210   3.721  21.178  0.00  0.00    +0.277 C 
ATOM      8  C   UNL     1       1.397   4.950  22.102  0.00  0.00    +0.110 C 
ATOM      9  C   UNL     1       0.627   4.787  23.429  0.00  0.00    +0.143 C 
ATOM     10  C   UNL     1       0.979   3.463  24.109  0.00  0.00    +0.133 C 
BRANCH  10  11
ATOM     11  N   UNL     1       0.176   3.279  25.328  0.00  0.00    -0.308 N 
ATOM     12  H   UNL     1      -0.816   3.118  25.219  0.00  0.00    +0.149 HD
ATOM     13  C   UNL     1       0.671   3.312  26.568  0.00  0.00    +0.210 C 
ATOM     14  C   UNL     1       2.181   3.586  26.700  0.00  0.00    +0.109 C 
ATOM     15  O   UNL     1      -0.024   3.140  27.570  0.00  0.00    -0.276 OA
ENDBRANCH  10  11
BRANCH   7  16
ATOM     16  C   UNL     1      -0.224   3.719  20.607  0.00  0.00    +0.414 C 
ATOM     17  O   UNL     1      -0.835   2.660  20.470  0.00  0.00    -0.240 OA
ATOM     18  O   UNL     1      -0.768   4.775  20.284  0.00  0.00    -0.240 OA
ENDBRANCH   7  16
BRANCH   7  19
ATOM     19  O   UNL     1       2.168   3.815  20.092  0.00  0.00    -0.343 OA
ATOM     20  C   UNL     1       2.367   2.589  19.345  0.00  0.00    +0.198 C 
ENDBRANCH   7  19
BRANCH   9  21
ATOM     21  O   UNL     1       0.948   5.866  24.308  0.00  0.00    -0.390 OA
ATOM     22  H   UNL     1       1.783   6.258  24.043  0.00  0.00    +0.210 HD
ENDBRANCH   9  21
ENDBRANCH   4   5
BRANCH   4  23
ATOM     23  O   UNL     1       2.127   0.996  24.642  0.00  0.00    -0.387 OA
ATOM     24  H   UNL     1       2.363   1.917  24.773  0.00  0.00    +0.210 HD
ENDBRANCH   4  23
ENDBRANCH   1   4
BRANCH   1  25
ATOM     25  C   UNL     1       1.533  -1.493  23.181  0.00  0.00    +0.141 C 
BRANCH  25  28
ATOM     26  C   UNL     1       3.165  -1.937  24.982  0.00  0.00    +0.401 C 
ATOM     27  O   UNL     1       2.319  -1.931  25.879  0.00  0.00    -0.226 OA
ATOM     28  N   UNL     1       2.887  -1.735  23.693  0.00  0.00    -0.279 N 
ATOM     29  H   UNL     1       3.651  -1.749  23.032  0.00  0.00    +0.152 HD
BRANCH  26  30
ATOM     30  O   UNL     1       4.535  -2.169  25.321  0.00  0.00    -0.444 OA
BRANCH  30  31
ATOM     31  C   UNL     1       5.371  -1.762  24.235  0.00  0.00    +0.292 C 
BRANCH  31  33
ATOM     32  N   UNL     1       7.517  -2.994  24.401  0.00  0.00    -0.131 NA
ATOM     33  C   UNL     1       6.275  -2.859  23.840  0.00  0.00    +0.120 A 
ATOM     34  C   UNL     1       6.071  -3.885  22.945  0.00  0.00    +0.137 A 
ATOM     35  N   UNL     1       7.187  -4.660  23.078  0.00  0.00    -0.247 N 
ATOM     36  N   UNL     1       8.074  -4.098  23.918  0.00  0.00    -0.065 NA
BRANCH  35  37
ATOM     37  C   UNL     1       7.452  -5.956  22.482  0.00  0.00    +0.180 C 
BRANCH  37  38
ATOM     38  C   UNL     1       8.035  -5.801  21.095  0.00  0.00    -0.022 A 
ATOM     39  C   UNL     1       7.191  -5.566  19.996  0.00  0.00    +0.054 A 
ATOM     40  C   UNL     1       7.723  -5.342  18.718  0.00  0.00    +0.162 A 
ATOM     41  C   UNL     1       9.120  -5.362  18.533  0.00  0.00    +0.162 A 
ATOM     42  C   UNL     1       9.957  -5.596  19.627  0.00  0.00    +0.050 A 
ATOM     43  C   UNL     1       9.419  -5.816  20.898  0.00  0.00    +0.009 A 
BRANCH  40  44
ATOM     44  O   UNL     1       6.968  -5.085  17.600  0.00  0.00    -0.491 OA
ATOM     45  C   UNL     1       6.095  -6.107  17.140  0.00  0.00    +0.277 C 
ENDBRANCH  40  44
BRANCH  41  46
ATOM     46  O   UNL     1       9.563  -5.141  17.252  0.00  0.00    -0.491 OA
ATOM     47  C   UNL     1       9.738  -6.271  16.409  0.00  0.00    +0.277 C 
ENDBRANCH  41  46
ENDBRANCH  37  38
ENDBRANCH  35  37
ENDBRANCH  31  33
ENDBRANCH  30  31
ENDBRANCH  26  30
ENDBRANCH  25  28
ENDBRANCH   1  25
TORSDOF 17
