REMARK VINA RESULT:    -6.156     14.425     16.093
REMARK INTER + INTRA:         -13.176
REMARK INTER:                 -11.939
REMARK INTRA:                  -1.237
REMARK UNBOUND:                -1.802
REMARK  Name = lig_assembled_36.pdb
REMARK  18 active torsions:
REMARK  status: ('A' for Active; 'I' for Inactive)
REMARK    1  A    between atoms: _2  and  _10
REMARK    2  A    between atoms: _5  and  _21
REMARK    3  A    between atoms: _7  and  _8
REMARK    4  A    between atoms: _7  and  _21
REMARK    5  A    between atoms: _10  and  _11
REMARK    6  A    between atoms: _14  and  _15
REMARK    7  A    between atoms: _17  and  _37
REMARK    8  A    between atoms: _19  and  _25
REMARK    9  A    between atoms: _20  and  _24
REMARK   10  A    between atoms: _24  and  _25
REMARK   11  A    between atoms: _27  and  _28
REMARK   12  A    between atoms: _29  and  _30
REMARK   13  A    between atoms: _31  and  _33
REMARK   14  A    between atoms: _33  and  _34
REMARK   15  A    between atoms: _33  and  _35
REMARK   16  A    between atoms: _35  and  _36
REMARK   17  A    between atoms: _35  and  _37
REMARK   18  A    between atoms: _38  and  _40
REMARK                            x       y       z     vdW  Elec       q    Type
REMARK                         _______ _______ _______ _____ _____    ______ ____
ROOT
ATOM      1  C   UNL     1       3.248   3.639  32.868  0.00  0.00    +0.163 C 
ENDROOT
BRANCH   1   2
ATOM      2  O   UNL     1       1.893   3.612  33.346  0.00  0.00    -0.388 OA
ATOM      3  H   UNL     1       1.337   3.157  32.709  0.00  0.00    +0.210 HD
ENDBRANCH   1   2
BRANCH   1   4
ATOM      4  C   UNL     1       4.238   3.321  34.001  0.00  0.00    +0.175 C 
BRANCH   4   5
ATOM      5  C   UNL     1       4.626   4.575  34.799  0.00  0.00    +0.176 C 
ATOM      6  O   UNL     1       6.076   4.687  34.777  0.00  0.00    -0.332 OA
ATOM      7  C   UNL     1       6.628   5.892  35.404  0.00  0.00    +0.277 C 
ATOM      8  C   UNL     1       6.113   6.029  36.858  0.00  0.00    +0.110 C 
ATOM      9  C   UNL     1       4.579   5.885  36.936  0.00  0.00    +0.143 C 
ATOM     10  C   UNL     1       4.114   4.599  36.251  0.00  0.00    +0.133 C 
BRANCH  10  11
ATOM     11  N   UNL     1       2.645   4.516  36.255  0.00  0.00    -0.308 N 
ATOM     12  H   UNL     1       2.131   5.220  35.743  0.00  0.00    +0.149 HD
ATOM     13  C   UNL     1       1.946   3.572  36.890  0.00  0.00    +0.210 C 
ATOM     14  C   UNL     1       2.757   2.529  37.682  0.00  0.00    +0.109 C 
ATOM     15  O   UNL     1       0.716   3.518  36.864  0.00  0.00    -0.276 OA
ENDBRANCH  10  11
BRANCH   7  16
ATOM     16  C   UNL     1       6.244   7.151  34.601  0.00  0.00    +0.414 C 
ATOM     17  O   UNL     1       5.159   7.212  34.023  0.00  0.00    -0.240 OA
ATOM     18  O   UNL     1       7.018   8.107  34.530  0.00  0.00    -0.240 OA
ENDBRANCH   7  16
BRANCH   7  19
ATOM     19  O   UNL     1       8.072   5.757  35.441  0.00  0.00    -0.343 OA
ATOM     20  C   UNL     1       8.593   5.060  36.601  0.00  0.00    +0.198 C 
ENDBRANCH   7  19
BRANCH   9  21
ATOM     21  O   UNL     1       4.165   5.866  38.303  0.00  0.00    -0.390 OA
ATOM     22  H   UNL     1       4.463   6.667  38.739  0.00  0.00    +0.210 HD
ENDBRANCH   9  21
ENDBRANCH   4   5
BRANCH   4  23
ATOM     23  O   UNL     1       5.417   2.687  33.467  0.00  0.00    -0.387 OA
ATOM     24  H   UNL     1       6.190   2.985  33.953  0.00  0.00    +0.210 HD
ENDBRANCH   4  23
ENDBRANCH   1   4
BRANCH   1  25
ATOM     25  C   UNL     1       3.423   2.629  31.739  0.00  0.00    +0.141 C 
BRANCH  25  28
ATOM     26  C   UNL     1       1.786   3.123  29.955  0.00  0.00    +0.401 C 
ATOM     27  O   UNL     1       0.845   2.582  30.540  0.00  0.00    -0.226 OA
ATOM     28  N   UNL     1       3.027   3.185  30.439  0.00  0.00    -0.279 N 
ATOM     29  H   UNL     1       3.735   3.642  29.881  0.00  0.00    +0.152 HD
BRANCH  26  30
ATOM     30  O   UNL     1       1.558   3.721  28.677  0.00  0.00    -0.444 OA
BRANCH  30  31
ATOM     31  C   UNL     1       1.858   2.776  27.646  0.00  0.00    +0.292 C 
BRANCH  31  33
ATOM     32  N   UNL     1       2.575   4.005  25.618  0.00  0.00    -0.131 NA
ATOM     33  C   UNL     1       1.589   3.363  26.320  0.00  0.00    +0.120 A 
ATOM     34  C   UNL     1       0.430   3.368  25.578  0.00  0.00    +0.137 A 
ATOM     35  N   UNL     1       0.803   3.942  24.398  0.00  0.00    -0.247 N 
ATOM     36  N   UNL     1       2.076   4.373  24.446  0.00  0.00    -0.065 NA
BRANCH  35  37
ATOM     37  C   UNL     1       0.015   4.096  23.191  0.00  0.00    +0.180 C 
BRANCH  37  38
ATOM     38  C   UNL     1       0.755   3.572  21.982  0.00  0.00    -0.026 A 
ATOM     39  C   UNL     1       1.124   2.222  21.891  0.00  0.00    +0.007 A 
ATOM     40  C   UNL     1       1.805   1.746  20.766  0.00  0.00    +0.019 A 
ATOM     41  C   UNL     1       2.131   2.614  19.720  0.00  0.00    +0.052 A 
ATOM     42  C   UNL     1       1.789   3.965  19.813  0.00  0.00    +0.019 A 
ATOM     43  C   UNL     1       1.109   4.442  20.938  0.00  0.00    +0.007 A 
BRANCH  41  44
ATOM     44  C   UNL     1       2.811   2.118  18.557  0.00  0.00    +0.099 C 
ATOM     45  N   UNL     1       3.354   1.708  17.617  0.00  0.00    -0.191 NA
ENDBRANCH  41  44
ENDBRANCH  37  38
ENDBRANCH  35  37
ENDBRANCH  31  33
ENDBRANCH  30  31
ENDBRANCH  26  30
ENDBRANCH  25  28
ENDBRANCH   1  25
TORSDOF 16
