REMARK VINA RESULT:    -4.901     13.310     20.001
REMARK INTER + INTRA:         -12.656
REMARK INTER:                 -10.779
REMARK INTRA:                  -1.877
REMARK UNBOUND:                -3.888
REMARK  Name = lig_assembled_46.pdb
REMARK  17 active torsions:
REMARK  status: ('A' for Active; 'I' for Inactive)
REMARK    1  A    between atoms: _2  and  _9
REMARK    2  A    between atoms: _4  and  _19
REMARK    3  A    between atoms: _6  and  _7
REMARK    4  A    between atoms: _6  and  _19
REMARK    5  A    between atoms: _9  and  _10
REMARK    6  A    between atoms: _15  and  _35
REMARK    7  A    between atoms: _17  and  _23
REMARK    8  A    between atoms: _18  and  _22
REMARK    9  A    between atoms: _22  and  _23
REMARK   10  A    between atoms: _25  and  _26
REMARK   11  A    between atoms: _27  and  _28
REMARK   12  A    between atoms: _29  and  _31
REMARK   13  A    between atoms: _31  and  _32
REMARK   14  A    between atoms: _31  and  _33
REMARK   15  A    between atoms: _33  and  _34
REMARK   16  A    between atoms: _33  and  _35
REMARK   17  A    between atoms: _36  and  _38
REMARK                            x       y       z     vdW  Elec       q    Type
REMARK                         _______ _______ _______ _____ _____    ______ ____
ROOT
ATOM      1  C   UNL     1       6.032  -1.913  13.201  0.00  0.00    +0.163 C 
ENDROOT
BRANCH   1   2
ATOM      2  O   UNL     1       7.061  -2.900  13.384  0.00  0.00    -0.388 OA
ATOM      3  H   UNL     1       6.871  -3.419  14.169  0.00  0.00    +0.210 HD
ENDBRANCH   1   2
BRANCH   1   4
ATOM      4  C   UNL     1       4.832  -2.240  14.083  0.00  0.00    +0.141 C 
BRANCH   4   7
ATOM      5  C   UNL     1       2.763  -0.903  13.892  0.00  0.00    +0.401 C 
ATOM      6  O   UNL     1       2.178  -1.735  13.194  0.00  0.00    -0.226 OA
ATOM      7  N   UNL     1       4.007  -1.055  14.347  0.00  0.00    -0.279 N 
ATOM      8  H   UNL     1       4.405  -0.312  14.905  0.00  0.00    +0.152 HD
BRANCH   5   9
ATOM      9  O   UNL     1       2.087   0.306  14.245  0.00  0.00    -0.444 OA
BRANCH   9  10
ATOM     10  C   UNL     1       1.322   0.097  15.435  0.00  0.00    +0.292 C 
BRANCH  10  12
ATOM     11  N   UNL     1       3.148   1.045  16.811  0.00  0.00    -0.131 NA
ATOM     12  C   UNL     1       1.813   0.967  16.521  0.00  0.00    +0.120 A 
ATOM     13  C   UNL     1       1.121   1.823  17.350  0.00  0.00    +0.137 A 
ATOM     14  N   UNL     1       2.098   2.436  18.083  0.00  0.00    -0.247 N 
ATOM     15  N   UNL     1       3.315   1.954  17.765  0.00  0.00    -0.065 NA
BRANCH  14  16
ATOM     16  C   UNL     1       1.975   3.633  18.896  0.00  0.00    +0.180 C 
BRANCH  16  17
ATOM     17  C   UNL     1       1.855   3.354  20.374  0.00  0.00    -0.026 A 
ATOM     18  C   UNL     1       1.859   2.039  20.862  0.00  0.00    +0.005 A 
ATOM     19  C   UNL     1       1.844   1.793  22.238  0.00  0.00    +0.000 A 
ATOM     20  C   UNL     1       1.828   2.856  23.138  0.00  0.00    +0.000 A 
ATOM     21  C   UNL     1       1.815   4.167  22.666  0.00  0.00    +0.000 A 
ATOM     22  C   UNL     1       1.829   4.415  21.292  0.00  0.00    +0.005 A 
ENDBRANCH  16  17
ENDBRANCH  14  16
ENDBRANCH  10  12
ENDBRANCH   9  10
ENDBRANCH   5   9
ENDBRANCH   4   7
ENDBRANCH   1   4
BRANCH   1  23
ATOM     23  C   UNL     1       5.587  -1.848  11.730  0.00  0.00    +0.175 C 
BRANCH  23  24
ATOM     24  C   UNL     1       6.760  -2.061  10.761  0.00  0.00    +0.176 C 
ATOM     25  O   UNL     1       6.800  -0.928   9.852  0.00  0.00    -0.332 OA
ATOM     26  C   UNL     1       7.928  -0.906   8.915  0.00  0.00    +0.277 C 
ATOM     27  C   UNL     1       7.987  -2.226   8.109  0.00  0.00    +0.110 C 
ATOM     28  C   UNL     1       7.915  -3.461   9.031  0.00  0.00    +0.143 C 
ATOM     29  C   UNL     1       6.707  -3.379   9.965  0.00  0.00    +0.133 C 
BRANCH  29  30
ATOM     30  N   UNL     1       6.697  -4.516  10.898  0.00  0.00    -0.308 N 
ATOM     31  H   UNL     1       7.493  -4.631  11.510  0.00  0.00    +0.149 HD
ATOM     32  C   UNL     1       5.707  -5.408  10.987  0.00  0.00    +0.210 C 
ATOM     33  C   UNL     1       4.521  -5.221  10.022  0.00  0.00    +0.109 C 
ATOM     34  O   UNL     1       5.719  -6.343  11.789  0.00  0.00    -0.276 OA
ENDBRANCH  29  30
BRANCH  26  35
ATOM     35  C   UNL     1       9.260  -0.701   9.667  0.00  0.00    +0.414 C 
ATOM     36  O   UNL     1       9.284  -0.075  10.726  0.00  0.00    -0.240 OA
ATOM     37  O   UNL     1      10.309  -1.162   9.216  0.00  0.00    -0.240 OA
ENDBRANCH  26  35
BRANCH  26  38
ATOM     38  O   UNL     1       7.719   0.189   7.986  0.00  0.00    -0.343 OA
ATOM     39  C   UNL     1       6.617   0.005   7.062  0.00  0.00    +0.198 C 
ENDBRANCH  26  38
BRANCH  28  40
ATOM     40  O   UNL     1       7.819  -4.648   8.242  0.00  0.00    -0.390 OA
ATOM     41  H   UNL     1       7.306  -5.307   8.715  0.00  0.00    +0.210 HD
ENDBRANCH  28  40
ENDBRANCH  23  24
BRANCH  23  42
ATOM     42  O   UNL     1       4.944  -0.586  11.461  0.00  0.00    -0.387 OA
ATOM     43  H   UNL     1       4.936  -0.054  12.260  0.00  0.00    +0.210 HD
ENDBRANCH  23  42
ENDBRANCH   1  23
TORSDOF 15
