REMARK VINA RESULT:    -6.504      7.043     10.598
REMARK INTER + INTRA:         -14.346
REMARK INTER:                 -10.319
REMARK INTRA:                  -4.027
REMARK UNBOUND:                -3.089
REMARK  Name = lig_assembled_91.pdb
REMARK  16 active torsions:
REMARK  status: ('A' for Active; 'I' for Inactive)
REMARK    1  A    between atoms: _2  and  _10
REMARK    2  A    between atoms: _5  and  _26
REMARK    3  A    between atoms: _7  and  _8
REMARK    4  A    between atoms: _7  and  _26
REMARK    5  A    between atoms: _22  and  _42
REMARK    6  A    between atoms: _24  and  _30
REMARK    7  A    between atoms: _25  and  _29
REMARK    8  A    between atoms: _29  and  _30
REMARK    9  A    between atoms: _32  and  _33
REMARK   10  A    between atoms: _34  and  _35
REMARK   11  A    between atoms: _36  and  _38
REMARK   12  A    between atoms: _38  and  _39
REMARK   13  A    between atoms: _38  and  _40
REMARK   14  A    between atoms: _40  and  _41
REMARK   15  A    between atoms: _40  and  _42
REMARK   16  A    between atoms: _43  and  _45
REMARK                            x       y       z     vdW  Elec       q    Type
REMARK                         _______ _______ _______ _____ _____    ______ ____
ROOT
ATOM      1  C   UNL     1       1.115  -5.181  24.314  0.00  0.00    +0.401 C 
ATOM      2  O   UNL     1       0.453  -6.088  24.824  0.00  0.00    -0.226 OA
ATOM      3  N   UNL     1       2.371  -5.322  23.891  0.00  0.00    -0.279 N 
ATOM      4  H   UNL     1       2.828  -4.522  23.477  0.00  0.00    +0.152 HD
ENDROOT
BRANCH   3   5
ATOM      5  C   UNL     1       3.129  -6.576  23.994  0.00  0.00    +0.141 C 
BRANCH   5   6
ATOM      6  C   UNL     1       4.533  -6.348  24.545  0.00  0.00    +0.163 C 
BRANCH   6   7
ATOM      7  O   UNL     1       5.302  -5.560  23.621  0.00  0.00    -0.388 OA
ATOM      8  H   UNL     1       5.237  -5.942  22.742  0.00  0.00    +0.210 HD
ENDBRANCH   6   7
BRANCH   6   9
ATOM      9  C   UNL     1       4.441  -5.654  25.915  0.00  0.00    +0.175 C 
BRANCH   9  10
ATOM     10  C   UNL     1       5.252  -4.351  25.959  0.00  0.00    +0.176 C 
ATOM     11  O   UNL     1       6.628  -4.691  26.284  0.00  0.00    -0.332 OA
ATOM     12  C   UNL     1       7.578  -3.575  26.267  0.00  0.00    +0.277 C 
ATOM     13  C   UNL     1       7.089  -2.433  27.191  0.00  0.00    +0.110 C 
ATOM     14  C   UNL     1       5.620  -2.058  26.903  0.00  0.00    +0.143 C 
ATOM     15  C   UNL     1       4.720  -3.293  26.943  0.00  0.00    +0.133 C 
BRANCH  15  16
ATOM     16  N   UNL     1       3.339  -2.937  26.582  0.00  0.00    -0.308 N 
ATOM     17  H   UNL     1       3.162  -2.636  25.634  0.00  0.00    +0.149 HD
ATOM     18  C   UNL     1       2.304  -2.986  27.426  0.00  0.00    +0.210 C 
ATOM     19  C   UNL     1       2.611  -3.424  28.870  0.00  0.00    +0.109 C 
ATOM     20  O   UNL     1       1.155  -2.696  27.091  0.00  0.00    -0.276 OA
ENDBRANCH  15  16
BRANCH  12  21
ATOM     21  C   UNL     1       7.762  -3.035  24.833  0.00  0.00    +0.414 C 
ATOM     22  O   UNL     1       7.889  -3.814  23.889  0.00  0.00    -0.240 OA
ATOM     23  O   UNL     1       7.782  -1.823  24.620  0.00  0.00    -0.240 OA
ENDBRANCH  12  21
BRANCH  14  24
ATOM     24  O   UNL     1       5.165  -1.113  27.872  0.00  0.00    -0.390 OA
ATOM     25  H   UNL     1       5.875  -0.501  28.081  0.00  0.00    +0.210 HD
ENDBRANCH  14  24
BRANCH  12  26
ATOM     26  O   UNL     1       8.849  -4.059  26.773  0.00  0.00    -0.343 OA
ATOM     27  C   UNL     1       8.955  -5.501  26.881  0.00  0.00    +0.198 C 
ENDBRANCH  12  26
ENDBRANCH   9  10
BRANCH   9  28
ATOM     28  O   UNL     1       4.883  -6.550  26.955  0.00  0.00    -0.387 OA
ATOM     29  H   UNL     1       5.767  -6.865  26.752  0.00  0.00    +0.210 HD
ENDBRANCH   9  28
ENDBRANCH   6   9
ENDBRANCH   5   6
ENDBRANCH   3   5
BRANCH   1  30
ATOM     30  O   UNL     1       0.517  -3.892  24.151  0.00  0.00    -0.444 OA
BRANCH  30  31
ATOM     31  C   UNL     1       1.195  -3.179  23.114  0.00  0.00    +0.292 C 
BRANCH  31  33
ATOM     32  N   UNL     1       3.077  -1.757  23.843  0.00  0.00    -0.131 NA
ATOM     33  C   UNL     1       1.741  -1.908  23.630  0.00  0.00    +0.121 A 
ATOM     34  C   UNL     1       1.103  -0.732  23.953  0.00  0.00    +0.143 A 
ATOM     35  N   UNL     1       2.094   0.113  24.409  0.00  0.00    -0.218 N 
ATOM     36  N   UNL     1       3.283  -0.534  24.309  0.00  0.00    -0.060 NA
BRANCH  35  37
ATOM     37  C   UNL     1       1.992   1.443  24.923  0.00  0.00    +0.085 A 
ATOM     38  C   UNL     1       1.972   1.670  26.346  0.00  0.00    +0.026 A 
ATOM     39  C   UNL     1       1.843   3.015  26.746  0.00  0.00    +0.074 A 
ATOM     40  C   UNL     1       1.809   3.358  28.089  0.00  0.00    +0.028 A 
ATOM     41  C   UNL     1       1.906   2.408  29.100  0.00  0.00    +0.002 A 
ATOM     42  C   UNL     1       2.069   1.081  28.755  0.00  0.00    +0.001 A 
ATOM     43  N   UNL     1       1.768   4.037  25.896  0.00  0.00    -0.247 NA
ATOM     44  C   UNL     1       1.817   3.825  24.582  0.00  0.00    +0.074 A 
ATOM     45  C   UNL     1       1.728   4.963  23.787  0.00  0.00    +0.028 A 
ATOM     46  C   UNL     1       1.727   4.901  22.397  0.00  0.00    +0.002 A 
ATOM     47  C   UNL     1       1.805   3.668  21.783  0.00  0.00    +0.001 A 
ATOM     48  C   UNL     1       1.888   2.513  22.568  0.00  0.00    +0.012 A 
ATOM     49  C   UNL     1       2.123   0.720  27.405  0.00  0.00    +0.012 A 
ATOM     50  C   UNL     1       1.918   2.551  24.000  0.00  0.00    +0.026 A 
ENDBRANCH  35  37
ENDBRANCH  31  33
ENDBRANCH  30  31
ENDBRANCH   1  30
TORSDOF 14
