REMARK VINA RESULT:    -5.722      2.618      5.386
REMARK INTER + INTRA:         -13.661
REMARK INTER:                 -11.659
REMARK INTRA:                  -2.002
REMARK UNBOUND:                -2.754
REMARK  Name = lig_assembled_12.pdb
REMARK  19 active torsions:
REMARK  status: ('A' for Active; 'I' for Inactive)
REMARK    1  A    between atoms: _2  and  _9
REMARK    2  A    between atoms: _4  and  _21
REMARK    3  A    between atoms: _6  and  _7
REMARK    4  A    between atoms: _6  and  _21
REMARK    5  A    between atoms: _9  and  _16
REMARK    6  A    between atoms: _10  and  _11
REMARK    7  A    between atoms: _10  and  _16
REMARK    8  A    between atoms: _17  and  _37
REMARK    9  A    between atoms: _19  and  _25
REMARK   10  A    between atoms: _20  and  _24
REMARK   11  A    between atoms: _24  and  _25
REMARK   12  A    between atoms: _27  and  _28
REMARK   13  A    between atoms: _29  and  _30
REMARK   14  A    between atoms: _31  and  _33
REMARK   15  A    between atoms: _33  and  _34
REMARK   16  A    between atoms: _33  and  _35
REMARK   17  A    between atoms: _35  and  _36
REMARK   18  A    between atoms: _35  and  _37
REMARK   19  A    between atoms: _38  and  _40
REMARK                            x       y       z     vdW  Elec       q    Type
REMARK                         _______ _______ _______ _____ _____    ______ ____
ROOT
ATOM      1  C   UNL     1       6.232   2.974  34.313  0.00  0.00    +0.163 C 
ENDROOT
BRANCH   1   2
ATOM      2  O   UNL     1       5.414   2.066  35.070  0.00  0.00    -0.388 OA
ATOM      3  H   UNL     1       4.880   1.540  34.470  0.00  0.00    +0.210 HD
ENDBRANCH   1   2
BRANCH   1   4
ATOM      4  C   UNL     1       6.426   2.470  32.873  0.00  0.00    +0.175 C 
BRANCH   4   5
ATOM      5  C   UNL     1       6.821   0.986  32.828  0.00  0.00    +0.176 C 
ATOM      6  O   UNL     1       5.611   0.196  32.997  0.00  0.00    -0.332 OA
ATOM      7  C   UNL     1       5.780  -1.255  32.875  0.00  0.00    +0.277 C 
ATOM      8  C   UNL     1       6.873  -1.756  33.850  0.00  0.00    +0.110 C 
ATOM      9  C   UNL     1       8.168  -0.926  33.729  0.00  0.00    +0.143 C 
ATOM     10  C   UNL     1       7.876   0.569  33.868  0.00  0.00    +0.133 C 
BRANCH  10  11
ATOM     11  N   UNL     1       9.104   1.355  33.665  0.00  0.00    -0.308 N 
ATOM     12  H   UNL     1       9.474   1.417  32.727  0.00  0.00    +0.149 HD
ATOM     13  C   UNL     1       9.760   1.990  34.639  0.00  0.00    +0.210 C 
ATOM     14  C   UNL     1       9.185   1.854  36.062  0.00  0.00    +0.109 C 
ATOM     15  O   UNL     1      10.778   2.653  34.438  0.00  0.00    -0.276 OA
ENDBRANCH  10  11
BRANCH   7  16
ATOM     16  C   UNL     1       6.161  -1.642  31.430  0.00  0.00    +0.414 C 
ATOM     17  O   UNL     1       6.071  -0.815  30.523  0.00  0.00    -0.240 OA
ATOM     18  O   UNL     1       6.557  -2.779  31.172  0.00  0.00    -0.240 OA
ENDBRANCH   7  16
BRANCH   9  19
ATOM     19  O   UNL     1       9.091  -1.321  34.745  0.00  0.00    -0.390 OA
ATOM     20  H   UNL     1       9.047  -0.701  35.477  0.00  0.00    +0.210 HD
ENDBRANCH   9  19
BRANCH   7  21
ATOM     21  O   UNL     1       4.523  -1.885  33.234  0.00  0.00    -0.343 OA
ATOM     22  C   UNL     1       4.638  -2.999  34.154  0.00  0.00    +0.198 C 
ENDBRANCH   7  21
ENDBRANCH   4   5
BRANCH   4  23
ATOM     23  O   UNL     1       7.417   3.268  32.196  0.00  0.00    -0.387 OA
ATOM     24  H   UNL     1       8.206   3.328  32.740  0.00  0.00    +0.210 HD
ENDBRANCH   4  23
ENDBRANCH   1   4
BRANCH   1  25
ATOM     25  C   UNL     1       5.589   4.356  34.287  0.00  0.00    +0.141 C 
BRANCH  25  28
ATOM     26  C   UNL     1       3.324   4.136  33.324  0.00  0.00    +0.401 C 
ATOM     27  O   UNL     1       2.831   3.662  34.351  0.00  0.00    -0.226 OA
ATOM     28  N   UNL     1       4.606   4.483  33.204  0.00  0.00    -0.279 N 
ATOM     29  H   UNL     1       4.919   4.854  32.318  0.00  0.00    +0.152 HD
BRANCH  26  30
ATOM     30  O   UNL     1       2.490   4.329  32.179  0.00  0.00    -0.444 OA
BRANCH  30  31
ATOM     31  C   UNL     1       2.342   3.089  31.481  0.00  0.00    +0.292 C 
BRANCH  31  33
ATOM     32  N   UNL     1       0.534   4.120  30.133  0.00  0.00    -0.131 NA
ATOM     33  C   UNL     1       1.628   3.297  30.207  0.00  0.00    +0.120 A 
ATOM     34  C   UNL     1       1.878   2.767  28.963  0.00  0.00    +0.139 A 
ATOM     35  N   UNL     1       0.886   3.281  28.180  0.00  0.00    -0.226 N 
ATOM     36  N   UNL     1       0.093   4.113  28.881  0.00  0.00    -0.063 NA
BRANCH  35  37
ATOM     37  C   UNL     1       0.653   3.074  26.761  0.00  0.00    +0.305 C 
BRANCH  37  38
ATOM     38  O   UNL     1       1.273   4.127  26.027  0.00  0.00    -0.353 OA
BRANCH  38  39
ATOM     39  C   UNL     1       2.380   3.657  25.268  0.00  0.00    +0.197 C 
BRANCH  39  40
ATOM     40  C   UNL     1       2.028   3.810  23.813  0.00  0.00    -0.022 A 
ATOM     41  C   UNL     1       2.016   2.697  22.961  0.00  0.00    +0.006 A 
ATOM     42  C   UNL     1       1.728   2.845  21.604  0.00  0.00    +0.000 A 
ATOM     43  C   UNL     1       1.457   4.109  21.083  0.00  0.00    +0.000 A 
ATOM     44  C   UNL     1       1.477   5.226  21.916  0.00  0.00    +0.000 A 
ATOM     45  C   UNL     1       1.764   5.078  23.275  0.00  0.00    +0.006 A 
ENDBRANCH  39  40
ENDBRANCH  38  39
ENDBRANCH  37  38
ENDBRANCH  35  37
ENDBRANCH  31  33
ENDBRANCH  30  31
ENDBRANCH  26  30
ENDBRANCH  25  28
ENDBRANCH   1  25
TORSDOF 17
