REMARK VINA RESULT:    -5.947      6.343     10.056
REMARK INTER + INTRA:         -12.861
REMARK INTER:                 -11.114
REMARK INTRA:                  -1.748
REMARK UNBOUND:                -2.568
REMARK  Name = lig_assembled_27.pdb
REMARK  16 active torsions:
REMARK  status: ('A' for Active; 'I' for Inactive)
REMARK    1  A    between atoms: _2  and  _9
REMARK    2  A    between atoms: _4  and  _18
REMARK    3  A    between atoms: _6  and  _7
REMARK    4  A    between atoms: _6  and  _18
REMARK    5  A    between atoms: _14  and  _34
REMARK    6  A    between atoms: _16  and  _22
REMARK    7  A    between atoms: _17  and  _21
REMARK    8  A    between atoms: _21  and  _22
REMARK    9  A    between atoms: _24  and  _25
REMARK   10  A    between atoms: _26  and  _27
REMARK   11  A    between atoms: _28  and  _30
REMARK   12  A    between atoms: _30  and  _31
REMARK   13  A    between atoms: _30  and  _32
REMARK   14  A    between atoms: _32  and  _33
REMARK   15  A    between atoms: _32  and  _34
REMARK   16  A    between atoms: _35  and  _37
REMARK                            x       y       z     vdW  Elec       q    Type
REMARK                         _______ _______ _______ _____ _____    ______ ____
ROOT
ATOM      1  C   UNL     1       9.028   5.237  38.196  0.00  0.00    +0.163 C 
ENDROOT
BRANCH   1   2
ATOM      2  O   UNL     1       8.825   6.530  37.602  0.00  0.00    -0.388 OA
ATOM      3  H   UNL     1       8.602   6.426  36.674  0.00  0.00    +0.210 HD
ENDBRANCH   1   2
BRANCH   1   4
ATOM      4  C   UNL     1      10.489   5.072  38.602  0.00  0.00    +0.141 C 
BRANCH   4   7
ATOM      5  C   UNL     1      12.196   4.152  37.072  0.00  0.00    +0.401 C 
ATOM      6  O   UNL     1      12.279   3.072  37.662  0.00  0.00    -0.226 OA
ATOM      7  N   UNL     1      11.390   5.146  37.445  0.00  0.00    -0.279 N 
ATOM      8  H   UNL     1      11.400   5.998  36.902  0.00  0.00    +0.152 HD
BRANCH   5   9
ATOM      9  O   UNL     1      13.008   4.375  35.916  0.00  0.00    -0.444 OA
BRANCH   9  10
ATOM     10  C   UNL     1      14.256   4.949  36.312  0.00  0.00    +0.292 C 
BRANCH  10  12
ATOM     11  N   UNL     1      14.906   5.271  33.946  0.00  0.00    -0.131 NA
ATOM     12  C   UNL     1      14.819   5.761  35.217  0.00  0.00    +0.121 A 
ATOM     13  C   UNL     1      15.317   7.042  35.239  0.00  0.00    +0.143 A 
ATOM     14  N   UNL     1      15.694   7.302  33.941  0.00  0.00    -0.220 N 
ATOM     15  N   UNL     1      15.439   6.211  33.177  0.00  0.00    -0.060 NA
BRANCH  14  16
ATOM     16  C   UNL     1      16.262   8.483  33.400  0.00  0.00    +0.068 A 
ATOM     17  C   UNL     1      16.045   9.715  34.037  0.00  0.00    +0.028 A 
ATOM     18  C   UNL     1      16.597  10.886  33.511  0.00  0.00    +0.003 A 
ATOM     19  C   UNL     1      17.366  10.836  32.350  0.00  0.00    +0.020 A 
ATOM     20  C   UNL     1      17.584   9.614  31.718  0.00  0.00    +0.043 A 
ATOM     21 CL   UNL     1      18.535   9.552  30.284  0.00  0.00    -0.083 Cl
ATOM     22  C   UNL     1      17.039   8.437  32.233  0.00  0.00    +0.047 A 
ENDBRANCH  14  16
ENDBRANCH  10  12
ENDBRANCH   9  10
ENDBRANCH   5   9
ENDBRANCH   4   7
ENDBRANCH   1   4
BRANCH   1  23
ATOM     23  C   UNL     1       8.637   4.116  37.217  0.00  0.00    +0.175 C 
BRANCH  23  24
ATOM     24  C   UNL     1       8.040   4.668  35.915  0.00  0.00    +0.176 C 
ATOM     25  O   UNL     1       6.662   5.048  36.180  0.00  0.00    -0.332 OA
ATOM     26  C   UNL     1       5.958   5.698  35.071  0.00  0.00    +0.277 C 
ATOM     27  C   UNL     1       6.022   4.816  33.799  0.00  0.00    +0.110 C 
ATOM     28  C   UNL     1       7.464   4.361  33.494  0.00  0.00    +0.143 C 
ATOM     29  C   UNL     1       8.102   3.701  34.717  0.00  0.00    +0.133 C 
BRANCH  29  30
ATOM     30  N   UNL     1       9.504   3.350  34.441  0.00  0.00    -0.308 N 
ATOM     31  H   UNL     1      10.111   4.076  34.085  0.00  0.00    +0.149 HD
ATOM     32  C   UNL     1      10.027   2.136  34.630  0.00  0.00    +0.210 C 
ATOM     33  C   UNL     1       9.071   1.046  35.149  0.00  0.00    +0.109 C 
ATOM     34  O   UNL     1      11.209   1.875  34.404  0.00  0.00    -0.276 OA
ENDBRANCH  29  30
BRANCH  26  35
ATOM     35  C   UNL     1       6.570   7.081  34.770  0.00  0.00    +0.414 C 
ATOM     36  O   UNL     1       7.771   7.280  34.950  0.00  0.00    -0.240 OA
ATOM     37  O   UNL     1       5.865   7.998  34.348  0.00  0.00    -0.240 OA
ENDBRANCH  26  35
BRANCH  28  38
ATOM     38  O   UNL     1       7.457   3.432  32.409  0.00  0.00    -0.390 OA
ATOM     39  H   UNL     1       8.190   2.820  32.506  0.00  0.00    +0.210 HD
ENDBRANCH  28  38
BRANCH  26  40
ATOM     40  O   UNL     1       4.566   5.852  35.451  0.00  0.00    -0.343 OA
ATOM     41  C   UNL     1       4.314   5.820  36.878  0.00  0.00    +0.198 C 
ENDBRANCH  26  40
ENDBRANCH  23  24
BRANCH  23  42
ATOM     42  O   UNL     1       7.708   3.210  37.846  0.00  0.00    -0.387 OA
ATOM     43  H   UNL     1       6.845   3.301  37.435  0.00  0.00    +0.210 HD
ENDBRANCH  23  42
ENDBRANCH   1  23
TORSDOF 14
