REMARK VINA RESULT:    -6.582      0.000      0.000
REMARK INTER + INTRA:         -15.353
REMARK INTER:                 -12.347
REMARK INTRA:                  -3.006
REMARK UNBOUND:                -2.615
REMARK  Name = lig_assembled_83.pdb
REMARK  20 active torsions:
REMARK  status: ('A' for Active; 'I' for Inactive)
REMARK    1  A    between atoms: _2  and  _12
REMARK    2  A    between atoms: _3  and  _14
REMARK    3  A    between atoms: _7  and  _24
REMARK    4  A    between atoms: _9  and  _10
REMARK    5  A    between atoms: _9  and  _24
REMARK    6  A    between atoms: _12  and  _13
REMARK    7  A    between atoms: _13  and  _14
REMARK    8  A    between atoms: _13  and  _18
REMARK    9  A    between atoms: _20  and  _40
REMARK   10  A    between atoms: _22  and  _28
REMARK   11  A    between atoms: _23  and  _27
REMARK   12  A    between atoms: _27  and  _28
REMARK   13  A    between atoms: _30  and  _31
REMARK   14  A    between atoms: _32  and  _33
REMARK   15  A    between atoms: _34  and  _36
REMARK   16  A    between atoms: _36  and  _37
REMARK   17  A    between atoms: _36  and  _38
REMARK   18  A    between atoms: _38  and  _39
REMARK   19  A    between atoms: _38  and  _40
REMARK   20  A    between atoms: _41  and  _43
REMARK                            x       y       z     vdW  Elec       q    Type
REMARK                         _______ _______ _______ _____ _____    ______ ____
ROOT
ATOM      1  C   UNL     1      18.680   1.866  27.352  0.00  0.00    +0.141 C 
ENDROOT
BRANCH   1   4
ATOM      2  C   UNL     1      19.740   4.027  27.908  0.00  0.00    +0.401 C 
ATOM      3  O   UNL     1      19.892   3.752  29.101  0.00  0.00    -0.226 OA
ATOM      4  N   UNL     1      19.178   3.207  27.020  0.00  0.00    -0.279 N 
ATOM      5  H   UNL     1      19.088   3.526  26.066  0.00  0.00    +0.152 HD
BRANCH   2   6
ATOM      6  O   UNL     1      20.183   5.298  27.427  0.00  0.00    -0.444 OA
BRANCH   6   7
ATOM      7  C   UNL     1      19.074   6.013  26.875  0.00  0.00    +0.292 C 
BRANCH   7   9
ATOM      8  N   UNL     1      18.575   8.401  26.416  0.00  0.00    -0.131 NA
ATOM      9  C   UNL     1      19.170   7.447  27.201  0.00  0.00    +0.120 A 
ATOM     10  C   UNL     1      19.809   8.068  28.250  0.00  0.00    +0.137 A 
ATOM     11  N   UNL     1      19.552   9.390  28.055  0.00  0.00    -0.249 N 
ATOM     12  N   UNL     1      18.821   9.593  26.947  0.00  0.00    -0.065 NA
BRANCH  11  13
ATOM     13  C   UNL     1      20.001  10.508  28.858  0.00  0.00    +0.178 C 
BRANCH  13  14
ATOM     14  C   UNL     1      18.940  10.945  29.872  0.00  0.00    +0.156 C 
BRANCH  14  15
ATOM     15  O   UNL     1      17.632  10.664  29.361  0.00  0.00    -0.388 OA
ATOM     16  H   UNL     1      17.006  11.356  29.654  0.00  0.00    +0.210 HD
ENDBRANCH  14  15
BRANCH  14  17
ATOM     17  C   UNL     1      19.153  10.229  31.215  0.00  0.00    +0.162 C 
BRANCH  17  18
ATOM     18  N   UNL     1      18.290  10.746  32.266  0.00  0.00    -0.269 N 
ATOM     19  C   UNL     1      18.561  11.898  32.970  0.00  0.00    +0.113 A 
ATOM     20  C   UNL     1      17.505  12.058  33.837  0.00  0.00    +0.137 A 
ATOM     21  N   UNL     1      16.612  11.029  33.709  0.00  0.00    -0.172 NA
ATOM     22  C   UNL     1      17.102  10.258  32.755  0.00  0.00    +0.450 A 
ATOM     23  N   UNL     1      16.435   9.057  32.308  0.00  0.00    +0.120 N 
ATOM     24  O   UNL     1      16.975   8.400  31.404  0.00  0.00    +0.045 OA
ATOM     25  O   UNL     1      15.373   8.753  32.865  0.00  0.00    -0.573 OA
ENDBRANCH  17  18
ENDBRANCH  14  17
ENDBRANCH  13  14
ENDBRANCH  11  13
ENDBRANCH   7   9
ENDBRANCH   6   7
ENDBRANCH   2   6
ENDBRANCH   1   4
BRANCH   1  26
ATOM     26  C   UNL     1      17.156   1.801  27.322  0.00  0.00    +0.163 C 
BRANCH  26  27
ATOM     27  O   UNL     1      16.621   3.042  26.832  0.00  0.00    -0.388 OA
ATOM     28  H   UNL     1      15.893   3.320  27.393  0.00  0.00    +0.210 HD
ENDBRANCH  26  27
BRANCH  26  29
ATOM     29  C   UNL     1      16.709   0.623  26.440  0.00  0.00    +0.175 C 
BRANCH  29  30
ATOM     30  C   UNL     1      17.447   0.595  25.094  0.00  0.00    +0.176 C 
ATOM     31  O   UNL     1      16.939   1.691  24.283  0.00  0.00    -0.332 OA
ATOM     32  C   UNL     1      17.607   1.887  22.993  0.00  0.00    +0.277 C 
ATOM     33  C   UNL     1      17.591   0.575  22.170  0.00  0.00    +0.110 C 
ATOM     34  C   UNL     1      18.093  -0.624  23.001  0.00  0.00    +0.143 C 
ATOM     35  C   UNL     1      17.332  -0.733  24.323  0.00  0.00    +0.133 C 
BRANCH  35  36
ATOM     36  N   UNL     1      17.878  -1.826  25.143  0.00  0.00    -0.308 N 
ATOM     37  H   UNL     1      18.849  -1.771  25.416  0.00  0.00    +0.149 HD
ATOM     38  C   UNL     1      17.173  -2.885  25.551  0.00  0.00    +0.210 C 
ATOM     39  C   UNL     1      15.703  -2.951  25.097  0.00  0.00    +0.109 C 
ATOM     40  O   UNL     1      17.653  -3.778  26.250  0.00  0.00    -0.276 OA
ENDBRANCH  35  36
BRANCH  32  41
ATOM     41  C   UNL     1      19.065   2.350  23.197  0.00  0.00    +0.414 C 
ATOM     42  O   UNL     1      19.953   1.950  22.445  0.00  0.00    -0.240 OA
ATOM     43  O   UNL     1      19.352   3.123  24.112  0.00  0.00    -0.240 OA
ENDBRANCH  32  41
BRANCH  32  44
ATOM     44  O   UNL     1      16.872   2.898  22.257  0.00  0.00    -0.343 OA
ATOM     45  C   UNL     1      16.624   2.581  20.864  0.00  0.00    +0.198 C 
ENDBRANCH  32  44
BRANCH  34  46
ATOM     46  O   UNL     1      17.919  -1.831  22.258  0.00  0.00    -0.390 OA
ATOM     47  H   UNL     1      18.444  -2.531  22.654  0.00  0.00    +0.210 HD
ENDBRANCH  34  46
ENDBRANCH  29  30
BRANCH  29  48
ATOM     48  O   UNL     1      15.285   0.677  26.225  0.00  0.00    -0.387 OA
ATOM     49  H   UNL     1      14.829   0.534  27.058  0.00  0.00    +0.210 HD
ENDBRANCH  29  48
ENDBRANCH  26  29
ENDBRANCH   1  26
TORSDOF 18
