REMARK VINA RESULT:    -7.300     20.720     25.331
REMARK INTER + INTRA:         -17.175
REMARK INTER:                 -14.134
REMARK INTRA:                  -3.041
REMARK UNBOUND:                -3.474
REMARK  Name = lig_assembled_34.pdb
REMARK  19 active torsions:
REMARK  status: ('A' for Active; 'I' for Inactive)
REMARK    1  A    between atoms: _2  and  _9
REMARK    2  A    between atoms: _4  and  _37
REMARK    3  A    between atoms: _6  and  _7
REMARK    4  A    between atoms: _6  and  _37
REMARK    5  A    between atoms: _11  and  _12
REMARK    6  A    between atoms: _13  and  _14
REMARK    7  A    between atoms: _18  and  _31
REMARK    8  A    between atoms: _33  and  _53
REMARK    9  A    between atoms: _35  and  _41
REMARK   10  A    between atoms: _36  and  _40
REMARK   11  A    between atoms: _40  and  _41
REMARK   12  A    between atoms: _43  and  _44
REMARK   13  A    between atoms: _45  and  _46
REMARK   14  A    between atoms: _47  and  _49
REMARK   15  A    between atoms: _49  and  _50
REMARK   16  A    between atoms: _49  and  _51
REMARK   17  A    between atoms: _51  and  _52
REMARK   18  A    between atoms: _51  and  _53
REMARK   19  A    between atoms: _54  and  _56
REMARK                            x       y       z     vdW  Elec       q    Type
REMARK                         _______ _______ _______ _____ _____    ______ ____
ROOT
ATOM      1  N   UNL     1       1.142   9.593  42.152  0.00  0.00    -0.131 NA
ATOM      2  C   UNL     1       2.356   9.411  41.552  0.00  0.00    +0.121 A 
ATOM      3  C   UNL     1       2.606  10.475  40.722  0.00  0.00    +0.143 A 
ATOM      4  N   UNL     1       1.523  11.316  40.863  0.00  0.00    -0.220 N 
ATOM      5  N   UNL     1       0.633  10.744  41.719  0.00  0.00    -0.060 NA
ENDROOT
BRANCH   4   6
ATOM      6  C   UNL     1       1.328  12.597  40.281  0.00  0.00    +0.068 A 
ATOM      7  C   UNL     1       0.358  13.456  40.808  0.00  0.00    +0.038 A 
ATOM      8  C   UNL     1       0.022  14.692  40.203  0.00  0.00    +0.007 A 
ATOM      9  C   UNL     1       0.748  15.104  39.067  0.00  0.00    -0.008 A 
ATOM     10  C   UNL     1       1.763  14.251  38.569  0.00  0.00    +0.011 A 
ATOM     11  C   UNL     1       2.042  13.004  39.154  0.00  0.00    +0.028 A 
BRANCH   9  12
ATOM     12  C   UNL     1       0.473  16.355  38.287  0.00  0.00    +0.004 A 
ATOM     13  C   UNL     1       1.100  17.536  38.556  0.00  0.00    +0.026 A 
ATOM     14  C   UNL     1       2.048  17.696  39.666  0.00  0.00    +0.016 A 
ATOM     15  C   UNL     1       2.507  18.904  40.028  0.00  0.00    +0.051 A 
ATOM     16  C   UNL     1       2.095  20.121  39.288  0.00  0.00    +0.183 A 
ATOM     17  O   UNL     1       2.456  21.238  39.649  0.00  0.00    -0.288 OA
ATOM     18  C   UNL     1       1.296  19.934  38.060  0.00  0.00    +0.097 A 
ATOM     19  C   UNL     1       0.864  18.718  37.706  0.00  0.00    +0.140 A 
ATOM     20  O   UNL     1       0.240  18.574  36.475  0.00  0.00    -0.455 OA
ATOM     21  C   UNL     1      -0.425  17.407  36.211  0.00  0.00    +0.140 A 
ATOM     22  C   UNL     1      -1.113  17.349  34.998  0.00  0.00    +0.092 A 
ATOM     23  C   UNL     1      -1.856  16.219  34.692  0.00  0.00    +0.120 A 
ATOM     24  C   UNL     1      -1.983  15.187  35.615  0.00  0.00    +0.046 A 
ATOM     25  C   UNL     1      -1.278  15.254  36.820  0.00  0.00    +0.016 A 
ATOM     26  C   UNL     1      -0.437  16.340  37.106  0.00  0.00    +0.026 A 
BRANCH  23  27
ATOM     27  O   UNL     1      -2.446  16.147  33.465  0.00  0.00    -0.507 OA
ATOM     28  H   UNL     1      -1.799  16.457  32.810  0.00  0.00    +0.292 HD
ENDBRANCH  23  27
ENDBRANCH   9  12
BRANCH   8  29
ATOM     29  C   UNL     1      -1.158  15.436  40.796  0.00  0.00    +0.072 C 
ATOM     30  O   UNL     1      -2.289  15.212  40.254  0.00  0.00    -0.545 OA
ATOM     31  O   UNL     1      -0.938  16.272  41.720  0.00  0.00    -0.545 OA
ENDBRANCH   8  29
ENDBRANCH   4   6
BRANCH   2  32
ATOM     32  C   UNL     1       3.199   8.228  41.815  0.00  0.00    +0.292 C 
BRANCH  32  33
ATOM     33  O   UNL     1       2.985   7.222  40.820  0.00  0.00    -0.444 OA
BRANCH  33  34
ATOM     34  C   UNL     1       4.142   7.122  39.986  0.00  0.00    +0.401 C 
ATOM     35  O   UNL     1       5.159   7.746  40.295  0.00  0.00    -0.226 OA
ATOM     36  N   UNL     1       4.044   6.342  38.908  0.00  0.00    -0.279 N 
ATOM     37  H   UNL     1       3.170   5.863  38.744  0.00  0.00    +0.152 HD
BRANCH  36  38
ATOM     38  C   UNL     1       5.135   6.141  37.947  0.00  0.00    +0.141 C 
BRANCH  38  39
ATOM     39  C   UNL     1       5.139   4.726  37.379  0.00  0.00    +0.163 C 
BRANCH  39  40
ATOM     40  O   UNL     1       4.814   3.781  38.412  0.00  0.00    -0.388 OA
ATOM     41  H   UNL     1       5.511   3.775  39.072  0.00  0.00    +0.210 HD
ENDBRANCH  39  40
BRANCH  39  42
ATOM     42  C   UNL     1       4.136   4.636  36.216  0.00  0.00    +0.175 C 
BRANCH  42  43
ATOM     43  C   UNL     1       4.752   3.984  34.970  0.00  0.00    +0.176 C 
ATOM     44  O   UNL     1       4.957   2.574  35.258  0.00  0.00    -0.332 OA
ATOM     45  C   UNL     1       5.445   1.762  34.138  0.00  0.00    +0.277 C 
ATOM     46  C   UNL     1       6.743   2.371  33.555  0.00  0.00    +0.110 C 
ATOM     47  C   UNL     1       6.585   3.878  33.262  0.00  0.00    +0.143 C 
ATOM     48  C   UNL     1       6.069   4.624  34.493  0.00  0.00    +0.133 C 
BRANCH  48  49
ATOM     49  N   UNL     1       5.840   6.043  34.176  0.00  0.00    -0.308 N 
ATOM     50  H   UNL     1       5.089   6.268  33.539  0.00  0.00    +0.149 HD
ATOM     51  C   UNL     1       6.559   7.052  34.675  0.00  0.00    +0.210 C 
ATOM     52  C   UNL     1       7.713   6.673  35.623  0.00  0.00    +0.109 C 
ATOM     53  O   UNL     1       6.334   8.232  34.404  0.00  0.00    -0.276 OA
ENDBRANCH  48  49
BRANCH  45  54
ATOM     54  C   UNL     1       4.378   1.663  33.029  0.00  0.00    +0.414 C 
ATOM     55  O   UNL     1       4.711   1.677  31.845  0.00  0.00    -0.240 OA
ATOM     56  O   UNL     1       3.184   1.570  33.317  0.00  0.00    -0.240 OA
ENDBRANCH  45  54
BRANCH  47  57
ATOM     57  O   UNL     1       7.843   4.428  32.871  0.00  0.00    -0.390 OA
ATOM     58  H   UNL     1       8.530   3.765  32.976  0.00  0.00    +0.210 HD
ENDBRANCH  47  57
BRANCH  45  59
ATOM     59  O   UNL     1       5.748   0.436  34.644  0.00  0.00    -0.343 OA
ATOM     60  C   UNL     1       7.034  -0.095  34.235  0.00  0.00    +0.198 C 
ENDBRANCH  45  59
ENDBRANCH  42  43
BRANCH  42  61
ATOM     61  O   UNL     1       3.632   5.947  35.893  0.00  0.00    -0.387 OA
ATOM     62  H   UNL     1       4.363   6.522  35.654  0.00  0.00    +0.210 HD
ENDBRANCH  42  61
ENDBRANCH  39  42
ENDBRANCH  38  39
ENDBRANCH  36  38
ENDBRANCH  33  34
ENDBRANCH  32  33
ENDBRANCH   2  32
TORSDOF 17
