REMARK VINA RESULT:    -6.678      1.810      3.806
REMARK INTER + INTRA:         -13.346
REMARK INTER:                 -11.483
REMARK INTRA:                  -1.863
REMARK UNBOUND:                -1.788
REMARK  Name = lig_assembled_20.pdb
REMARK  16 active torsions:
REMARK  status: ('A' for Active; 'I' for Inactive)
REMARK    1  A    between atoms: _2  and  _11
REMARK    2  A    between atoms: _6  and  _21
REMARK    3  A    between atoms: _8  and  _9
REMARK    4  A    between atoms: _8  and  _21
REMARK    5  A    between atoms: _17  and  _37
REMARK    6  A    between atoms: _19  and  _25
REMARK    7  A    between atoms: _20  and  _24
REMARK    8  A    between atoms: _24  and  _25
REMARK    9  A    between atoms: _27  and  _28
REMARK   10  A    between atoms: _29  and  _30
REMARK   11  A    between atoms: _31  and  _33
REMARK   12  A    between atoms: _33  and  _34
REMARK   13  A    between atoms: _33  and  _35
REMARK   14  A    between atoms: _35  and  _36
REMARK   15  A    between atoms: _35  and  _37
REMARK   16  A    between atoms: _38  and  _40
REMARK                            x       y       z     vdW  Elec       q    Type
REMARK                         _______ _______ _______ _____ _____    ______ ____
ROOT
ATOM      1  C   UNL     1       3.090   3.161  32.612  0.00  0.00    +0.163 C 
ENDROOT
BRANCH   1   2
ATOM      2  O   UNL     1       3.821   2.445  31.603  0.00  0.00    -0.388 OA
ATOM      3  H   UNL     1       4.310   1.726  32.011  0.00  0.00    +0.210 HD
ENDBRANCH   1   2
BRANCH   1   4
ATOM      4  C   UNL     1       1.981   3.986  31.966  0.00  0.00    +0.141 C 
BRANCH   4   7
ATOM      5  C   UNL     1       0.773   2.870  30.121  0.00  0.00    +0.401 C 
ATOM      6  O   UNL     1      -0.090   2.384  30.855  0.00  0.00    -0.226 OA
ATOM      7  N   UNL     1       1.782   3.627  30.557  0.00  0.00    -0.279 N 
ATOM      8  H   UNL     1       2.446   3.972  29.878  0.00  0.00    +0.152 HD
BRANCH   5   9
ATOM      9  O   UNL     1       0.712   2.618  28.715  0.00  0.00    -0.444 OA
BRANCH   9  10
ATOM     10  C   UNL     1       1.814   3.259  28.066  0.00  0.00    +0.292 C 
BRANCH  10  12
ATOM     11  N   UNL     1       1.988   1.592  26.239  0.00  0.00    -0.131 NA
ATOM     12  C   UNL     1       1.860   2.891  26.639  0.00  0.00    +0.121 A 
ATOM     13  C   UNL     1       1.789   3.697  25.528  0.00  0.00    +0.143 A 
ATOM     14  N   UNL     1       1.879   2.841  24.455  0.00  0.00    -0.220 N 
ATOM     15  N   UNL     1       2.000   1.569  24.911  0.00  0.00    -0.060 NA
BRANCH  14  16
ATOM     16  C   UNL     1       1.856   3.154  23.072  0.00  0.00    +0.068 A 
ATOM     17  C   UNL     1       1.770   4.494  22.660  0.00  0.00    +0.030 A 
ATOM     18  C   UNL     1       1.750   4.839  21.301  0.00  0.00    +0.030 A 
ATOM     19  C   UNL     1       1.821   3.793  20.376  0.00  0.00    +0.066 A 
ATOM     20  C   UNL     1       1.905   2.459  20.751  0.00  0.00    +0.021 A 
ATOM     21  C   UNL     1       1.954   1.748  19.532  0.00  0.00    +0.142 A 
ATOM     22  N   UNL     1       1.907   2.550  18.466  0.00  0.00    -0.181 NA
ATOM     23  N   UNL     1       1.829   3.780  19.005  0.00  0.00    -0.277 N 
ATOM     24  H   UNL     1       1.780   4.577  18.381  0.00  0.00    +0.189 HD
ATOM     25  C   UNL     1       1.924   2.123  22.116  0.00  0.00    +0.039 A 
ENDBRANCH  14  16
ENDBRANCH  10  12
ENDBRANCH   9  10
ENDBRANCH   5   9
ENDBRANCH   4   7
ENDBRANCH   1   4
BRANCH   1  26
ATOM     26  C   UNL     1       4.021   4.089  33.412  0.00  0.00    +0.175 C 
BRANCH  26  27
ATOM     27  C   UNL     1       5.416   3.477  33.609  0.00  0.00    +0.176 C 
ATOM     28  O   UNL     1       5.243   2.113  34.080  0.00  0.00    -0.332 OA
ATOM     29  C   UNL     1       6.476   1.331  34.225  0.00  0.00    +0.277 C 
ATOM     30  C   UNL     1       7.485   2.076  35.133  0.00  0.00    +0.110 C 
ATOM     31  C   UNL     1       7.677   3.541  34.690  0.00  0.00    +0.143 C 
ATOM     32  C   UNL     1       6.332   4.259  34.569  0.00  0.00    +0.133 C 
BRANCH  32  33
ATOM     33  N   UNL     1       6.521   5.627  34.063  0.00  0.00    -0.308 N 
ATOM     34  H   UNL     1       6.843   5.738  33.111  0.00  0.00    +0.149 HD
ATOM     35  C   UNL     1       6.297   6.732  34.778  0.00  0.00    +0.210 C 
ATOM     36  C   UNL     1       5.832   6.530  36.233  0.00  0.00    +0.109 C 
ATOM     37  O   UNL     1       6.450   7.866  34.323  0.00  0.00    -0.276 OA
ENDBRANCH  32  33
BRANCH  29  38
ATOM     38  C   UNL     1       7.119   1.066  32.848  0.00  0.00    +0.414 C 
ATOM     39  O   UNL     1       6.419   0.752  31.886  0.00  0.00    -0.240 OA
ATOM     40  O   UNL     1       8.338   1.167  32.699  0.00  0.00    -0.240 OA
ENDBRANCH  29  38
BRANCH  31  41
ATOM     41  O   UNL     1       8.493   4.229  35.639  0.00  0.00    -0.390 OA
ATOM     42  H   UNL     1       9.406   3.947  35.540  0.00  0.00    +0.210 HD
ENDBRANCH  31  41
BRANCH  29  43
ATOM     43  O   UNL     1       6.136   0.070  34.856  0.00  0.00    -0.343 OA
ATOM     44  C   UNL     1       6.138   0.091  36.306  0.00  0.00    +0.198 C 
ENDBRANCH  29  43
ENDBRANCH  26  27
BRANCH  26  45
ATOM     45  O   UNL     1       3.431   4.402  34.690  0.00  0.00    -0.387 OA
ATOM     46  H   UNL     1       3.730   5.267  34.977  0.00  0.00    +0.210 HD
ENDBRANCH  26  45
ENDBRANCH   1  26
TORSDOF 14
