REMARK VINA RESULT:    -5.844      1.512      3.953
REMARK INTER + INTRA:         -13.858
REMARK INTER:                 -11.872
REMARK INTRA:                  -1.985
REMARK UNBOUND:                -2.036
REMARK  Name = lig_assembled_45.pdb
REMARK  24 active torsions:
REMARK  status: ('A' for Active; 'I' for Inactive)
REMARK    1  A    between atoms: _2  and  _10
REMARK    2  A    between atoms: _3  and  _12
REMARK    3  A    between atoms: _3  and  _13
REMARK    4  A    between atoms: _3  and  _14
REMARK    5  A    between atoms: _3  and  _16
REMARK    6  A    between atoms: _5  and  _21
REMARK    7  A    between atoms: _6  and  _16
REMARK    8  A    between atoms: _7  and  _8
REMARK    9  A    between atoms: _7  and  _21
REMARK   10  A    between atoms: _10  and  _11
REMARK   11  A    between atoms: _11  and  _12
REMARK   12  A    between atoms: _14  and  _15
REMARK   13  A    between atoms: _17  and  _37
REMARK   14  A    between atoms: _19  and  _25
REMARK   15  A    between atoms: _20  and  _24
REMARK   16  A    between atoms: _24  and  _25
REMARK   17  A    between atoms: _27  and  _28
REMARK   18  A    between atoms: _29  and  _30
REMARK   19  A    between atoms: _31  and  _33
REMARK   20  A    between atoms: _33  and  _34
REMARK   21  A    between atoms: _33  and  _35
REMARK   22  A    between atoms: _35  and  _36
REMARK   23  A    between atoms: _35  and  _37
REMARK   24  A    between atoms: _38  and  _40
REMARK                            x       y       z     vdW  Elec       q    Type
REMARK                         _______ _______ _______ _____ _____    ______ ____
ROOT
ATOM      1  C   UNL     1       2.944   3.055  32.219  0.00  0.00    +0.163 C 
ENDROOT
BRANCH   1   2
ATOM      2  O   UNL     1       3.827   2.267  31.403  0.00  0.00    -0.388 OA
ATOM      3  H   UNL     1       4.474   1.830  31.961  0.00  0.00    +0.210 HD
ENDBRANCH   1   2
BRANCH   1   4
ATOM      4  C   UNL     1       3.739   3.918  33.214  0.00  0.00    +0.175 C 
BRANCH   4   5
ATOM      5  C   UNL     1       5.140   3.349  33.481  0.00  0.00    +0.176 C 
ATOM      6  O   UNL     1       4.988   1.969  33.913  0.00  0.00    -0.332 OA
ATOM      7  C   UNL     1       6.236   1.227  34.114  0.00  0.00    +0.277 C 
ATOM      8  C   UNL     1       7.163   1.983  35.097  0.00  0.00    +0.110 C 
ATOM      9  C   UNL     1       7.330   3.464  34.697  0.00  0.00    +0.143 C 
ATOM     10  C   UNL     1       5.970   4.138  34.511  0.00  0.00    +0.133 C 
BRANCH  10  11
ATOM     11  N   UNL     1       6.142   5.524  34.046  0.00  0.00    -0.308 N 
ATOM     12  H   UNL     1       6.474   5.667  33.103  0.00  0.00    +0.149 HD
ATOM     13  C   UNL     1       5.887   6.604  34.789  0.00  0.00    +0.210 C 
ATOM     14  C   UNL     1       5.407   6.352  36.231  0.00  0.00    +0.109 C 
ATOM     15  O   UNL     1       6.026   7.753  34.369  0.00  0.00    -0.276 OA
ENDBRANCH  10  11
BRANCH   7  16
ATOM     16  C   UNL     1       6.969   1.015  32.773  0.00  0.00    +0.414 C 
ATOM     17  O   UNL     1       8.186   1.181  32.699  0.00  0.00    -0.240 OA
ATOM     18  O   UNL     1       6.345   0.679  31.766  0.00  0.00    -0.240 OA
ENDBRANCH   7  16
BRANCH   9  19
ATOM     19  O   UNL     1       8.064   4.156  35.708  0.00  0.00    -0.390 OA
ATOM     20  H   UNL     1       8.642   3.540  36.163  0.00  0.00    +0.210 HD
ENDBRANCH   9  19
BRANCH   7  21
ATOM     21  O   UNL     1       5.904  -0.060  34.697  0.00  0.00    -0.343 OA
ATOM     22  C   UNL     1       6.907  -0.604  35.591  0.00  0.00    +0.198 C 
ENDBRANCH   7  21
ENDBRANCH   4   5
BRANCH   4  23
ATOM     23  O   UNL     1       3.011   4.046  34.452  0.00  0.00    -0.387 OA
ATOM     24  H   UNL     1       3.629   4.178  35.175  0.00  0.00    +0.210 HD
ENDBRANCH   4  23
ENDBRANCH   1   4
BRANCH   1  25
ATOM     25  C   UNL     1       2.083   3.955  31.339  0.00  0.00    +0.141 C 
BRANCH  25  28
ATOM     26  C   UNL     1       0.716   3.572  29.316  0.00  0.00    +0.401 C 
ATOM     27  O   UNL     1      -0.208   4.299  29.689  0.00  0.00    -0.226 OA
ATOM     28  N   UNL     1       1.822   3.349  30.027  0.00  0.00    -0.279 N 
ATOM     29  H   UNL     1       2.520   2.729  29.641  0.00  0.00    +0.152 HD
BRANCH  26  30
ATOM     30  O   UNL     1       0.615   2.914  28.051  0.00  0.00    -0.444 OA
BRANCH  30  31
ATOM     31  C   UNL     1       1.802   3.156  27.291  0.00  0.00    +0.292 C 
BRANCH  31  33
ATOM     32  N   UNL     1       0.354   4.724  26.027  0.00  0.00    -0.131 NA
ATOM     33  C   UNL     1       1.488   3.959  26.094  0.00  0.00    +0.120 A 
ATOM     34  C   UNL     1       2.190   4.091  24.918  0.00  0.00    +0.137 A 
ATOM     35  N   UNL     1       1.426   4.950  24.189  0.00  0.00    -0.251 N 
ATOM     36  N   UNL     1       0.326   5.326  24.845  0.00  0.00    -0.065 NA
BRANCH  35  37
ATOM     37  C   UNL     1       1.683   5.430  22.846  0.00  0.00    +0.150 C 
BRANCH  37  38
ATOM     38  C   UNL     1       1.829   4.304  21.833  0.00  0.00    +0.074 C 
BRANCH  38  39
ATOM     39  C   UNL     1       0.571   3.481  21.526  0.00  0.00    +0.134 C 
BRANCH  39  40
ATOM     40  N   UNL     1       0.420   2.879  20.090  0.00  0.00    +0.241 N 
ATOM     41  C   UNL     1      -1.070   2.601  19.824  0.00  0.00    +0.192 C 
BRANCH  40  42
ATOM     42  C   UNL     1       1.183   1.513  20.111  0.00  0.00    +0.129 C 
ATOM     43  C   UNL     1       0.952   0.693  21.376  0.00  0.00    +0.060 C 
ENDBRANCH  40  42
BRANCH  40  44
ATOM     44  C   UNL     1       0.972   3.764  18.957  0.00  0.00    +0.129 C 
ATOM     45  C   UNL     1      -0.091   4.541  18.198  0.00  0.00    +0.060 C 
ENDBRANCH  40  44
ENDBRANCH  39  40
ENDBRANCH  38  39
ENDBRANCH  37  38
ENDBRANCH  35  37
ENDBRANCH  31  33
ENDBRANCH  30  31
ENDBRANCH  26  30
ENDBRANCH  25  28
ENDBRANCH   1  25
TORSDOF 19
