REMARK VINA RESULT:    -5.223     11.649     15.302
REMARK INTER + INTRA:         -12.307
REMARK INTER:                 -10.381
REMARK INTRA:                  -1.926
REMARK UNBOUND:                -2.810
REMARK  Name = lig_assembled_53.pdb
REMARK  18 active torsions:
REMARK  status: ('A' for Active; 'I' for Inactive)
REMARK    1  A    between atoms: _2  and  _9
REMARK    2  A    between atoms: _4  and  _16
REMARK    3  A    between atoms: _5  and  _9
REMARK    4  A    between atoms: _5  and  _10
REMARK    5  A    between atoms: _6  and  _7
REMARK    6  A    between atoms: _6  and  _16
REMARK    7  A    between atoms: _12  and  _32
REMARK    8  A    between atoms: _14  and  _20
REMARK    9  A    between atoms: _15  and  _19
REMARK   10  A    between atoms: _19  and  _20
REMARK   11  A    between atoms: _22  and  _23
REMARK   12  A    between atoms: _24  and  _25
REMARK   13  A    between atoms: _26  and  _28
REMARK   14  A    between atoms: _28  and  _29
REMARK   15  A    between atoms: _28  and  _30
REMARK   16  A    between atoms: _30  and  _31
REMARK   17  A    between atoms: _30  and  _32
REMARK   18  A    between atoms: _33  and  _35
REMARK                            x       y       z     vdW  Elec       q    Type
REMARK                         _______ _______ _______ _____ _____    ______ ____
ROOT
ATOM      1  C   UNL     1       8.519   3.968  37.222  0.00  0.00    +0.175 C 
ENDROOT
BRANCH   1   2
ATOM      2  C   UNL     1       7.990   4.599  35.926  0.00  0.00    +0.176 C 
ATOM      3  O   UNL     1       6.621   5.027  36.164  0.00  0.00    -0.332 OA
ATOM      4  C   UNL     1       5.982   5.753  35.061  0.00  0.00    +0.277 C 
ATOM      5  C   UNL     1       6.052   4.922  33.756  0.00  0.00    +0.110 C 
ATOM      6  C   UNL     1       7.483   4.417  33.477  0.00  0.00    +0.143 C 
ATOM      7  C   UNL     1       8.051   3.681  34.691  0.00  0.00    +0.133 C 
BRANCH   7   8
ATOM      8  N   UNL     1       9.445   3.281  34.445  0.00  0.00    -0.308 N 
ATOM      9  H   UNL     1      10.095   3.995  34.148  0.00  0.00    +0.149 HD
ATOM     10  C   UNL     1       9.907   2.035  34.587  0.00  0.00    +0.210 C 
ATOM     11  C   UNL     1       8.886   0.965  35.015  0.00  0.00    +0.109 C 
ATOM     12  O   UNL     1      11.084   1.732  34.388  0.00  0.00    -0.276 OA
ENDBRANCH   7   8
BRANCH   4  13
ATOM     13  C   UNL     1       6.663   7.119  34.839  0.00  0.00    +0.414 C 
ATOM     14  O   UNL     1       6.029   8.056  34.356  0.00  0.00    -0.240 OA
ATOM     15  O   UNL     1       7.845   7.285  35.144  0.00  0.00    -0.240 OA
ENDBRANCH   4  13
BRANCH   4  16
ATOM     16  O   UNL     1       4.587   5.952  35.403  0.00  0.00    -0.343 OA
ATOM     17  C   UNL     1       4.189   5.416  36.691  0.00  0.00    +0.198 C 
ENDBRANCH   4  16
BRANCH   6  18
ATOM     18  O   UNL     1       7.472   3.536  32.354  0.00  0.00    -0.390 OA
ATOM     19  H   UNL     1       7.222   4.023  31.566  0.00  0.00    +0.210 HD
ENDBRANCH   6  18
ENDBRANCH   1   2
BRANCH   1  20
ATOM     20  O   UNL     1       7.503   3.139  37.822  0.00  0.00    -0.387 OA
ATOM     21  H   UNL     1       6.714   3.663  37.980  0.00  0.00    +0.210 HD
ENDBRANCH   1  20
BRANCH   1  22
ATOM     22  C   UNL     1       9.001   5.028  38.227  0.00  0.00    +0.163 C 
BRANCH  22  23
ATOM     23  O   UNL     1       8.897   6.349  37.670  0.00  0.00    -0.388 OA
ATOM     24  H   UNL     1       9.163   6.329  36.748  0.00  0.00    +0.210 HD
ENDBRANCH  22  23
BRANCH  22  25
ATOM     25  C   UNL     1      10.446   4.739  38.620  0.00  0.00    +0.141 C 
BRANCH  25  28
ATOM     26  C   UNL     1      12.189   4.115  36.983  0.00  0.00    +0.401 C 
ATOM     27  O   UNL     1      12.249   2.941  37.354  0.00  0.00    -0.226 OA
ATOM     28  N   UNL     1      11.379   5.027  37.523  0.00  0.00    -0.279 N 
ATOM     29  H   UNL     1      11.408   5.968  37.157  0.00  0.00    +0.152 HD
BRANCH  26  30
ATOM     30  O   UNL     1      13.033   4.550  35.914  0.00  0.00    -0.444 OA
BRANCH  30  31
ATOM     31  C   UNL     1      14.191   5.195  36.452  0.00  0.00    +0.292 C 
BRANCH  31  33
ATOM     32  N   UNL     1      14.914   5.332  34.086  0.00  0.00    -0.131 NA
ATOM     33  C   UNL     1      14.996   5.796  35.371  0.00  0.00    +0.120 A 
ATOM     34  C   UNL     1      15.899   6.833  35.418  0.00  0.00    +0.137 A 
ATOM     35  N   UNL     1      16.382   6.912  34.147  0.00  0.00    -0.241 N 
ATOM     36  N   UNL     1      15.752   6.036  33.339  0.00  0.00    -0.065 NA
BRANCH  35  37
ATOM     37  C   UNL     1      17.305   7.857  33.552  0.00  0.00    +0.265 C 
BRANCH  37  38
ATOM     38  C   UNL     1      16.804   8.553  32.315  0.00  0.00    +0.326 C 
ATOM     39  O   UNL     1      17.352   8.588  31.223  0.00  0.00    -0.249 OA
BRANCH  38  40
ATOM     40  O   UNL     1      15.623   9.195  32.521  0.00  0.00    -0.479 OA
ATOM     41  H   UNL     1      15.456   9.973  31.955  0.00  0.00    +0.295 HD
ENDBRANCH  38  40
ENDBRANCH  37  38
ENDBRANCH  35  37
ENDBRANCH  31  33
ENDBRANCH  30  31
ENDBRANCH  26  30
ENDBRANCH  25  28
ENDBRANCH  22  25
ENDBRANCH   1  22
TORSDOF 16
