REMARK VINA RESULT:    -5.860      3.025      5.010
REMARK INTER + INTRA:         -12.996
REMARK INTER:                 -10.485
REMARK INTRA:                  -2.511
REMARK UNBOUND:                -2.511
REMARK  Name = lig_assembled_6.pdb
REMARK  17 active torsions:
REMARK  status: ('A' for Active; 'I' for Inactive)
REMARK    1  A    between atoms: _2  and  _10
REMARK    2  A    between atoms: _3  and  _13
REMARK    3  A    between atoms: _5  and  _21
REMARK    4  A    between atoms: _7  and  _8
REMARK    5  A    between atoms: _7  and  _21
REMARK    6  A    between atoms: _17  and  _37
REMARK    7  A    between atoms: _19  and  _25
REMARK    8  A    between atoms: _20  and  _24
REMARK    9  A    between atoms: _24  and  _25
REMARK   10  A    between atoms: _27  and  _28
REMARK   11  A    between atoms: _29  and  _30
REMARK   12  A    between atoms: _31  and  _33
REMARK   13  A    between atoms: _33  and  _34
REMARK   14  A    between atoms: _33  and  _35
REMARK   15  A    between atoms: _35  and  _36
REMARK   16  A    between atoms: _35  and  _37
REMARK   17  A    between atoms: _38  and  _40
REMARK                            x       y       z     vdW  Elec       q    Type
REMARK                         _______ _______ _______ _____ _____    ______ ____
ROOT
ATOM      1  C   UNL     1       7.186   2.505  34.573  0.00  0.00    +0.163 C 
ENDROOT
BRANCH   1   2
ATOM      2  O   UNL     1       7.565   2.162  35.916  0.00  0.00    -0.388 OA
ATOM      3  H   UNL     1       7.719   2.965  36.421  0.00  0.00    +0.210 HD
ENDBRANCH   1   2
BRANCH   1   4
ATOM      4  C   UNL     1       7.648   1.418  33.608  0.00  0.00    +0.141 C 
BRANCH   4   7
ATOM      5  C   UNL     1       5.733   1.159  32.067  0.00  0.00    +0.401 C 
ATOM      6  O   UNL     1       5.869   2.275  31.561  0.00  0.00    -0.226 OA
ATOM      7  N   UNL     1       6.516   0.679  33.034  0.00  0.00    -0.279 N 
ATOM      8  H   UNL     1       6.320  -0.245  33.392  0.00  0.00    +0.152 HD
BRANCH   5   9
ATOM      9  O   UNL     1       4.677   0.312  31.608  0.00  0.00    -0.444 OA
BRANCH   9  10
ATOM     10  C   UNL     1       3.481   0.601  32.337  0.00  0.00    +0.292 C 
BRANCH  10  12
ATOM     11  N   UNL     1       1.309   1.726  31.958  0.00  0.00    -0.131 NA
ATOM     12  C   UNL     1       2.500   1.276  31.467  0.00  0.00    +0.121 A 
ATOM     13  C   UNL     1       2.575   1.575  30.126  0.00  0.00    +0.143 A 
ATOM     14  N   UNL     1       1.405   2.243  29.845  0.00  0.00    -0.220 N 
ATOM     15  N   UNL     1       0.646   2.305  30.965  0.00  0.00    -0.060 NA
BRANCH  14  16
ATOM     16  C   UNL     1       0.995   2.842  28.623  0.00  0.00    +0.067 A 
ATOM     17  C   UNL     1       1.902   2.996  27.563  0.00  0.00    +0.034 A 
ATOM     18  C   UNL     1       1.503   3.643  26.388  0.00  0.00    +0.086 A 
ATOM     19  C   UNL     1       0.197   4.134  26.272  0.00  0.00    +0.273 A 
ATOM     20  C   UNL     1      -0.722   3.961  27.313  0.00  0.00    +0.086 A 
ATOM     21  C   UNL     1      -0.321   3.313  28.487  0.00  0.00    +0.034 A 
BRANCH  19  22
ATOM     22  N   UNL     1      -0.201   4.850  25.053  0.00  0.00    +0.080 N 
ATOM     23  O   UNL     1      -1.373   4.723  24.668  0.00  0.00    +0.041 OA
ATOM     24  O   UNL     1       0.658   5.531  24.477  0.00  0.00    -0.576 OA
ENDBRANCH  19  22
ENDBRANCH  14  16
ENDBRANCH  10  12
ENDBRANCH   9  10
ENDBRANCH   5   9
ENDBRANCH   4   7
ENDBRANCH   1   4
BRANCH   1  25
ATOM     25  C   UNL     1       7.796   3.854  34.157  0.00  0.00    +0.175 C 
BRANCH  25  26
ATOM     26  C   UNL     1       7.266   5.016  35.010  0.00  0.00    +0.176 C 
ATOM     27  O   UNL     1       7.972   4.996  36.281  0.00  0.00    -0.332 OA
ATOM     28  C   UNL     1       7.670   6.105  37.192  0.00  0.00    +0.277 C 
ATOM     29  C   UNL     1       6.145   6.199  37.442  0.00  0.00    +0.110 C 
ATOM     30  C   UNL     1       5.349   6.191  36.120  0.00  0.00    +0.143 C 
ATOM     31  C   UNL     1       5.744   4.998  35.249  0.00  0.00    +0.133 C 
BRANCH  31  32
ATOM     32  N   UNL     1       5.043   5.049  33.956  0.00  0.00    -0.308 N 
ATOM     33  H   UNL     1       5.345   5.740  33.284  0.00  0.00    +0.149 HD
ATOM     34  C   UNL     1       4.035   4.243  33.614  0.00  0.00    +0.210 C 
ATOM     35  C   UNL     1       3.582   3.218  34.671  0.00  0.00    +0.109 C 
ATOM     36  O   UNL     1       3.476   4.299  32.518  0.00  0.00    -0.276 OA
ENDBRANCH  31  32
BRANCH  28  37
ATOM     37  C   UNL     1       8.181   7.441  36.615  0.00  0.00    +0.414 C 
ATOM     38  O   UNL     1       8.994   7.448  35.691  0.00  0.00    -0.240 OA
ATOM     39  O   UNL     1       7.780   8.512  37.072  0.00  0.00    -0.240 OA
ENDBRANCH  28  37
BRANCH  30  40
ATOM     40  O   UNL     1       3.950   6.126  36.401  0.00  0.00    -0.390 OA
ATOM     41  H   UNL     1       3.551   6.984  36.241  0.00  0.00    +0.210 HD
ENDBRANCH  30  40
BRANCH  28  42
ATOM     42  O   UNL     1       8.326   5.837  38.458  0.00  0.00    -0.343 OA
ATOM     43  C   UNL     1       9.515   5.011  38.369  0.00  0.00    +0.198 C 
ENDBRANCH  28  42
ENDBRANCH  25  26
BRANCH  25  44
ATOM     44  O   UNL     1       7.539   4.106  32.761  0.00  0.00    -0.387 OA
ATOM     45  H   UNL     1       8.247   4.642  32.396  0.00  0.00    +0.210 HD
ENDBRANCH  25  44
ENDBRANCH   1  25
TORSDOF 15
