REMARK VINA RESULT:    -5.899      1.541      2.098
REMARK INTER + INTRA:         -12.400
REMARK INTER:                 -10.538
REMARK INTRA:                  -1.863
REMARK UNBOUND:                -2.191
REMARK  Name = lig_assembled_48.pdb
REMARK  16 active torsions:
REMARK  status: ('A' for Active; 'I' for Inactive)
REMARK    1  A    between atoms: _2  and  _9
REMARK    2  A    between atoms: _4  and  _18
REMARK    3  A    between atoms: _6  and  _7
REMARK    4  A    between atoms: _6  and  _18
REMARK    5  A    between atoms: _14  and  _34
REMARK    6  A    between atoms: _16  and  _22
REMARK    7  A    between atoms: _17  and  _21
REMARK    8  A    between atoms: _21  and  _22
REMARK    9  A    between atoms: _24  and  _25
REMARK   10  A    between atoms: _26  and  _27
REMARK   11  A    between atoms: _28  and  _30
REMARK   12  A    between atoms: _30  and  _31
REMARK   13  A    between atoms: _30  and  _32
REMARK   14  A    between atoms: _32  and  _33
REMARK   15  A    between atoms: _32  and  _34
REMARK   16  A    between atoms: _35  and  _37
REMARK                            x       y       z     vdW  Elec       q    Type
REMARK                         _______ _______ _______ _____ _____    ______ ____
ROOT
ATOM      1  C   UNL     1       4.594   3.749  32.464  0.00  0.00    +0.163 C 
ENDROOT
BRANCH   1   2
ATOM      2  O   UNL     1       3.935   4.443  33.536  0.00  0.00    -0.388 OA
ATOM      3  H   UNL     1       3.580   3.806  34.160  0.00  0.00    +0.210 HD
ENDBRANCH   1   2
BRANCH   1   4
ATOM      4  C   UNL     1       3.669   2.683  31.887  0.00  0.00    +0.141 C 
BRANCH   4   7
ATOM      5  C   UNL     1       1.611   3.863  31.194  0.00  0.00    +0.401 C 
ATOM      6  O   UNL     1       1.205   4.028  32.347  0.00  0.00    -0.226 OA
ATOM      7  N   UNL     1       2.749   3.239  30.887  0.00  0.00    -0.279 N 
ATOM      8  H   UNL     1       2.992   3.144  29.911  0.00  0.00    +0.152 HD
BRANCH   5   9
ATOM      9  O   UNL     1       0.828   4.358  30.105  0.00  0.00    -0.444 OA
BRANCH   9  10
ATOM     10  C   UNL     1       0.307   3.258  29.353  0.00  0.00    +0.292 C 
BRANCH  10  12
ATOM     11  N   UNL     1       1.993   3.812  27.633  0.00  0.00    -0.131 NA
ATOM     12  C   UNL     1       0.746   3.353  27.949  0.00  0.00    +0.120 A 
ATOM     13  C   UNL     1       0.084   3.013  26.789  0.00  0.00    +0.137 A 
ATOM     14  N   UNL     1       1.013   3.199  25.808  0.00  0.00    -0.248 N 
ATOM     15  N   UNL     1       2.134   3.751  26.318  0.00  0.00    -0.065 NA
BRANCH  14  16
ATOM     16  C   UNL     1       0.983   2.851  24.392  0.00  0.00    +0.109 C 
ATOM     17  C   UNL     1      -0.429   3.040  23.805  0.00  0.00    +0.027 C 
ATOM     18  C   UNL     1      -0.780   4.519  23.660  0.00  0.00    +0.002 C 
ATOM     19  C   UNL     1       0.211   5.225  22.743  0.00  0.00    +0.000 C 
ATOM     20  C   UNL     1       1.658   5.036  23.191  0.00  0.00    +0.002 C 
ATOM     21  C   UNL     1       2.011   3.577  23.501  0.00  0.00    +0.027 C 
ENDBRANCH  14  16
ENDBRANCH  10  12
ENDBRANCH   9  10
ENDBRANCH   5   9
ENDBRANCH   4   7
ENDBRANCH   1   4
BRANCH   1  22
ATOM     22  C   UNL     1       5.895   3.090  32.953  0.00  0.00    +0.175 C 
BRANCH  22  23
ATOM     23  C   UNL     1       6.308   3.589  34.346  0.00  0.00    +0.176 C 
ATOM     24  O   UNL     1       6.813   4.945  34.203  0.00  0.00    -0.332 OA
ATOM     25  C   UNL     1       7.159   5.628  35.454  0.00  0.00    +0.277 C 
ATOM     26  C   UNL     1       8.162   4.779  36.274  0.00  0.00    +0.110 C 
ATOM     27  C   UNL     1       7.682   3.320  36.425  0.00  0.00    +0.143 C 
ATOM     28  C   UNL     1       7.347   2.709  35.064  0.00  0.00    +0.133 C 
BRANCH  28  29
ATOM     29  N   UNL     1       6.809   1.349  35.229  0.00  0.00    -0.308 N 
ATOM     30  H   UNL     1       6.024   1.224  35.853  0.00  0.00    +0.149 HD
ATOM     31  C   UNL     1       7.290   0.269  34.607  0.00  0.00    +0.210 C 
ATOM     32  C   UNL     1       8.503   0.488  33.683  0.00  0.00    +0.109 C 
ATOM     33  O   UNL     1       6.810  -0.856  34.753  0.00  0.00    -0.276 OA
ENDBRANCH  28  29
BRANCH  25  34
ATOM     34  C   UNL     1       5.896   5.894  36.299  0.00  0.00    +0.414 C 
ATOM     35  O   UNL     1       4.782   5.621  35.853  0.00  0.00    -0.240 OA
ATOM     36  O   UNL     1       5.991   6.380  37.427  0.00  0.00    -0.240 OA
ENDBRANCH  25  34
BRANCH  27  37
ATOM     37  O   UNL     1       8.701   2.541  37.053  0.00  0.00    -0.390 OA
ATOM     38  H   UNL     1       8.473   1.610  36.996  0.00  0.00    +0.210 HD
ENDBRANCH  27  37
BRANCH  25  39
ATOM     39  O   UNL     1       7.795   6.887  35.116  0.00  0.00    -0.343 OA
ATOM     40  C   UNL     1       6.996   7.777  34.296  0.00  0.00    +0.198 C 
ENDBRANCH  25  39
ENDBRANCH  22  23
BRANCH  22  41
ATOM     41  O   UNL     1       6.957   3.325  32.007  0.00  0.00    -0.387 OA
ATOM     42  H   UNL     1       6.688   3.012  31.140  0.00  0.00    +0.210 HD
ENDBRANCH  22  41
ENDBRANCH   1  22
TORSDOF 14
