REMARK VINA RESULT:    -6.862     14.767     16.361
REMARK INTER + INTRA:         -14.026
REMARK INTER:                 -11.727
REMARK INTRA:                  -2.299
REMARK UNBOUND:                -2.150
REMARK  Name = lig_assembled_80.pdb
REMARK  16 active torsions:
REMARK  status: ('A' for Active; 'I' for Inactive)
REMARK    1  A    between atoms: _2  and  _10
REMARK    2  A    between atoms: _5  and  _24
REMARK    3  A    between atoms: _7  and  _8
REMARK    4  A    between atoms: _7  and  _24
REMARK    5  A    between atoms: _20  and  _40
REMARK    6  A    between atoms: _22  and  _28
REMARK    7  A    between atoms: _23  and  _27
REMARK    8  A    between atoms: _27  and  _28
REMARK    9  A    between atoms: _30  and  _31
REMARK   10  A    between atoms: _32  and  _33
REMARK   11  A    between atoms: _34  and  _36
REMARK   12  A    between atoms: _36  and  _37
REMARK   13  A    between atoms: _36  and  _38
REMARK   14  A    between atoms: _38  and  _39
REMARK   15  A    between atoms: _38  and  _40
REMARK   16  A    between atoms: _41  and  _43
REMARK                            x       y       z     vdW  Elec       q    Type
REMARK                         _______ _______ _______ _____ _____    ______ ____
ROOT
ATOM      1  C   UNL     1      18.666  10.032  27.398  0.00  0.00    +0.141 C 
ENDROOT
BRANCH   1   4
ATOM      2  C   UNL     1      18.599   7.911  26.132  0.00  0.00    +0.401 C 
ATOM      3  O   UNL     1      17.485   8.126  25.648  0.00  0.00    -0.226 OA
ATOM      4  N   UNL     1      19.223   8.745  26.965  0.00  0.00    -0.279 N 
ATOM      5  H   UNL     1      20.131   8.476  27.317  0.00  0.00    +0.152 HD
BRANCH   2   6
ATOM      6  O   UNL     1      19.278   6.698  25.798  0.00  0.00    -0.444 OA
BRANCH   6   7
ATOM      7  C   UNL     1      19.499   6.647  24.386  0.00  0.00    +0.292 C 
BRANCH   7   9
ATOM      8  N   UNL     1      17.687   5.844  22.922  0.00  0.00    -0.131 NA
ATOM      9  C   UNL     1      18.711   5.554  23.781  0.00  0.00    +0.120 A 
ATOM     10  C   UNL     1      18.821   4.189  23.921  0.00  0.00    +0.138 A 
ATOM     11  N   UNL     1      17.792   3.700  23.160  0.00  0.00    -0.239 N 
ATOM     12  N   UNL     1      17.137   4.702  22.533  0.00  0.00    -0.065 NA
BRANCH  11  13
ATOM     13  C   UNL     1      17.452   2.313  22.821  0.00  0.00    +0.195 C 
ATOM     14  C   UNL     1      18.606   1.714  22.030  0.00  0.00    +0.041 C 
ATOM     15  C   UNL     1      18.208   0.395  21.401  0.00  0.00    +0.039 C 
ATOM     16  C   UNL     1      18.398  -0.715  22.387  0.00  0.00    -0.026 A 
ATOM     17  C   UNL     1      17.661  -0.804  23.570  0.00  0.00    +0.037 A 
ATOM     18  C   UNL     1      17.808  -1.939  24.386  0.00  0.00    +0.023 A 
ATOM     19  C   UNL     1      18.759  -2.916  24.096  0.00  0.00    +0.002 A 
ATOM     20  C   UNL     1      19.544  -2.792  22.960  0.00  0.00    +0.000 A 
ATOM     21  N   UNL     1      16.818   0.195  24.088  0.00  0.00    -0.284 N 
ATOM     22  H   UNL     1      16.341  -0.057  24.948  0.00  0.00    +0.155 HD
ATOM     23  C   UNL     1      19.348  -1.714  22.099  0.00  0.00    +0.005 A 
ATOM     24  C   UNL     1      16.941   1.554  24.040  0.00  0.00    +0.242 C 
ATOM     25  O   UNL     1      16.496   2.146  25.031  0.00  0.00    -0.273 OA
ENDBRANCH  11  13
ENDBRANCH   7   9
ENDBRANCH   6   7
ENDBRANCH   2   6
ENDBRANCH   1   4
BRANCH   1  26
ATOM     26  C   UNL     1      18.696  10.183  28.915  0.00  0.00    +0.163 C 
BRANCH  26  27
ATOM     27  O   UNL     1      17.488  10.815  29.370  0.00  0.00    -0.388 OA
ATOM     28  H   UNL     1      17.591  11.769  29.330  0.00  0.00    +0.210 HD
ENDBRANCH  26  27
BRANCH  26  29
ATOM     29  C   UNL     1      18.872   8.800  29.566  0.00  0.00    +0.175 C 
BRANCH  29  30
ATOM     30  C   UNL     1      18.217   8.726  30.953  0.00  0.00    +0.176 C 
ATOM     31  O   UNL     1      18.571   9.936  31.679  0.00  0.00    -0.332 OA
ATOM     32  C   UNL     1      17.944  10.091  32.995  0.00  0.00    +0.277 C 
ATOM     33  C   UNL     1      18.225   8.850  33.878  0.00  0.00    +0.110 C 
ATOM     34  C   UNL     1      17.894   7.538  33.136  0.00  0.00    +0.143 C 
ATOM     35  C   UNL     1      18.595   7.483  31.779  0.00  0.00    +0.133 C 
BRANCH  35  36
ATOM     36  N   UNL     1      18.204   6.268  31.045  0.00  0.00    -0.308 N 
ATOM     37  H   UNL     1      17.249   6.201  30.720  0.00  0.00    +0.149 HD
ATOM     38  C   UNL     1      19.026   5.250  30.782  0.00  0.00    +0.210 C 
ATOM     39  C   UNL     1      20.467   5.371  31.315  0.00  0.00    +0.109 C 
ATOM     40  O   UNL     1      18.675   4.251  30.153  0.00  0.00    -0.276 OA
ENDBRANCH  35  36
BRANCH  32  41
ATOM     41  C   UNL     1      16.421  10.291  32.856  0.00  0.00    +0.414 C 
ATOM     42  O   UNL     1      15.961  10.900  31.891  0.00  0.00    -0.240 OA
ATOM     43  O   UNL     1      15.652   9.842  33.707  0.00  0.00    -0.240 OA
ENDBRANCH  32  41
BRANCH  34  44
ATOM     44  O   UNL     1      18.308   6.421  33.925  0.00  0.00    -0.390 OA
ATOM     45  H   UNL     1      18.940   5.895  33.430  0.00  0.00    +0.210 HD
ENDBRANCH  34  44
BRANCH  32  46
ATOM     46  O   UNL     1      18.532  11.252  33.638  0.00  0.00    -0.343 OA
ATOM     47  C   UNL     1      19.536  11.943  32.853  0.00  0.00    +0.198 C 
ENDBRANCH  32  46
ENDBRANCH  29  30
BRANCH  29  48
ATOM     48  O   UNL     1      20.272   8.470  29.659  0.00  0.00    -0.387 OA
ATOM     49  H   UNL     1      20.797   9.267  29.553  0.00  0.00    +0.210 HD
ENDBRANCH  29  48
ENDBRANCH  26  29
ENDBRANCH   1  26
TORSDOF 14
