REMARK VINA RESULT:    -6.548      2.463     11.023
REMARK INTER + INTRA:         -16.572
REMARK INTER:                 -12.586
REMARK INTRA:                  -3.986
REMARK UNBOUND:                -3.133
REMARK  Name = lig_assembled_90.pdb
REMARK  22 active torsions:
REMARK  status: ('A' for Active; 'I' for Inactive)
REMARK    1  A    between atoms: _2  and  _13
REMARK    2  A    between atoms: _3  and  _15
REMARK    3  A    between atoms: _4  and  _17
REMARK    4  A    between atoms: _8  and  _28
REMARK    5  A    between atoms: _10  and  _11
REMARK    6  A    between atoms: _10  and  _28
REMARK    7  A    between atoms: _13  and  _14
REMARK    8  A    between atoms: _15  and  _16
REMARK    9  A    between atoms: _16  and  _17
REMARK   10  A    between atoms: _16  and  _22
REMARK   11  A    between atoms: _24  and  _44
REMARK   12  A    between atoms: _26  and  _32
REMARK   13  A    between atoms: _27  and  _31
REMARK   14  A    between atoms: _31  and  _32
REMARK   15  A    between atoms: _34  and  _35
REMARK   16  A    between atoms: _36  and  _37
REMARK   17  A    between atoms: _38  and  _40
REMARK   18  A    between atoms: _40  and  _41
REMARK   19  A    between atoms: _40  and  _42
REMARK   20  A    between atoms: _42  and  _43
REMARK   21  A    between atoms: _42  and  _44
REMARK   22  A    between atoms: _45  and  _47
REMARK                            x       y       z     vdW  Elec       q    Type
REMARK                         _______ _______ _______ _____ _____    ______ ____
ROOT
ATOM      1  C   UNL     1      20.096  10.602  26.796  0.00  0.00    +0.401 C 
ATOM      2  O   UNL     1      20.345  11.780  26.530  0.00  0.00    -0.226 OA
ATOM      3  N   UNL     1      19.361  10.212  27.838  0.00  0.00    -0.279 N 
ATOM      4  H   UNL     1      19.204   9.223  27.968  0.00  0.00    +0.152 HD
ENDROOT
BRANCH   3   5
ATOM      5  C   UNL     1      18.767  11.141  28.808  0.00  0.00    +0.141 C 
BRANCH   5   6
ATOM      6  C   UNL     1      18.493  10.466  30.148  0.00  0.00    +0.163 C 
BRANCH   6   7
ATOM      7  O   UNL     1      17.133  10.700  30.548  0.00  0.00    -0.388 OA
ATOM      8  H   UNL     1      16.723  11.320  29.941  0.00  0.00    +0.210 HD
ENDBRANCH   6   7
BRANCH   6   9
ATOM      9  C   UNL     1      18.781   8.959  30.032  0.00  0.00    +0.175 C 
BRANCH   9  10
ATOM     10  C   UNL     1      18.052   8.147  31.113  0.00  0.00    +0.176 C 
ATOM     11  O   UNL     1      18.135   8.888  32.361  0.00  0.00    -0.332 OA
ATOM     12  C   UNL     1      17.399   8.312  33.491  0.00  0.00    +0.277 C 
ATOM     13  C   UNL     1      17.830   6.843  33.725  0.00  0.00    +0.110 C 
ATOM     14  C   UNL     1      17.788   6.023  32.418  0.00  0.00    +0.143 C 
ATOM     15  C   UNL     1      18.583   6.714  31.310  0.00  0.00    +0.133 C 
BRANCH  15  16
ATOM     16  N   UNL     1      18.464   5.968  30.048  0.00  0.00    -0.308 N 
ATOM     17  H   UNL     1      17.566   5.963  29.586  0.00  0.00    +0.149 HD
ATOM     18  C   UNL     1      19.466   5.297  29.473  0.00  0.00    +0.210 C 
ATOM     19  C   UNL     1      20.815   5.303  30.215  0.00  0.00    +0.109 C 
ATOM     20  O   UNL     1      19.341   4.693  28.407  0.00  0.00    -0.276 OA
ENDBRANCH  15  16
BRANCH  12  21
ATOM     21  C   UNL     1      15.878   8.369  33.239  0.00  0.00    +0.414 C 
ATOM     22  O   UNL     1      15.134   7.526  33.738  0.00  0.00    -0.240 OA
ATOM     23  O   UNL     1      15.395   9.258  32.537  0.00  0.00    -0.240 OA
ENDBRANCH  12  21
BRANCH  14  24
ATOM     24  O   UNL     1      18.334   4.723  32.648  0.00  0.00    -0.390 OA
ATOM     25  H   UNL     1      19.171   4.804  33.113  0.00  0.00    +0.210 HD
ENDBRANCH  14  24
BRANCH  12  26
ATOM     26  O   UNL     1      17.726   9.079  34.678  0.00  0.00    -0.343 OA
ATOM     27  C   UNL     1      17.910   8.294  35.883  0.00  0.00    +0.198 C 
ENDBRANCH  12  26
ENDBRANCH   9  10
BRANCH   9  28
ATOM     28  O   UNL     1      20.200   8.718  30.102  0.00  0.00    -0.387 OA
ATOM     29  H   UNL     1      20.563   8.678  29.214  0.00  0.00    +0.210 HD
ENDBRANCH   9  28
ENDBRANCH   6   9
ENDBRANCH   5   6
ENDBRANCH   3   5
BRANCH   1  30
ATOM     30  O   UNL     1      20.613   9.574  25.947  0.00  0.00    -0.444 OA
BRANCH  30  31
ATOM     31  C   UNL     1      20.764   8.366  26.698  0.00  0.00    +0.292 C 
BRANCH  31  33
ATOM     32  N   UNL     1      18.783   7.256  25.700  0.00  0.00    -0.131 NA
ATOM     33  C   UNL     1      20.122   7.238  25.994  0.00  0.00    +0.120 A 
ATOM     34  C   UNL     1      20.667   6.060  25.536  0.00  0.00    +0.137 A 
ATOM     35  N   UNL     1      19.616   5.415  24.955  0.00  0.00    -0.242 N 
ATOM     36  N   UNL     1      18.481   6.127  25.072  0.00  0.00    -0.065 NA
BRANCH  35  37
ATOM     37  C   UNL     1      19.589   4.094  24.375  0.00  0.00    +0.240 C 
BRANCH  37  38
ATOM     38  C   UNL     1      19.119   3.063  25.374  0.00  0.00    +0.235 C 
ATOM     39  O   UNL     1      19.843   2.155  25.781  0.00  0.00    -0.274 OA
ATOM     40  N   UNL     1      17.832   3.243  25.847  0.00  0.00    -0.311 N 
ATOM     41  H   UNL     1      17.190   3.814  25.303  0.00  0.00    +0.149 HD
BRANCH  40  42
ATOM     42  C   UNL     1      17.233   2.269  26.749  0.00  0.00    +0.137 C 
BRANCH  42  43
ATOM     43  C   UNL     1      16.547   1.138  25.969  0.00  0.00    +0.151 C 
BRANCH  43  44
ATOM     44  O   UNL     1      15.287   0.852  26.590  0.00  0.00    -0.388 OA
ATOM     45  H   UNL     1      14.732   1.658  26.565  0.00  0.00    +0.210 HD
ENDBRANCH  43  44
BRANCH  43  46
ATOM     46  C   UNL     1      16.371   1.496  24.488  0.00  0.00    +0.162 C 
BRANCH  46  47
ATOM     47  N   UNL     1      17.078   0.577  23.606  0.00  0.00    -0.269 N 
ATOM     48  C   UNL     1      17.295  -0.747  23.919  0.00  0.00    +0.113 A 
ATOM     49  C   UNL     1      18.023  -1.263  22.874  0.00  0.00    +0.137 A 
ATOM     50  N   UNL     1      18.263  -0.298  21.930  0.00  0.00    -0.172 NA
ATOM     51  C   UNL     1      17.674   0.795  22.388  0.00  0.00    +0.450 A 
ATOM     52  N   UNL     1      17.693   2.043  21.665  0.00  0.00    +0.120 N 
ATOM     53  O   UNL     1      17.025   2.981  22.119  0.00  0.00    +0.045 OA
ATOM     54  O   UNL     1      18.388   2.095  20.642  0.00  0.00    -0.573 OA
ENDBRANCH  46  47
ENDBRANCH  43  46
ENDBRANCH  42  43
ENDBRANCH  40  42
ENDBRANCH  37  38
ENDBRANCH  35  37
ENDBRANCH  31  33
ENDBRANCH  30  31
ENDBRANCH   1  30
TORSDOF 20
