REMARK VINA RESULT:    -6.347     19.292     24.297
REMARK INTER + INTRA:         -13.169
REMARK INTER:                 -10.654
REMARK INTRA:                  -2.515
REMARK UNBOUND:                -1.813
REMARK  Name = lig_assembled_41.pdb
REMARK  18 active torsions:
REMARK  status: ('A' for Active; 'I' for Inactive)
REMARK    1  A    between atoms: _2  and  _9
REMARK    2  A    between atoms: _4  and  _21
REMARK    3  A    between atoms: _6  and  _7
REMARK    4  A    between atoms: _6  and  _21
REMARK    5  A    between atoms: _10  and  _11
REMARK    6  A    between atoms: _11  and  _12
REMARK    7  A    between atoms: _17  and  _37
REMARK    8  A    between atoms: _19  and  _25
REMARK    9  A    between atoms: _20  and  _24
REMARK   10  A    between atoms: _24  and  _25
REMARK   11  A    between atoms: _27  and  _28
REMARK   12  A    between atoms: _29  and  _30
REMARK   13  A    between atoms: _31  and  _33
REMARK   14  A    between atoms: _33  and  _34
REMARK   15  A    between atoms: _33  and  _35
REMARK   16  A    between atoms: _35  and  _36
REMARK   17  A    between atoms: _35  and  _37
REMARK   18  A    between atoms: _38  and  _40
REMARK                            x       y       z     vdW  Elec       q    Type
REMARK                         _______ _______ _______ _____ _____    ______ ____
ROOT
ATOM      1  C   UNL     1       4.950  23.319  16.343  0.00  0.00    +0.163 C 
ENDROOT
BRANCH   1   2
ATOM      2  O   UNL     1       5.411  21.959  16.287  0.00  0.00    -0.388 OA
ATOM      3  H   UNL     1       5.715  21.760  15.399  0.00  0.00    +0.210 HD
ENDBRANCH   1   2
BRANCH   1   4
ATOM      4  C   UNL     1       4.764  23.747  17.795  0.00  0.00    +0.141 C 
BRANCH   4   7
ATOM      5  C   UNL     1       2.852  23.778  19.360  0.00  0.00    +0.401 C 
ATOM      6  O   UNL     1       3.186  24.839  19.894  0.00  0.00    -0.226 OA
ATOM      7  N   UNL     1       3.535  23.193  18.376  0.00  0.00    -0.279 N 
ATOM      8  H   UNL     1       3.187  22.318  18.009  0.00  0.00    +0.152 HD
BRANCH   5   9
ATOM      9  O   UNL     1       1.668  23.116  19.811  0.00  0.00    -0.444 OA
BRANCH   9  10
ATOM     10  C   UNL     1       0.712  23.070  18.748  0.00  0.00    +0.292 C 
BRANCH  10  12
ATOM     11  N   UNL     1      -0.560  21.159  17.847  0.00  0.00    -0.131 NA
ATOM     12  C   UNL     1      -0.188  21.915  18.917  0.00  0.00    +0.121 A 
ATOM     13  C   UNL     1      -0.765  21.397  20.056  0.00  0.00    +0.143 A 
ATOM     14  N   UNL     1      -1.576  20.376  19.615  0.00  0.00    -0.219 N 
ATOM     15  N   UNL     1      -1.357  20.196  18.283  0.00  0.00    -0.060 NA
BRANCH  14  16
ATOM     16  C   UNL     1      -2.439  19.499  20.331  0.00  0.00    +0.077 A 
ATOM     17  C   UNL     1      -2.017  18.346  21.027  0.00  0.00    +0.043 A 
ATOM     18  C   UNL     1      -2.989  17.537  21.653  0.00  0.00    +0.013 A 
ATOM     19  C   UNL     1      -4.348  17.853  21.587  0.00  0.00    +0.001 A 
ATOM     20  C   UNL     1      -4.761  18.999  20.923  0.00  0.00    +0.002 A 
ATOM     21  C   UNL     1      -3.816  19.820  20.311  0.00  0.00    +0.028 A 
BRANCH  17  22
ATOM     22  C   UNL     1      -0.587  18.032  21.329  0.00  0.00    +0.162 C 
ATOM     23  O   UNL     1      -0.141  18.271  22.449  0.00  0.00    -0.292 OA
ATOM     24  C   UNL     1       0.298  17.425  20.267  0.00  0.00    +0.091 C 
ENDBRANCH  17  22
ENDBRANCH  14  16
ENDBRANCH  10  12
ENDBRANCH   9  10
ENDBRANCH   5   9
ENDBRANCH   4   7
ENDBRANCH   1   4
BRANCH   1  25
ATOM     25  C   UNL     1       3.622  23.481  15.585  0.00  0.00    +0.175 C 
BRANCH  25  26
ATOM     26  C   UNL     1       3.440  22.408  14.501  0.00  0.00    +0.176 C 
ATOM     27  O   UNL     1       4.664  22.351  13.718  0.00  0.00    -0.332 OA
ATOM     28  C   UNL     1       4.714  21.302  12.696  0.00  0.00    +0.277 C 
ATOM     29  C   UNL     1       3.493  21.409  11.750  0.00  0.00    +0.110 C 
ATOM     30  C   UNL     1       2.170  21.505  12.538  0.00  0.00    +0.143 C 
ATOM     31  C   UNL     1       2.228  22.626  13.575  0.00  0.00    +0.133 C 
BRANCH  31  32
ATOM     32  N   UNL     1       0.995  22.651  14.378  0.00  0.00    -0.308 N 
ATOM     33  H   UNL     1       0.807  21.860  14.978  0.00  0.00    +0.149 HD
ATOM     34  C   UNL     1       0.108  23.650  14.364  0.00  0.00    +0.210 C 
ATOM     35  C   UNL     1       0.411  24.828  13.419  0.00  0.00    +0.109 C 
ATOM     36  O   UNL     1      -0.909  23.650  15.058  0.00  0.00    -0.276 OA
ENDBRANCH  31  32
BRANCH  28  37
ATOM     37  C   UNL     1       4.740  19.904  13.348  0.00  0.00    +0.414 C 
ATOM     38  O   UNL     1       4.371  18.916  12.713  0.00  0.00    -0.240 OA
ATOM     39  O   UNL     1       5.130  19.763  14.507  0.00  0.00    -0.240 OA
ENDBRANCH  28  37
BRANCH  30  40
ATOM     40  O   UNL     1       1.090  21.754  11.637  0.00  0.00    -0.390 OA
ATOM     41  H   UNL     1       1.321  22.479  11.051  0.00  0.00    +0.210 HD
ENDBRANCH  30  40
BRANCH  28  42
ATOM     42  O   UNL     1       5.919  21.497  11.911  0.00  0.00    -0.343 OA
ATOM     43  C   UNL     1       5.808  22.484  10.855  0.00  0.00    +0.198 C 
ENDBRANCH  28  42
ENDBRANCH  25  26
BRANCH  25  44
ATOM     44  O   UNL     1       3.542  24.797  15.000  0.00  0.00    -0.387 OA
ATOM     45  H   UNL     1       3.865  24.766  14.096  0.00  0.00    +0.210 HD
ENDBRANCH  25  44
ENDBRANCH   1  25
TORSDOF 15
