REMARK VINA RESULT:    -6.684      4.932      6.049
REMARK INTER + INTRA:         -13.734
REMARK INTER:                 -11.578
REMARK INTRA:                  -2.157
REMARK UNBOUND:                -1.775
REMARK  Name = lig_assembled_69.pdb
REMARK  18 active torsions:
REMARK  status: ('A' for Active; 'I' for Inactive)
REMARK    1  A    between atoms: _2  and  _9
REMARK    2  A    between atoms: _4  and  _21
REMARK    3  A    between atoms: _6  and  _7
REMARK    4  A    between atoms: _6  and  _21
REMARK    5  A    between atoms: _11  and  _16
REMARK    6  A    between atoms: _14  and  _15
REMARK    7  A    between atoms: _17  and  _37
REMARK    8  A    between atoms: _19  and  _25
REMARK    9  A    between atoms: _20  and  _24
REMARK   10  A    between atoms: _24  and  _25
REMARK   11  A    between atoms: _27  and  _28
REMARK   12  A    between atoms: _29  and  _30
REMARK   13  A    between atoms: _31  and  _33
REMARK   14  A    between atoms: _33  and  _34
REMARK   15  A    between atoms: _33  and  _35
REMARK   16  A    between atoms: _35  and  _36
REMARK   17  A    between atoms: _35  and  _37
REMARK   18  A    between atoms: _38  and  _40
REMARK                            x       y       z     vdW  Elec       q    Type
REMARK                         _______ _______ _______ _____ _____    ______ ____
ROOT
ATOM      1  C   UNL     1       7.827   2.478  34.185  0.00  0.00    +0.163 C 
ENDROOT
BRANCH   1   2
ATOM      2  O   UNL     1       8.766   2.606  35.266  0.00  0.00    -0.388 OA
ATOM      3  H   UNL     1       9.660   2.600  34.916  0.00  0.00    +0.210 HD
ENDBRANCH   1   2
BRANCH   1   4
ATOM      4  C   UNL     1       7.791   3.757  33.332  0.00  0.00    +0.175 C 
BRANCH   4   5
ATOM      5  C   UNL     1       6.993   4.881  34.008  0.00  0.00    +0.176 C 
ATOM      6  O   UNL     1       7.783   5.385  35.120  0.00  0.00    -0.332 OA
ATOM      7  C   UNL     1       7.222   6.542  35.824  0.00  0.00    +0.277 C 
ATOM      8  C   UNL     1       5.781   6.238  36.302  0.00  0.00    +0.110 C 
ATOM      9  C   UNL     1       4.911   5.669  35.162  0.00  0.00    +0.143 C 
ATOM     10  C   UNL     1       5.591   4.471  34.497  0.00  0.00    +0.133 C 
BRANCH  10  11
ATOM     11  N   UNL     1       4.793   3.993  33.357  0.00  0.00    -0.308 N 
ATOM     12  H   UNL     1       4.756   4.574  32.531  0.00  0.00    +0.149 HD
ATOM     13  C   UNL     1       4.116   2.842  33.342  0.00  0.00    +0.210 C 
ATOM     14  C   UNL     1       4.172   1.992  34.626  0.00  0.00    +0.109 C 
ATOM     15  O   UNL     1       3.468   2.460  32.368  0.00  0.00    -0.276 OA
ENDBRANCH  10  11
BRANCH   7  16
ATOM     16  C   UNL     1       7.210   7.785  34.910  0.00  0.00    +0.414 C 
ATOM     17  O   UNL     1       6.155   8.181  34.416  0.00  0.00    -0.240 OA
ATOM     18  O   UNL     1       8.254   8.392  34.668  0.00  0.00    -0.240 OA
ENDBRANCH   7  16
BRANCH   7  19
ATOM     19  O   UNL     1       8.046   6.801  36.990  0.00  0.00    -0.343 OA
ATOM     20  C   UNL     1       9.240   5.985  37.089  0.00  0.00    +0.198 C 
ENDBRANCH   7  19
BRANCH   9  21
ATOM     21  O   UNL     1       3.643   5.262  35.680  0.00  0.00    -0.390 OA
ATOM     22  H   UNL     1       2.971   5.371  35.003  0.00  0.00    +0.210 HD
ENDBRANCH   9  21
ENDBRANCH   4   5
BRANCH   4  23
ATOM     23  O   UNL     1       7.242   3.471  32.030  0.00  0.00    -0.387 OA
ATOM     24  H   UNL     1       7.902   3.652  31.357  0.00  0.00    +0.210 HD
ENDBRANCH   4  23
ENDBRANCH   1   4
BRANCH   1  25
ATOM     25  C   UNL     1       8.202   1.289  33.307  0.00  0.00    +0.141 C 
BRANCH  25  28
ATOM     26  C   UNL     1       6.520  -0.521  33.273  0.00  0.00    +0.401 C 
ATOM     27  O   UNL     1       7.009  -1.121  34.233  0.00  0.00    -0.226 OA
ATOM     28  N   UNL     1       7.016   0.610  32.769  0.00  0.00    -0.279 N 
ATOM     29  H   UNL     1       6.550   1.022  31.974  0.00  0.00    +0.152 HD
BRANCH  26  30
ATOM     30  O   UNL     1       5.353  -1.054  32.642  0.00  0.00    -0.444 OA
BRANCH  30  31
ATOM     31  C   UNL     1       5.118  -0.366  31.411  0.00  0.00    +0.292 C 
BRANCH  31  33
ATOM     32  N   UNL     1       6.870  -1.480  30.071  0.00  0.00    -0.131 NA
ATOM     33  C   UNL     1       5.546  -1.195  30.269  0.00  0.00    +0.120 A 
ATOM     34  C   UNL     1       4.803  -1.783  29.270  0.00  0.00    +0.137 A 
ATOM     35  N   UNL     1       5.735  -2.399  28.488  0.00  0.00    -0.248 N 
ATOM     36  N   UNL     1       6.974  -2.215  28.974  0.00  0.00    -0.065 NA
BRANCH  35  37
ATOM     37  C   UNL     1       5.521  -3.135  27.243  0.00  0.00    +0.114 C 
ATOM     38  C   UNL     1       6.822  -3.277  26.443  0.00  0.00    +0.062 C 
ATOM     39  C   UNL     1       7.191  -2.101  25.537  0.00  0.00    +0.139 C 
ATOM     40  C   UNL     1       6.336  -1.902  24.317  0.00  0.00    +0.002 C 
ATOM     41  C   UNL     1       5.087  -2.336  24.087  0.00  0.00    +0.002 C 
ATOM     42  C   UNL     1       4.159  -3.012  25.050  0.00  0.00    +0.139 C 
ATOM     43  C   UNL     1       4.309  -2.557  26.498  0.00  0.00    +0.062 C 
BRANCH  39  44
ATOM     44  O   UNL     1       8.512  -2.353  25.041  0.00  0.00    -0.388 OA
ATOM     45  H   UNL     1       9.123  -1.787  25.543  0.00  0.00    +0.210 HD
ENDBRANCH  39  44
BRANCH  42  46
ATOM     46  O   UNL     1       4.321  -4.418  24.952  0.00  0.00    -0.388 OA
ATOM     47  H   UNL     1       3.904  -4.700  24.119  0.00  0.00    +0.210 HD
ENDBRANCH  42  46
ENDBRANCH  35  37
ENDBRANCH  31  33
ENDBRANCH  30  31
ENDBRANCH  26  30
ENDBRANCH  25  28
ENDBRANCH   1  25
TORSDOF 16
