REMARK VINA RESULT:    -5.760     19.018     23.399
REMARK INTER + INTRA:         -12.161
REMARK INTER:                 -10.426
REMARK INTRA:                  -1.735
REMARK UNBOUND:                -2.191
REMARK  Name = lig_assembled_48.pdb
REMARK  16 active torsions:
REMARK  status: ('A' for Active; 'I' for Inactive)
REMARK    1  A    between atoms: _2  and  _9
REMARK    2  A    between atoms: _4  and  _18
REMARK    3  A    between atoms: _6  and  _7
REMARK    4  A    between atoms: _6  and  _18
REMARK    5  A    between atoms: _14  and  _34
REMARK    6  A    between atoms: _16  and  _22
REMARK    7  A    between atoms: _17  and  _21
REMARK    8  A    between atoms: _21  and  _22
REMARK    9  A    between atoms: _24  and  _25
REMARK   10  A    between atoms: _26  and  _27
REMARK   11  A    between atoms: _28  and  _30
REMARK   12  A    between atoms: _30  and  _31
REMARK   13  A    between atoms: _30  and  _32
REMARK   14  A    between atoms: _32  and  _33
REMARK   15  A    between atoms: _32  and  _34
REMARK   16  A    between atoms: _35  and  _37
REMARK                            x       y       z     vdW  Elec       q    Type
REMARK                         _______ _______ _______ _____ _____    ______ ____
ROOT
ATOM      1  C   UNL     1      -1.441  18.624  12.271  0.00  0.00    +0.163 C 
ENDROOT
BRANCH   1   2
ATOM      2  O   UNL     1      -0.060  18.818  12.615  0.00  0.00    -0.388 OA
ATOM      3  H   UNL     1       0.467  18.866  11.814  0.00  0.00    +0.210 HD
ENDBRANCH   1   2
BRANCH   1   4
ATOM      4  C   UNL     1      -2.308  19.650  12.992  0.00  0.00    +0.141 C 
BRANCH   4   7
ATOM      5  C   UNL     1      -1.465  20.881  14.962  0.00  0.00    +0.401 C 
ATOM      6  O   UNL     1      -1.253  21.923  14.338  0.00  0.00    -0.226 OA
ATOM      7  N   UNL     1      -1.952  19.768  14.411  0.00  0.00    -0.279 N 
ATOM      8  H   UNL     1      -2.082  18.960  15.004  0.00  0.00    +0.152 HD
BRANCH   5   9
ATOM      9  O   UNL     1      -1.176  20.838  16.362  0.00  0.00    -0.444 OA
BRANCH   9  10
ATOM     10  C   UNL     1      -2.354  21.163  17.103  0.00  0.00    +0.292 C 
BRANCH  10  12
ATOM     11  N   UNL     1      -2.996  21.402  19.478  0.00  0.00    -0.131 NA
ATOM     12  C   UNL     1      -2.136  20.907  18.539  0.00  0.00    +0.120 A 
ATOM     13  C   UNL     1      -1.151  20.178  19.169  0.00  0.00    +0.137 A 
ATOM     14  N   UNL     1      -1.518  20.186  20.483  0.00  0.00    -0.248 N 
ATOM     15  N   UNL     1      -2.589  20.988  20.668  0.00  0.00    -0.065 NA
BRANCH  14  16
ATOM     16  C   UNL     1      -0.985  19.451  21.624  0.00  0.00    +0.109 C 
ATOM     17  C   UNL     1      -2.111  18.733  22.394  0.00  0.00    +0.027 C 
ATOM     18  C   UNL     1      -2.647  17.536  21.612  0.00  0.00    +0.002 C 
ATOM     19  C   UNL     1      -1.540  16.525  21.340  0.00  0.00    +0.000 C 
ATOM     20  C   UNL     1      -0.334  17.151  20.645  0.00  0.00    +0.002 C 
ATOM     21  C   UNL     1       0.142  18.449  21.309  0.00  0.00    +0.027 C 
ENDBRANCH  14  16
ENDBRANCH  10  12
ENDBRANCH   9  10
ENDBRANCH   5   9
ENDBRANCH   4   7
ENDBRANCH   1   4
BRANCH   1  22
ATOM     22  C   UNL     1      -1.907  17.205  12.643  0.00  0.00    +0.175 C 
BRANCH  22  23
ATOM     23  C   UNL     1      -0.918  16.130  12.170  0.00  0.00    +0.176 C 
ATOM     24  O   UNL     1      -0.404  16.535  10.871  0.00  0.00    -0.332 OA
ATOM     25  C   UNL     1       0.641  15.675  10.307  0.00  0.00    +0.277 C 
ATOM     26  C   UNL     1       0.156  14.206  10.243  0.00  0.00    +0.110 C 
ATOM     27  C   UNL     1      -0.429  13.740  11.593  0.00  0.00    +0.143 C 
ATOM     28  C   UNL     1      -1.503  14.707  12.089  0.00  0.00    +0.133 C 
BRANCH  28  29
ATOM     29  N   UNL     1      -1.991  14.300  13.416  0.00  0.00    -0.308 N 
ATOM     30  H   UNL     1      -1.354  14.377  14.196  0.00  0.00    +0.149 HD
ATOM     31  C   UNL     1      -3.220  13.835  13.656  0.00  0.00    +0.210 C 
ATOM     32  C   UNL     1      -4.158  13.706  12.442  0.00  0.00    +0.109 C 
ATOM     33  O   UNL     1      -3.606  13.515  14.781  0.00  0.00    -0.276 OA
ENDBRANCH  28  29
BRANCH  25  34
ATOM     34  C   UNL     1       1.931  15.756  11.149  0.00  0.00    +0.414 C 
ATOM     35  O   UNL     1       1.965  16.450  12.165  0.00  0.00    -0.240 OA
ATOM     36  O   UNL     1       2.936  15.129  10.814  0.00  0.00    -0.240 OA
ENDBRANCH  25  34
BRANCH  27  37
ATOM     37  O   UNL     1      -0.998  12.438  11.447  0.00  0.00    -0.390 OA
ATOM     38  H   UNL     1      -1.093  12.031  12.311  0.00  0.00    +0.210 HD
ENDBRANCH  27  37
BRANCH  25  39
ATOM     39  O   UNL     1       0.911  16.127   8.955  0.00  0.00    -0.343 OA
ATOM     40  C   UNL     1       1.230  17.536   8.832  0.00  0.00    +0.198 C 
ENDBRANCH  25  39
ENDBRANCH  22  23
BRANCH  22  41
ATOM     41  O   UNL     1      -3.216  16.952  12.095  0.00  0.00    -0.387 OA
ATOM     42  H   UNL     1      -3.232  17.214  11.171  0.00  0.00    +0.210 HD
ENDBRANCH  22  41
ENDBRANCH   1  22
TORSDOF 14
