REMARK VINA RESULT:    -6.726     13.557     18.175
REMARK INTER + INTRA:         -13.722
REMARK INTER:                 -11.872
REMARK INTRA:                  -1.850
REMARK UNBOUND:                -1.294
REMARK  Name = lig_assembled_24.pdb
REMARK  19 active torsions:
REMARK  status: ('A' for Active; 'I' for Inactive)
REMARK    1  A    between atoms: _2  and  _9
REMARK    2  A    between atoms: _4  and  _21
REMARK    3  A    between atoms: _6  and  _7
REMARK    4  A    between atoms: _6  and  _21
REMARK    5  A    between atoms: _9  and  _10
REMARK    6  A    between atoms: _13  and  _16
REMARK    7  A    between atoms: _14  and  _16
REMARK    8  A    between atoms: _17  and  _37
REMARK    9  A    between atoms: _19  and  _25
REMARK   10  A    between atoms: _20  and  _24
REMARK   11  A    between atoms: _24  and  _25
REMARK   12  A    between atoms: _27  and  _28
REMARK   13  A    between atoms: _29  and  _30
REMARK   14  A    between atoms: _31  and  _33
REMARK   15  A    between atoms: _33  and  _34
REMARK   16  A    between atoms: _33  and  _35
REMARK   17  A    between atoms: _35  and  _36
REMARK   18  A    between atoms: _35  and  _37
REMARK   19  A    between atoms: _38  and  _40
REMARK                            x       y       z     vdW  Elec       q    Type
REMARK                         _______ _______ _______ _____ _____    ______ ____
ROOT
ATOM      1  C   UNL     1      18.190   5.515  23.644  0.00  0.00    +0.163 C 
ENDROOT
BRANCH   1   2
ATOM      2  O   UNL     1      17.208   5.546  22.595  0.00  0.00    -0.388 OA
ATOM      3  H   UNL     1      16.874   6.441  22.494  0.00  0.00    +0.210 HD
ENDBRANCH   1   2
BRANCH   1   4
ATOM      4  C   UNL     1      18.957   4.182  23.639  0.00  0.00    +0.175 C 
BRANCH   4   5
ATOM      5  C   UNL     1      18.209   3.082  24.408  0.00  0.00    +0.176 C 
ATOM      6  O   UNL     1      19.010   2.723  25.567  0.00  0.00    -0.332 OA
ATOM      7  C   UNL     1      18.400   1.755  26.484  0.00  0.00    +0.277 C 
ATOM      8  C   UNL     1      17.983   0.475  25.719  0.00  0.00    +0.110 C 
ATOM      9  C   UNL     1      17.156   0.808  24.459  0.00  0.00    +0.143 C 
ATOM     10  C   UNL     1      17.882   1.826  23.579  0.00  0.00    +0.133 C 
BRANCH  10  11
ATOM     11  N   UNL     1      17.046   2.200  22.428  0.00  0.00    -0.308 N 
ATOM     12  H   UNL     1      16.221   2.755  22.605  0.00  0.00    +0.149 HD
ATOM     13  C   UNL     1      17.307   1.854  21.164  0.00  0.00    +0.210 C 
ATOM     14  C   UNL     1      18.558   0.986  20.931  0.00  0.00    +0.109 C 
ATOM     15  O   UNL     1      16.597   2.195  20.218  0.00  0.00    -0.276 OA
ENDBRANCH  10  11
BRANCH   7  16
ATOM     16  C   UNL     1      17.166   2.364  27.181  0.00  0.00    +0.414 C 
ATOM     17  O   UNL     1      17.306   3.228  28.046  0.00  0.00    -0.240 OA
ATOM     18  O   UNL     1      16.032   1.992  26.879  0.00  0.00    -0.240 OA
ENDBRANCH   7  16
BRANCH   7  19
ATOM     19  O   UNL     1      19.393   1.391  27.477  0.00  0.00    -0.343 OA
ATOM     20  C   UNL     1      19.752  -0.014  27.499  0.00  0.00    +0.198 C 
ENDBRANCH   7  19
BRANCH   9  21
ATOM     21  O   UNL     1      16.923  -0.384  23.707  0.00  0.00    -0.390 OA
ATOM     22  H   UNL     1      17.407  -1.113  24.103  0.00  0.00    +0.210 HD
ENDBRANCH   9  21
ENDBRANCH   4   5
BRANCH   4  23
ATOM     23  O   UNL     1      20.275   4.365  24.192  0.00  0.00    -0.387 OA
ATOM     24  H   UNL     1      20.888   4.598  23.491  0.00  0.00    +0.210 HD
ENDBRANCH   4  23
ENDBRANCH   1   4
BRANCH   1  25
ATOM     25  C   UNL     1      19.173   6.669  23.472  0.00  0.00    +0.141 C 
BRANCH  25  28
ATOM     26  C   UNL     1      20.492   7.484  25.396  0.00  0.00    +0.401 C 
ATOM     27  O   UNL     1      21.521   6.894  25.061  0.00  0.00    -0.226 OA
ATOM     28  N   UNL     1      19.346   7.429  24.716  0.00  0.00    -0.279 N 
ATOM     29  H   UNL     1      18.553   7.940  25.077  0.00  0.00    +0.152 HD
BRANCH  26  30
ATOM     30  O   UNL     1      20.502   8.277  26.586  0.00  0.00    -0.444 OA
BRANCH  30  31
ATOM     31  C   UNL     1      19.847   9.523  26.335  0.00  0.00    +0.292 C 
BRANCH  31  33
ATOM     32  N   UNL     1      17.966  10.476  27.632  0.00  0.00    -0.131 NA
ATOM     33  C   UNL     1      19.269  10.059  27.582  0.00  0.00    +0.120 A 
ATOM     34  C   UNL     1      19.840  10.216  28.825  0.00  0.00    +0.137 A 
ATOM     35  N   UNL     1      18.818  10.667  29.607  0.00  0.00    -0.247 N 
ATOM     36  N   UNL     1      17.702  10.856  28.873  0.00  0.00    -0.065 NA
BRANCH  35  37
ATOM     37  C   UNL     1      18.751  10.900  31.041  0.00  0.00    +0.180 C 
BRANCH  37  38
ATOM     38  C   UNL     1      17.735  10.056  31.773  0.00  0.00    -0.026 A 
ATOM     39  C   UNL     1      17.742   8.661  31.641  0.00  0.00    +0.009 A 
ATOM     40  C   UNL     1      16.799   7.887  32.323  0.00  0.00    +0.046 A 
ATOM     41  C   UNL     1      15.852   8.487  33.155  0.00  0.00    +0.120 A 
ATOM     42  C   UNL     1      15.826   9.874  33.272  0.00  0.00    +0.046 A 
ATOM     43  C   UNL     1      16.762  10.656  32.586  0.00  0.00    +0.009 A 
BRANCH  41  44
ATOM     44  O   UNL     1      14.971   7.630  33.753  0.00  0.00    -0.495 OA
ATOM     45  C   UNL     1      15.542   6.440  34.288  0.00  0.00    +0.277 C 
ENDBRANCH  41  44
ENDBRANCH  37  38
ENDBRANCH  35  37
ENDBRANCH  31  33
ENDBRANCH  30  31
ENDBRANCH  26  30
ENDBRANCH  25  28
ENDBRANCH   1  25
TORSDOF 16
