REMARK VINA RESULT:    -6.738      1.597      2.077
REMARK INTER + INTRA:         -13.693
REMARK INTER:                 -12.058
REMARK INTRA:                  -1.636
REMARK UNBOUND:                -2.031
REMARK  Name = lig_assembled_42.pdb
REMARK  16 active torsions:
REMARK  status: ('A' for Active; 'I' for Inactive)
REMARK    1  A    between atoms: _2  and  _9
REMARK    2  A    between atoms: _4  and  _21
REMARK    3  A    between atoms: _6  and  _7
REMARK    4  A    between atoms: _6  and  _21
REMARK    5  A    between atoms: _17  and  _37
REMARK    6  A    between atoms: _19  and  _25
REMARK    7  A    between atoms: _20  and  _24
REMARK    8  A    between atoms: _24  and  _25
REMARK    9  A    between atoms: _27  and  _28
REMARK   10  A    between atoms: _29  and  _30
REMARK   11  A    between atoms: _31  and  _33
REMARK   12  A    between atoms: _33  and  _34
REMARK   13  A    between atoms: _33  and  _35
REMARK   14  A    between atoms: _35  and  _36
REMARK   15  A    between atoms: _35  and  _37
REMARK   16  A    between atoms: _38  and  _40
REMARK                            x       y       z     vdW  Elec       q    Type
REMARK                         _______ _______ _______ _____ _____    ______ ____
ROOT
ATOM      1  C   UNL     1       6.517   2.428  32.493  0.00  0.00    +0.163 C 
ENDROOT
BRANCH   1   2
ATOM      2  O   UNL     1       7.028   3.543  31.744  0.00  0.00    -0.388 OA
ATOM      3  H   UNL     1       6.726   3.483  30.834  0.00  0.00    +0.210 HD
ENDBRANCH   1   2
BRANCH   1   4
ATOM      4  C   UNL     1       5.042   2.648  32.814  0.00  0.00    +0.141 C 
BRANCH   4   7
ATOM      5  C   UNL     1       3.246   2.632  31.118  0.00  0.00    +0.401 C 
ATOM      6  O   UNL     1       2.769   1.560  31.496  0.00  0.00    -0.226 OA
ATOM      7  N   UNL     1       4.311   3.211  31.672  0.00  0.00    -0.279 N 
ATOM      8  H   UNL     1       4.634   4.087  31.285  0.00  0.00    +0.152 HD
BRANCH   5   9
ATOM      9  O   UNL     1       2.638   3.312  30.016  0.00  0.00    -0.444 OA
BRANCH   9  10
ATOM     10  C   UNL     1       1.903   2.376  29.224  0.00  0.00    +0.292 C 
BRANCH  10  12
ATOM     11  N   UNL     1       0.501   3.864  27.819  0.00  0.00    -0.131 NA
ATOM     12  C   UNL     1       1.529   2.975  27.928  0.00  0.00    +0.121 A 
ATOM     13  C   UNL     1       2.084   2.777  26.687  0.00  0.00    +0.143 A 
ATOM     14  N   UNL     1       1.357   3.576  25.837  0.00  0.00    -0.220 N 
ATOM     15  N   UNL     1       0.401   4.227  26.545  0.00  0.00    -0.060 NA
BRANCH  14  16
ATOM     16  C   UNL     1       1.516   3.743  24.438  0.00  0.00    +0.071 A 
ATOM     17  C   UNL     1       1.614   2.620  23.603  0.00  0.00    +0.077 A 
ATOM     18  C   UNL     1       1.767   2.835  22.250  0.00  0.00    +0.168 A 
ATOM     19  O   UNL     1       1.872   1.860  21.310  0.00  0.00    -0.453 OA
ATOM     20  C   UNL     1       1.999   2.653  20.113  0.00  0.00    +0.466 C 
ATOM     21  O   UNL     1       1.976   4.076  20.363  0.00  0.00    -0.453 OA
ATOM     22  C   UNL     1       1.824   4.098  21.714  0.00  0.00    +0.166 A 
ATOM     23  C   UNL     1       1.734   5.224  22.503  0.00  0.00    +0.051 A 
ATOM     24  C   UNL     1       1.578   5.045  23.884  0.00  0.00    +0.031 A 
ENDBRANCH  14  16
ENDBRANCH  10  12
ENDBRANCH   9  10
ENDBRANCH   5   9
ENDBRANCH   4   7
ENDBRANCH   1   4
BRANCH   1  25
ATOM     25  C   UNL     1       7.304   2.237  33.801  0.00  0.00    +0.175 C 
BRANCH  25  26
ATOM     26  C   UNL     1       6.902   3.260  34.873  0.00  0.00    +0.176 C 
ATOM     27  O   UNL     1       7.394   4.563  34.455  0.00  0.00    -0.332 OA
ATOM     28  C   UNL     1       7.010   5.690  35.310  0.00  0.00    +0.277 C 
ATOM     29  C   UNL     1       7.424   5.420  36.778  0.00  0.00    +0.110 C 
ATOM     30  C   UNL     1       6.951   4.032  37.257  0.00  0.00    +0.143 C 
ATOM     31  C   UNL     1       7.402   2.935  36.293  0.00  0.00    +0.133 C 
BRANCH  31  32
ATOM     32  N   UNL     1       6.872   1.629  36.714  0.00  0.00    -0.308 N 
ATOM     33  H   UNL     1       5.869   1.524  36.775  0.00  0.00    +0.149 HD
ATOM     34  C   UNL     1       7.629   0.572  37.020  0.00  0.00    +0.210 C 
ATOM     35  C   UNL     1       9.154   0.771  36.942  0.00  0.00    +0.109 C 
ATOM     36  O   UNL     1       7.157  -0.515  37.356  0.00  0.00    -0.276 OA
ENDBRANCH  31  32
BRANCH  28  37
ATOM     37  C   UNL     1       5.488   5.936  35.241  0.00  0.00    +0.414 C 
ATOM     38  O   UNL     1       4.858   6.214  36.260  0.00  0.00    -0.240 OA
ATOM     39  O   UNL     1       4.892   5.856  34.166  0.00  0.00    -0.240 OA
ENDBRANCH  28  37
BRANCH  30  40
ATOM     40  O   UNL     1       7.481   3.765  38.556  0.00  0.00    -0.390 OA
ATOM     41  H   UNL     1       8.046   2.989  38.518  0.00  0.00    +0.210 HD
ENDBRANCH  30  40
BRANCH  28  42
ATOM     42  O   UNL     1       7.717   6.868  34.844  0.00  0.00    -0.343 OA
ATOM     43  C   UNL     1       8.108   7.799  35.885  0.00  0.00    +0.198 C 
ENDBRANCH  28  42
ENDBRANCH  25  26
BRANCH  25  44
ATOM     44  O   UNL     1       8.721   2.317  33.543  0.00  0.00    -0.387 OA
ATOM     45  H   UNL     1       9.157   2.746  34.283  0.00  0.00    +0.210 HD
ENDBRANCH  25  44
ENDBRANCH   1  25
TORSDOF 14
