REMARK VINA RESULT:    -5.617      7.467     13.041
REMARK INTER + INTRA:         -14.128
REMARK INTER:                 -11.596
REMARK INTRA:                  -2.532
REMARK UNBOUND:                -3.914
REMARK  Name = lig_assembled_73.pdb
REMARK  18 active torsions:
REMARK  status: ('A' for Active; 'I' for Inactive)
REMARK    1  A    between atoms: _2  and  _10
REMARK    2  A    between atoms: _3  and  _14
REMARK    3  A    between atoms: _5  and  _22
REMARK    4  A    between atoms: _7  and  _8
REMARK    5  A    between atoms: _7  and  _22
REMARK    6  A    between atoms: _13  and  _16
REMARK    7  A    between atoms: _18  and  _38
REMARK    8  A    between atoms: _20  and  _26
REMARK    9  A    between atoms: _21  and  _25
REMARK   10  A    between atoms: _25  and  _26
REMARK   11  A    between atoms: _28  and  _29
REMARK   12  A    between atoms: _30  and  _31
REMARK   13  A    between atoms: _32  and  _34
REMARK   14  A    between atoms: _34  and  _35
REMARK   15  A    between atoms: _34  and  _36
REMARK   16  A    between atoms: _36  and  _37
REMARK   17  A    between atoms: _36  and  _38
REMARK   18  A    between atoms: _39  and  _41
REMARK                            x       y       z     vdW  Elec       q    Type
REMARK                         _______ _______ _______ _____ _____    ______ ____
ROOT
ATOM      1  C   UNL     1       9.898   3.028  34.957  0.00  0.00    +0.163 C 
ENDROOT
BRANCH   1   2
ATOM      2  O   UNL     1       9.709   2.112  33.865  0.00  0.00    -0.388 OA
ATOM      3  H   UNL     1      10.489   1.560  33.772  0.00  0.00    +0.210 HD
ENDBRANCH   1   2
BRANCH   1   4
ATOM      4  C   UNL     1       8.610   3.167  35.787  0.00  0.00    +0.175 C 
BRANCH   4   5
ATOM      5  C   UNL     1       7.787   4.397  35.376  0.00  0.00    +0.176 C 
ATOM      6  O   UNL     1       7.499   5.164  36.577  0.00  0.00    -0.332 OA
ATOM      7  C   UNL     1       6.806   6.438  36.364  0.00  0.00    +0.277 C 
ATOM      8  C   UNL     1       5.502   6.217  35.559  0.00  0.00    +0.110 C 
ATOM      9  C   UNL     1       5.753   5.378  34.288  0.00  0.00    +0.143 C 
ATOM     10  C   UNL     1       6.481   4.077  34.625  0.00  0.00    +0.133 C 
BRANCH  10  11
ATOM     11  N   UNL     1       6.791   3.327  33.397  0.00  0.00    -0.308 N 
ATOM     12  H   UNL     1       7.411   3.758  32.725  0.00  0.00    +0.149 HD
ATOM     13  C   UNL     1       6.308   2.115  33.113  0.00  0.00    +0.210 C 
ATOM     14  C   UNL     1       5.346   1.497  34.145  0.00  0.00    +0.109 C 
ATOM     15  O   UNL     1       6.596   1.505  32.083  0.00  0.00    -0.276 OA
ENDBRANCH  10  11
BRANCH   7  16
ATOM     16  C   UNL     1       7.713   7.435  35.613  0.00  0.00    +0.414 C 
ATOM     17  O   UNL     1       8.902   7.538  35.910  0.00  0.00    -0.240 OA
ATOM     18  O   UNL     1       7.255   8.137  34.709  0.00  0.00    -0.240 OA
ENDBRANCH   7  16
BRANCH   9  19
ATOM     19  O   UNL     1       4.507   5.071  33.661  0.00  0.00    -0.390 OA
ATOM     20  H   UNL     1       4.392   5.628  32.887  0.00  0.00    +0.210 HD
ENDBRANCH   9  19
BRANCH   7  21
ATOM     21  O   UNL     1       6.455   6.981  37.663  0.00  0.00    -0.343 OA
ATOM     22  C   UNL     1       6.945   6.221  38.797  0.00  0.00    +0.198 C 
ENDBRANCH   7  21
ENDBRANCH   4   5
BRANCH   4  23
ATOM     23  O   UNL     1       8.929   3.230  37.191  0.00  0.00    -0.387 OA
ATOM     24  H   UNL     1       8.387   2.600  37.672  0.00  0.00    +0.210 HD
ENDBRANCH   4  23
ENDBRANCH   1   4
BRANCH   1  25
ATOM     25  C   UNL     1      11.033   2.544  35.853  0.00  0.00    +0.141 C 
BRANCH  25  28
ATOM     26  C   UNL     1      12.231   4.201  37.240  0.00  0.00    +0.401 C 
ATOM     27  O   UNL     1      11.574   3.966  38.256  0.00  0.00    -0.226 OA
ATOM     28  N   UNL     1      12.042   3.588  36.071  0.00  0.00    -0.279 N 
ATOM     29  H   UNL     1      12.625   3.856  35.291  0.00  0.00    +0.152 HD
BRANCH  26  30
ATOM     30  O   UNL     1      13.262   5.191  37.293  0.00  0.00    -0.444 OA
BRANCH  30  31
ATOM     31  C   UNL     1      14.493   4.624  36.837  0.00  0.00    +0.292 C 
BRANCH  31  33
ATOM     32  N   UNL     1      14.541   4.807  34.369  0.00  0.00    -0.131 NA
ATOM     33  C   UNL     1      14.929   5.279  35.589  0.00  0.00    +0.121 A 
ATOM     34  C   UNL     1      15.729   6.383  35.409  0.00  0.00    +0.143 A 
ATOM     35  N   UNL     1      15.796   6.555  34.046  0.00  0.00    -0.220 N 
ATOM     36  N   UNL     1      15.071   5.587  33.437  0.00  0.00    -0.060 NA
BRANCH  35  37
ATOM     37  C   UNL     1      16.490   7.548  33.308  0.00  0.00    +0.074 A 
ATOM     38  C   UNL     1      17.589   7.183  32.510  0.00  0.00    +0.032 A 
ATOM     39  C   UNL     1      18.296   8.149  31.779  0.00  0.00    +0.054 A 
ATOM     40  C   UNL     1      17.913   9.487  31.840  0.00  0.00    +0.195 A 
ATOM     41  C   UNL     1      16.822   9.842  32.631  0.00  0.00    +0.316 A 
ATOM     42  C   UNL     1      16.097   8.891  33.363  0.00  0.00    +0.116 A 
BRANCH  41  43
ATOM     43  N   UNL     1      16.405  11.227  32.723  0.00  0.00    +0.083 N 
ATOM     44  O   UNL     1      15.375  11.556  32.119  0.00  0.00    +0.042 OA
ATOM     45  O   UNL     1      17.166  11.998  33.325  0.00  0.00    -0.576 OA
ENDBRANCH  41  43
BRANCH  40  46
ATOM     46  O   UNL     1      18.587  10.421  31.112  0.00  0.00    -0.501 OA
ATOM     47  H   UNL     1      19.503  10.494  31.430  0.00  0.00    +0.292 HD
ENDBRANCH  40  46
ENDBRANCH  35  37
ENDBRANCH  31  33
ENDBRANCH  30  31
ENDBRANCH  26  30
ENDBRANCH  25  28
ENDBRANCH   1  25
TORSDOF 16
