REMARK VINA RESULT:    -6.779     18.732     23.175
REMARK INTER + INTRA:         -14.168
REMARK INTER:                 -12.196
REMARK INTRA:                  -1.972
REMARK UNBOUND:                -1.444
REMARK  Name = lig_assembled_16.pdb
REMARK  19 active torsions:
REMARK  status: ('A' for Active; 'I' for Inactive)
REMARK    1  A    between atoms: _2  and  _9
REMARK    2  A    between atoms: _4  and  _22
REMARK    3  A    between atoms: _6  and  _7
REMARK    4  A    between atoms: _6  and  _22
REMARK    5  A    between atoms: _9  and  _10
REMARK    6  A    between atoms: _13  and  _14
REMARK    7  A    between atoms: _14  and  _16
REMARK    8  A    between atoms: _18  and  _38
REMARK    9  A    between atoms: _20  and  _26
REMARK   10  A    between atoms: _21  and  _25
REMARK   11  A    between atoms: _25  and  _26
REMARK   12  A    between atoms: _28  and  _29
REMARK   13  A    between atoms: _30  and  _31
REMARK   14  A    between atoms: _32  and  _34
REMARK   15  A    between atoms: _34  and  _35
REMARK   16  A    between atoms: _34  and  _36
REMARK   17  A    between atoms: _36  and  _37
REMARK   18  A    between atoms: _36  and  _38
REMARK   19  A    between atoms: _39  and  _41
REMARK                            x       y       z     vdW  Elec       q    Type
REMARK                         _______ _______ _______ _____ _____    ______ ____
ROOT
ATOM      1  C   UNL     1      -3.514   7.952  13.389  0.00  0.00    +0.163 C 
ENDROOT
BRANCH   1   2
ATOM      2  O   UNL     1      -4.780   7.911  14.067  0.00  0.00    -0.388 OA
ATOM      3  H   UNL     1      -5.459   7.605  13.462  0.00  0.00    +0.210 HD
ENDBRANCH   1   2
BRANCH   1   4
ATOM      4  C   UNL     1      -2.684   9.164  13.845  0.00  0.00    +0.175 C 
BRANCH   4   5
ATOM      5  C   UNL     1      -3.038  10.436  13.060  0.00  0.00    +0.176 C 
ATOM      6  O   UNL     1      -1.812  10.959  12.480  0.00  0.00    -0.332 OA
ATOM      7  C   UNL     1      -1.972  12.122  11.601  0.00  0.00    +0.277 C 
ATOM      8  C   UNL     1      -2.729  13.255  12.337  0.00  0.00    +0.110 C 
ATOM      9  C   UNL     1      -4.025  12.739  12.997  0.00  0.00    +0.143 C 
ATOM     10  C   UNL     1      -3.743  11.528  13.886  0.00  0.00    +0.133 C 
BRANCH  10  11
ATOM     11  N   UNL     1      -4.996  10.992  14.440  0.00  0.00    -0.308 N 
ATOM     12  H   UNL     1      -5.644  10.552  13.802  0.00  0.00    +0.149 HD
ATOM     13  C   UNL     1      -5.334  11.050  15.731  0.00  0.00    +0.210 C 
ATOM     14  C   UNL     1      -4.337  11.750  16.674  0.00  0.00    +0.109 C 
ATOM     15  O   UNL     1      -6.384  10.580  16.170  0.00  0.00    -0.276 OA
ENDBRANCH  10  11
BRANCH   7  16
ATOM     16  C   UNL     1      -2.739  11.737  10.319  0.00  0.00    +0.414 C 
ATOM     17  O   UNL     1      -2.670  10.592   9.875  0.00  0.00    -0.240 OA
ATOM     18  O   UNL     1      -3.427  12.572   9.729  0.00  0.00    -0.240 OA
ENDBRANCH   7  16
BRANCH   7  19
ATOM     19  O   UNL     1      -0.650  12.607  11.252  0.00  0.00    -0.343 OA
ATOM     20  C   UNL     1      -0.389  13.987  11.613  0.00  0.00    +0.198 C 
ENDBRANCH   7  19
BRANCH   9  21
ATOM     21  O   UNL     1      -4.609  13.776  13.787  0.00  0.00    -0.390 OA
ATOM     22  H   UNL     1      -5.566  13.704  13.754  0.00  0.00    +0.210 HD
ENDBRANCH   9  21
ENDBRANCH   4   5
BRANCH   4  23
ATOM     23  O   UNL     1      -1.277   8.878  13.718  0.00  0.00    -0.387 OA
ATOM     24  H   UNL     1      -1.130   8.330  12.943  0.00  0.00    +0.210 HD
ENDBRANCH   4  23
ENDBRANCH   1   4
BRANCH   1  25
ATOM     25  C   UNL     1      -2.735   6.669  13.660  0.00  0.00    +0.141 C 
BRANCH  25  28
ATOM     26  C   UNL     1      -3.084   6.004  16.014  0.00  0.00    +0.401 C 
ATOM     27  O   UNL     1      -4.204   5.528  15.812  0.00  0.00    -0.226 OA
ATOM     28  N   UNL     1      -2.330   6.563  15.067  0.00  0.00    -0.279 N 
ATOM     29  H   UNL     1      -1.429   6.934  15.333  0.00  0.00    +0.152 HD
BRANCH  26  30
ATOM     30  O   UNL     1      -2.544   5.968  17.337  0.00  0.00    -0.444 OA
BRANCH  30  31
ATOM     31  C   UNL     1      -2.795   4.688  17.922  0.00  0.00    +0.292 C 
BRANCH  31  33
ATOM     32  N   UNL     1      -1.245   2.785  18.258  0.00  0.00    -0.131 NA
ATOM     33  C   UNL     1      -1.544   4.110  18.444  0.00  0.00    +0.120 A 
ATOM     34  C   UNL     1      -0.511   4.713  19.126  0.00  0.00    +0.137 A 
ATOM     35  N   UNL     1       0.422   3.726  19.239  0.00  0.00    -0.247 N 
ATOM     36  N   UNL     1      -0.041   2.555  18.765  0.00  0.00    -0.065 NA
BRANCH  35  37
ATOM     37  C   UNL     1       1.770   3.830  19.760  0.00  0.00    +0.180 C 
BRANCH  37  38
ATOM     38  C   UNL     1       1.776   3.845  21.272  0.00  0.00    -0.026 A 
ATOM     39  C   UNL     1       1.799   5.057  21.976  0.00  0.00    +0.006 A 
ATOM     40  C   UNL     1       1.766   5.065  23.373  0.00  0.00    +0.015 A 
ATOM     41  C   UNL     1       1.724   3.865  24.086  0.00  0.00    +0.059 A 
ATOM     42  C   UNL     1       1.723   2.645  23.393  0.00  0.00    +0.015 A 
ATOM     43  C   UNL     1       1.762   2.640  21.995  0.00  0.00    +0.006 A 
BRANCH  41  44
ATOM     44  C   UNL     1       1.616   3.933  25.568  0.00  0.00    +0.337 C 
ATOM     45  O   UNL     1       2.593   3.906  26.298  0.00  0.00    -0.245 OA
BRANCH  44  46
ATOM     46  O   UNL     1       0.352   3.991  26.027  0.00  0.00    -0.477 OA
ATOM     47  H   UNL     1      -0.052   4.877  26.022  0.00  0.00    +0.295 HD
ENDBRANCH  44  46
ENDBRANCH  41  44
ENDBRANCH  37  38
ENDBRANCH  35  37
ENDBRANCH  31  33
ENDBRANCH  30  31
ENDBRANCH  26  30
ENDBRANCH  25  28
ENDBRANCH   1  25
TORSDOF 17
