REMARK VINA RESULT:    -6.512     12.988     15.317
REMARK INTER + INTRA:         -13.425
REMARK INTER:                 -11.282
REMARK INTRA:                  -2.144
REMARK UNBOUND:                -1.775
REMARK  Name = lig_assembled_69.pdb
REMARK  18 active torsions:
REMARK  status: ('A' for Active; 'I' for Inactive)
REMARK    1  A    between atoms: _2  and  _9
REMARK    2  A    between atoms: _4  and  _21
REMARK    3  A    between atoms: _6  and  _7
REMARK    4  A    between atoms: _6  and  _21
REMARK    5  A    between atoms: _11  and  _16
REMARK    6  A    between atoms: _14  and  _15
REMARK    7  A    between atoms: _17  and  _37
REMARK    8  A    between atoms: _19  and  _25
REMARK    9  A    between atoms: _20  and  _24
REMARK   10  A    between atoms: _24  and  _25
REMARK   11  A    between atoms: _27  and  _28
REMARK   12  A    between atoms: _29  and  _30
REMARK   13  A    between atoms: _31  and  _33
REMARK   14  A    between atoms: _33  and  _34
REMARK   15  A    between atoms: _33  and  _35
REMARK   16  A    between atoms: _35  and  _36
REMARK   17  A    between atoms: _35  and  _37
REMARK   18  A    between atoms: _38  and  _40
REMARK                            x       y       z     vdW  Elec       q    Type
REMARK                         _______ _______ _______ _____ _____    ______ ____
ROOT
ATOM      1  C   UNL     1      18.992   7.225  30.527  0.00  0.00    +0.163 C 
ENDROOT
BRANCH   1   2
ATOM      2  O   UNL     1      18.406   5.917  30.637  0.00  0.00    -0.388 OA
ATOM      3  H   UNL     1      17.754   5.916  31.341  0.00  0.00    +0.210 HD
ENDBRANCH   1   2
BRANCH   1   4
ATOM      4  C   UNL     1      19.470   7.731  31.899  0.00  0.00    +0.175 C 
BRANCH   4   5
ATOM      5  C   UNL     1      18.396   8.567  32.612  0.00  0.00    +0.176 C 
ATOM      6  O   UNL     1      17.332   7.667  33.027  0.00  0.00    -0.332 OA
ATOM      7  C   UNL     1      16.262   8.276  33.823  0.00  0.00    +0.277 C 
ATOM      8  C   UNL     1      15.658   9.492  33.078  0.00  0.00    +0.110 C 
ATOM      9  C   UNL     1      16.755  10.461  32.588  0.00  0.00    +0.143 C 
ATOM     10  C   UNL     1      17.817   9.722  31.774  0.00  0.00    +0.133 C 
BRANCH  10  11
ATOM     11  N   UNL     1      18.901  10.640  31.388  0.00  0.00    -0.308 N 
ATOM     12  H   UNL     1      19.520  10.971  32.114  0.00  0.00    +0.149 HD
ATOM     13  C   UNL     1      19.119  11.063  30.140  0.00  0.00    +0.210 C 
ATOM     14  C   UNL     1      18.142  10.561  29.060  0.00  0.00    +0.109 C 
ATOM     15  O   UNL     1      20.044  11.820  29.843  0.00  0.00    -0.276 OA
ENDBRANCH  10  11
BRANCH   7  16
ATOM     16  C   UNL     1      16.792   8.727  35.200  0.00  0.00    +0.414 C 
ATOM     17  O   UNL     1      16.381   9.766  35.713  0.00  0.00    -0.240 OA
ATOM     18  O   UNL     1      17.632   8.052  35.797  0.00  0.00    -0.240 OA
ENDBRANCH   7  16
BRANCH   7  19
ATOM     19  O   UNL     1      15.217   7.285  34.003  0.00  0.00    -0.343 OA
ATOM     20  C   UNL     1      15.601   5.925  33.678  0.00  0.00    +0.198 C 
ENDBRANCH   7  19
BRANCH   9  21
ATOM     21  O   UNL     1      16.169  11.482  31.780  0.00  0.00    -0.390 OA
ATOM     22  H   UNL     1      15.441  11.889  32.255  0.00  0.00    +0.210 HD
ENDBRANCH   9  21
ENDBRANCH   4   5
BRANCH   4  23
ATOM     23  O   UNL     1      20.680   8.499  31.751  0.00  0.00    -0.387 OA
ATOM     24  H   UNL     1      21.245   8.357  32.514  0.00  0.00    +0.210 HD
ENDBRANCH   4  23
ENDBRANCH   1   4
BRANCH   1  25
ATOM     25  C   UNL     1      20.170   7.189  29.559  0.00  0.00    +0.141 C 
BRANCH  25  28
ATOM     26  C   UNL     1      19.080   6.913  27.358  0.00  0.00    +0.401 C 
ATOM     27  O   UNL     1      18.680   5.771  27.594  0.00  0.00    -0.226 OA
ATOM     28  N   UNL     1      19.789   7.647  28.217  0.00  0.00    -0.279 N 
ATOM     29  H   UNL     1      20.081   8.570  27.928  0.00  0.00    +0.152 HD
BRANCH  26  30
ATOM     30  O   UNL     1      18.782   7.506  26.091  0.00  0.00    -0.444 OA
BRANCH  30  31
ATOM     31  C   UNL     1      19.676   6.991  25.101  0.00  0.00    +0.292 C 
BRANCH  31  33
ATOM     32  N   UNL     1      18.021   6.463  23.343  0.00  0.00    -0.131 NA
ATOM     33  C   UNL     1      18.977   6.034  24.225  0.00  0.00    +0.120 A 
ATOM     34  C   UNL     1      19.106   4.667  24.119  0.00  0.00    +0.137 A 
ATOM     35  N   UNL     1      18.192   4.323  23.167  0.00  0.00    -0.248 N 
ATOM     36  N   UNL     1      17.544   5.406  22.704  0.00  0.00    -0.065 NA
BRANCH  35  37
ATOM     37  C   UNL     1      17.850   2.985  22.688  0.00  0.00    +0.114 C 
ATOM     38  C   UNL     1      16.644   2.410  23.440  0.00  0.00    +0.062 C 
ATOM     39  C   UNL     1      16.945   1.718  24.771  0.00  0.00    +0.139 C 
ATOM     40  C   UNL     1      17.662   0.400  24.694  0.00  0.00    +0.002 C 
ATOM     41  C   UNL     1      18.417  -0.088  23.697  0.00  0.00    +0.002 C 
ATOM     42  C   UNL     1      18.863   0.620  22.454  0.00  0.00    +0.139 C 
ATOM     43  C   UNL     1      19.112   2.113  22.631  0.00  0.00    +0.062 C 
BRANCH  39  44
ATOM     44  O   UNL     1      15.683   1.432  25.389  0.00  0.00    -0.388 OA
ATOM     45  H   UNL     1      15.225   2.279  25.520  0.00  0.00    +0.210 HD
ENDBRANCH  39  44
BRANCH  42  46
ATOM     46  O   UNL     1      17.919   0.393  21.419  0.00  0.00    -0.388 OA
ATOM     47  H   UNL     1      17.986   1.139  20.798  0.00  0.00    +0.210 HD
ENDBRANCH  42  46
ENDBRANCH  35  37
ENDBRANCH  31  33
ENDBRANCH  30  31
ENDBRANCH  26  30
ENDBRANCH  25  28
ENDBRANCH   1  25
TORSDOF 16
