REMARK VINA RESULT:    -6.221     20.999     24.244
REMARK INTER + INTRA:         -12.681
REMARK INTER:                 -10.785
REMARK INTRA:                  -1.897
REMARK UNBOUND:                -1.914
REMARK  Name = lig_assembled_56.pdb
REMARK  16 active torsions:
REMARK  status: ('A' for Active; 'I' for Inactive)
REMARK    1  A    between atoms: _2  and  _10
REMARK    2  A    between atoms: _5  and  _18
REMARK    3  A    between atoms: _7  and  _8
REMARK    4  A    between atoms: _7  and  _18
REMARK    5  A    between atoms: _14  and  _34
REMARK    6  A    between atoms: _16  and  _22
REMARK    7  A    between atoms: _17  and  _21
REMARK    8  A    between atoms: _21  and  _22
REMARK    9  A    between atoms: _24  and  _25
REMARK   10  A    between atoms: _26  and  _27
REMARK   11  A    between atoms: _28  and  _30
REMARK   12  A    between atoms: _30  and  _31
REMARK   13  A    between atoms: _30  and  _32
REMARK   14  A    between atoms: _32  and  _33
REMARK   15  A    between atoms: _32  and  _34
REMARK   16  A    between atoms: _35  and  _37
REMARK                            x       y       z     vdW  Elec       q    Type
REMARK                         _______ _______ _______ _____ _____    ______ ____
ROOT
ATOM      1  C   UNL     1      18.431   5.816  23.834  0.00  0.00    +0.163 C 
ENDROOT
BRANCH   1   2
ATOM      2  O   UNL     1      17.438   5.802  22.796  0.00  0.00    -0.388 OA
ATOM      3  H   UNL     1      16.643   5.370  23.118  0.00  0.00    +0.210 HD
ENDBRANCH   1   2
BRANCH   1   4
ATOM      4  C   UNL     1      19.434   6.936  23.582  0.00  0.00    +0.141 C 
BRANCH   4   7
ATOM      5  C   UNL     1      20.901   7.863  25.341  0.00  0.00    +0.401 C 
ATOM      6  O   UNL     1      21.925   7.340  24.894  0.00  0.00    -0.226 OA
ATOM      7  N   UNL     1      19.693   7.722  24.794  0.00  0.00    -0.279 N 
ATOM      8  H   UNL     1      18.912   8.183  25.240  0.00  0.00    +0.152 HD
BRANCH   5   9
ATOM      9  O   UNL     1      20.991   8.670  26.518  0.00  0.00    -0.444 OA
BRANCH   9  10
ATOM     10  C   UNL     1      20.076   9.765  26.417  0.00  0.00    +0.292 C 
BRANCH  10  12
ATOM     11  N   UNL     1      18.294  10.819  27.770  0.00  0.00    -0.131 NA
ATOM     12  C   UNL     1      19.277   9.881  27.651  0.00  0.00    +0.121 A 
ATOM     13  C   UNL     1      19.341   9.147  28.814  0.00  0.00    +0.143 A 
ATOM     14  N   UNL     1      18.353   9.669  29.618  0.00  0.00    -0.220 N 
ATOM     15  N   UNL     1      17.739  10.687  28.967  0.00  0.00    -0.060 NA
BRANCH  14  16
ATOM     16  C   UNL     1      17.961   9.267  30.918  0.00  0.00    +0.070 A 
ATOM     17  C   UNL     1      17.934   7.916  31.276  0.00  0.00    +0.047 A 
ATOM     18  C   UNL     1      17.525   7.593  32.560  0.00  0.00    +0.113 A 
ATOM     19  N   UNL     1      17.153   8.503  33.484  0.00  0.00    -0.263 NA
ATOM     20  C   UNL     1      17.191   9.801  33.113  0.00  0.00    +0.113 A 
ATOM     21  C   UNL     1      17.584  10.231  31.858  0.00  0.00    +0.047 A 
ENDBRANCH  14  16
ENDBRANCH  10  12
ENDBRANCH   9  10
ENDBRANCH   5   9
ENDBRANCH   4   7
ENDBRANCH   1   4
BRANCH   1  22
ATOM     22  C   UNL     1      19.171   4.469  23.906  0.00  0.00    +0.175 C 
BRANCH  22  23
ATOM     23  C   UNL     1      18.416   3.439  24.758  0.00  0.00    +0.176 C 
ATOM     24  O   UNL     1      19.298   3.013  25.832  0.00  0.00    -0.332 OA
ATOM     25  C   UNL     1      18.706   2.102  26.816  0.00  0.00    +0.277 C 
ATOM     26  C   UNL     1      18.105   0.861  26.110  0.00  0.00    +0.110 C 
ATOM     27  C   UNL     1      17.183   1.263  24.939  0.00  0.00    +0.143 C 
ATOM     28  C   UNL     1      17.899   2.214  23.980  0.00  0.00    +0.133 C 
BRANCH  28  29
ATOM     29  N   UNL     1      16.983   2.658  22.916  0.00  0.00    -0.308 N 
ATOM     30  H   UNL     1      16.209   3.252  23.178  0.00  0.00    +0.149 HD
ATOM     31  C   UNL     1      17.109   2.327  21.628  0.00  0.00    +0.210 C 
ATOM     32  C   UNL     1      18.284   1.400  21.266  0.00  0.00    +0.109 C 
ATOM     33  O   UNL     1      16.336   2.726  20.757  0.00  0.00    -0.276 OA
ENDBRANCH  28  29
BRANCH  25  34
ATOM     34  C   UNL     1      17.607   2.815  27.630  0.00  0.00    +0.414 C 
ATOM     35  O   UNL     1      17.899   3.445  28.646  0.00  0.00    -0.240 OA
ATOM     36  O   UNL     1      16.430   2.760  27.272  0.00  0.00    -0.240 OA
ENDBRANCH  25  34
BRANCH  27  37
ATOM     37  O   UNL     1      16.774   0.095  24.227  0.00  0.00    -0.390 OA
ATOM     38  H   UNL     1      17.374  -0.060  23.494  0.00  0.00    +0.210 HD
ENDBRANCH  27  37
BRANCH  25  39
ATOM     39  O   UNL     1      19.762   1.655  27.706  0.00  0.00    -0.343 OA
ATOM     40  C   UNL     1      21.091   2.118  27.360  0.00  0.00    +0.198 C 
ENDBRANCH  25  39
ENDBRANCH  22  23
BRANCH  22  41
ATOM     41  O   UNL     1      20.503   4.662  24.424  0.00  0.00    -0.387 OA
ATOM     42  H   UNL     1      20.612   5.576  24.695  0.00  0.00    +0.210 HD
ENDBRANCH  22  41
ENDBRANCH   1  22
TORSDOF 14
