REMARK VINA RESULT:    -6.848      1.572      2.239
REMARK INTER + INTRA:         -13.640
REMARK INTER:                 -11.730
REMARK INTRA:                  -1.910
REMARK UNBOUND:                -1.788
REMARK  Name = lig_assembled_20.pdb
REMARK  16 active torsions:
REMARK  status: ('A' for Active; 'I' for Inactive)
REMARK    1  A    between atoms: _2  and  _11
REMARK    2  A    between atoms: _6  and  _21
REMARK    3  A    between atoms: _8  and  _9
REMARK    4  A    between atoms: _8  and  _21
REMARK    5  A    between atoms: _17  and  _37
REMARK    6  A    between atoms: _19  and  _25
REMARK    7  A    between atoms: _20  and  _24
REMARK    8  A    between atoms: _24  and  _25
REMARK    9  A    between atoms: _27  and  _28
REMARK   10  A    between atoms: _29  and  _30
REMARK   11  A    between atoms: _31  and  _33
REMARK   12  A    between atoms: _33  and  _34
REMARK   13  A    between atoms: _33  and  _35
REMARK   14  A    between atoms: _35  and  _36
REMARK   15  A    between atoms: _35  and  _37
REMARK   16  A    between atoms: _38  and  _40
REMARK                            x       y       z     vdW  Elec       q    Type
REMARK                         _______ _______ _______ _____ _____    ______ ____
ROOT
ATOM      1  C   UNL     1       5.581   3.562  32.958  0.00  0.00    +0.163 C 
ENDROOT
BRANCH   1   2
ATOM      2  O   UNL     1       4.807   4.621  33.543  0.00  0.00    -0.388 OA
ATOM      3  H   UNL     1       5.212   4.896  34.369  0.00  0.00    +0.210 HD
ENDBRANCH   1   2
BRANCH   1   4
ATOM      4  C   UNL     1       4.995   2.209  33.350  0.00  0.00    +0.141 C 
BRANCH   4   7
ATOM      5  C   UNL     1       4.369   0.795  31.423  0.00  0.00    +0.401 C 
ATOM      6  O   UNL     1       5.486   0.285  31.314  0.00  0.00    -0.226 OA
ATOM      7  N   UNL     1       4.053   1.708  32.342  0.00  0.00    -0.279 N 
ATOM      8  H   UNL     1       3.111   2.075  32.346  0.00  0.00    +0.152 HD
BRANCH   5   9
ATOM      9  O   UNL     1       3.335   0.403  30.516  0.00  0.00    -0.444 OA
BRANCH   9  10
ATOM     10  C   UNL     1       2.246   1.326  30.605  0.00  0.00    +0.292 C 
BRANCH  10  12
ATOM     11  N   UNL     1       1.819   3.397  29.309  0.00  0.00    -0.131 NA
ATOM     12  C   UNL     1       2.083   2.058  29.334  0.00  0.00    +0.121 A 
ATOM     13  C   UNL     1       2.157   1.591  28.044  0.00  0.00    +0.143 A 
ATOM     14  N   UNL     1       1.929   2.691  27.249  0.00  0.00    -0.220 N 
ATOM     15  N   UNL     1       1.727   3.775  28.039  0.00  0.00    -0.060 NA
BRANCH  14  16
ATOM     16  C   UNL     1       1.896   2.764  25.833  0.00  0.00    +0.068 A 
ATOM     17  C   UNL     1       1.901   1.584  25.071  0.00  0.00    +0.030 A 
ATOM     18  C   UNL     1       1.863   1.620  23.670  0.00  0.00    +0.030 A 
ATOM     19  C   UNL     1       1.821   2.880  23.066  0.00  0.00    +0.066 A 
ATOM     20  C   UNL     1       1.818   4.065  23.790  0.00  0.00    +0.021 A 
ATOM     21  C   UNL     1       1.773   5.082  22.811  0.00  0.00    +0.142 A 
ATOM     22  N   UNL     1       1.747   4.598  21.568  0.00  0.00    -0.181 NA
ATOM     23  N   UNL     1       1.775   3.266  21.751  0.00  0.00    -0.277 N 
ATOM     24  H   UNL     1       1.765   2.667  20.933  0.00  0.00    +0.189 HD
ATOM     25  C   UNL     1       1.856   4.018  25.195  0.00  0.00    +0.039 A 
ENDBRANCH  14  16
ENDBRANCH  10  12
ENDBRANCH   9  10
ENDBRANCH   5   9
ENDBRANCH   4   7
ENDBRANCH   1   4
BRANCH   1  26
ATOM     26  C   UNL     1       7.049   3.637  33.412  0.00  0.00    +0.175 C 
BRANCH  26  27
ATOM     27  C   UNL     1       7.184   4.179  34.842  0.00  0.00    +0.176 C 
ATOM     28  O   UNL     1       7.249   5.630  34.767  0.00  0.00    -0.332 OA
ATOM     29  C   UNL     1       7.274   6.331  36.054  0.00  0.00    +0.277 C 
ATOM     30  C   UNL     1       8.430   5.801  36.937  0.00  0.00    +0.110 C 
ATOM     31  C   UNL     1       8.422   4.260  37.021  0.00  0.00    +0.143 C 
ATOM     32  C   UNL     1       8.392   3.634  35.627  0.00  0.00    +0.133 C 
BRANCH  32  33
ATOM     33  N   UNL     1       8.297   2.169  35.721  0.00  0.00    -0.308 N 
ATOM     34  H   UNL     1       7.457   1.776  36.124  0.00  0.00    +0.149 HD
ATOM     35  C   UNL     1       9.247   1.325  35.311  0.00  0.00    +0.210 C 
ATOM     36  C   UNL     1      10.525   1.955  34.726  0.00  0.00    +0.109 C 
ATOM     37  O   UNL     1       9.133   0.101  35.389  0.00  0.00    -0.276 OA
ENDBRANCH  32  33
BRANCH  29  38
ATOM     38  C   UNL     1       5.934   6.156  36.798  0.00  0.00    +0.414 C 
ATOM     39  O   UNL     1       5.897   6.205  38.027  0.00  0.00    -0.240 OA
ATOM     40  O   UNL     1       4.892   5.965  36.171  0.00  0.00    -0.240 OA
ENDBRANCH  29  38
BRANCH  31  41
ATOM     41  O   UNL     1       9.586   3.810  37.715  0.00  0.00    -0.390 OA
ATOM     42  H   UNL     1      10.371   4.147  37.278  0.00  0.00    +0.210 HD
ENDBRANCH  31  41
BRANCH  29  43
ATOM     43  O   UNL     1       7.506   7.740  35.793  0.00  0.00    -0.343 OA
ATOM     44  C   UNL     1       7.494   8.113  34.392  0.00  0.00    +0.198 C 
ENDBRANCH  29  43
ENDBRANCH  26  27
BRANCH  26  45
ATOM     45  O   UNL     1       7.810   4.451  32.498  0.00  0.00    -0.387 OA
ATOM     46  H   UNL     1       7.452   4.359  31.612  0.00  0.00    +0.210 HD
ENDBRANCH  26  45
ENDBRANCH   1  26
TORSDOF 14
