REMARK VINA RESULT:    -5.787     14.273     15.667
REMARK INTER + INTRA:         -12.507
REMARK INTER:                 -10.183
REMARK INTRA:                  -2.324
REMARK UNBOUND:                -2.491
REMARK  Name = lig_assembled_57.pdb
REMARK  17 active torsions:
REMARK  status: ('A' for Active; 'I' for Inactive)
REMARK    1  A    between atoms: _2  and  _10
REMARK    2  A    between atoms: _3  and  _13
REMARK    3  A    between atoms: _5  and  _19
REMARK    4  A    between atoms: _7  and  _8
REMARK    5  A    between atoms: _7  and  _19
REMARK    6  A    between atoms: _15  and  _35
REMARK    7  A    between atoms: _17  and  _23
REMARK    8  A    between atoms: _18  and  _22
REMARK    9  A    between atoms: _22  and  _23
REMARK   10  A    between atoms: _25  and  _26
REMARK   11  A    between atoms: _27  and  _28
REMARK   12  A    between atoms: _29  and  _31
REMARK   13  A    between atoms: _31  and  _32
REMARK   14  A    between atoms: _31  and  _33
REMARK   15  A    between atoms: _33  and  _34
REMARK   16  A    between atoms: _33  and  _35
REMARK   17  A    between atoms: _36  and  _38
REMARK                            x       y       z     vdW  Elec       q    Type
REMARK                         _______ _______ _______ _____ _____    ______ ____
ROOT
ATOM      1  C   UNL     1      18.771  10.165  29.355  0.00  0.00    +0.163 C 
ENDROOT
BRANCH   1   2
ATOM      2  O   UNL     1      17.477  10.778  29.475  0.00  0.00    -0.388 OA
ATOM      3  H   UNL     1      16.872  10.376  28.847  0.00  0.00    +0.210 HD
ENDBRANCH   1   2
BRANCH   1   4
ATOM      4  C   UNL     1      19.012   9.734  27.912  0.00  0.00    +0.141 C 
BRANCH   4   7
ATOM      5  C   UNL     1      18.965   7.500  26.857  0.00  0.00    +0.401 C 
ATOM      6  O   UNL     1      18.200   7.840  25.951  0.00  0.00    -0.226 OA
ATOM      7  N   UNL     1      19.391   8.319  27.819  0.00  0.00    -0.279 N 
ATOM      8  H   UNL     1      20.010   7.944  28.525  0.00  0.00    +0.152 HD
BRANCH   5   9
ATOM      9  O   UNL     1      19.433   6.149  26.901  0.00  0.00    -0.444 OA
BRANCH   9  10
ATOM     10  C   UNL     1      18.662   5.407  27.850  0.00  0.00    +0.292 C 
BRANCH  10  12
ATOM     11  N   UNL     1      17.311   3.340  27.835  0.00  0.00    -0.131 NA
ATOM     12  C   UNL     1      18.326   4.081  27.300  0.00  0.00    +0.120 A 
ATOM     13  C   UNL     1      18.875   3.394  26.239  0.00  0.00    +0.137 A 
ATOM     14  N   UNL     1      18.094   2.283  26.121  0.00  0.00    -0.248 N 
ATOM     15  N   UNL     1      17.202   2.225  27.132  0.00  0.00    -0.065 NA
BRANCH  14  16
ATOM     16  C   UNL     1      18.044   1.253  25.090  0.00  0.00    +0.111 C 
ATOM     17  C   UNL     1      16.777   1.402  24.233  0.00  0.00    +0.042 C 
ATOM     18  C   UNL     1      16.910   2.590  23.283  0.00  0.00    +0.086 C 
ATOM     19  N   UNL     1      18.060   2.474  22.380  0.00  0.00    -0.305 NA
ATOM     20  C   UNL     1      19.317   2.254  23.096  0.00  0.00    +0.086 C 
ATOM     21  C   UNL     1      17.834   1.499  21.317  0.00  0.00    +0.104 C 
ATOM     22  C   UNL     1      19.270   1.155  24.166  0.00  0.00    +0.042 C 
ENDBRANCH  14  16
ENDBRANCH  10  12
ENDBRANCH   9  10
ENDBRANCH   5   9
ENDBRANCH   4   7
ENDBRANCH   1   4
BRANCH   1  23
ATOM     23  C   UNL     1      18.891   8.944  30.283  0.00  0.00    +0.175 C 
BRANCH  23  24
ATOM     24  C   UNL     1      17.962   9.052  31.501  0.00  0.00    +0.176 C 
ATOM     25  O   UNL     1      18.194  10.344  32.127  0.00  0.00    -0.332 OA
ATOM     26  C   UNL     1      17.314  10.669  33.254  0.00  0.00    +0.277 C 
ATOM     27  C   UNL     1      17.371   9.551  34.324  0.00  0.00    +0.110 C 
ATOM     28  C   UNL     1      17.161   8.155  33.701  0.00  0.00    +0.143 C 
ATOM     29  C   UNL     1      18.125   7.924  32.537  0.00  0.00    +0.133 C 
BRANCH  29  30
ATOM     30  N   UNL     1      17.858   6.626  31.897  0.00  0.00    -0.308 N 
ATOM     31  H   UNL     1      16.968   6.502  31.436  0.00  0.00    +0.149 HD
ATOM     32  C   UNL     1      18.715   5.602  31.885  0.00  0.00    +0.210 C 
ATOM     33  C   UNL     1      20.053   5.813  32.619  0.00  0.00    +0.109 C 
ATOM     34  O   UNL     1      18.470   4.531  31.328  0.00  0.00    -0.276 OA
ENDBRANCH  29  30
BRANCH  26  35
ATOM     35  C   UNL     1      15.859  10.853  32.777  0.00  0.00    +0.414 C 
ATOM     36  O   UNL     1      14.932  10.338  33.401  0.00  0.00    -0.240 OA
ATOM     37  O   UNL     1      15.612  11.515  31.768  0.00  0.00    -0.240 OA
ENDBRANCH  26  35
BRANCH  28  38
ATOM     38  O   UNL     1      17.371   7.149  34.693  0.00  0.00    -0.390 OA
ATOM     39  H   UNL     1      17.073   6.300  34.356  0.00  0.00    +0.210 HD
ENDBRANCH  28  38
BRANCH  26  40
ATOM     40  O   UNL     1      17.791  11.901  33.854  0.00  0.00    -0.343 OA
ATOM     41  C   UNL     1      17.542  12.025  35.277  0.00  0.00    +0.198 C 
ENDBRANCH  26  40
ENDBRANCH  23  24
BRANCH  23  42
ATOM     42  O   UNL     1      20.257   8.779  30.712  0.00  0.00    -0.387 OA
ATOM     43  H   UNL     1      20.301   8.091  31.381  0.00  0.00    +0.210 HD
ENDBRANCH  23  42
ENDBRANCH   1  23
TORSDOF 14
