REMARK VINA RESULT:    -5.659      8.920     12.629
REMARK INTER + INTRA:         -12.661
REMARK INTER:                 -10.125
REMARK INTRA:                  -2.536
REMARK UNBOUND:                -2.536
REMARK  Name = lig_assembled_44.pdb
REMARK  17 active torsions:
REMARK  status: ('A' for Active; 'I' for Inactive)
REMARK    1  A    between atoms: _2  and  _9
REMARK    2  A    between atoms: _4  and  _19
REMARK    3  A    between atoms: _6  and  _7
REMARK    4  A    between atoms: _6  and  _19
REMARK    5  A    between atoms: _9  and  _10
REMARK    6  A    between atoms: _15  and  _35
REMARK    7  A    between atoms: _17  and  _23
REMARK    8  A    between atoms: _18  and  _22
REMARK    9  A    between atoms: _22  and  _23
REMARK   10  A    between atoms: _25  and  _26
REMARK   11  A    between atoms: _27  and  _28
REMARK   12  A    between atoms: _29  and  _31
REMARK   13  A    between atoms: _31  and  _32
REMARK   14  A    between atoms: _31  and  _33
REMARK   15  A    between atoms: _33  and  _34
REMARK   16  A    between atoms: _33  and  _35
REMARK   17  A    between atoms: _36  and  _38
REMARK                            x       y       z     vdW  Elec       q    Type
REMARK                         _______ _______ _______ _____ _____    ______ ____
ROOT
ATOM      1  C   UNL     1       7.629   3.867  33.628  0.00  0.00    +0.163 C 
ENDROOT
BRANCH   1   2
ATOM      2  O   UNL     1       7.804   4.756  32.512  0.00  0.00    -0.388 OA
ATOM      3  H   UNL     1       7.918   5.654  32.832  0.00  0.00    +0.210 HD
ENDBRANCH   1   2
BRANCH   1   4
ATOM      4  C   UNL     1       7.656   2.419  33.150  0.00  0.00    +0.141 C 
BRANCH   4   7
ATOM      5  C   UNL     1       8.866   1.016  34.785  0.00  0.00    +0.401 C 
ATOM      6  O   UNL     1       7.907   0.920  35.554  0.00  0.00    -0.226 OA
ATOM      7  N   UNL     1       8.839   1.702  33.642  0.00  0.00    -0.279 N 
ATOM      8  H   UNL     1       9.680   1.730  33.082  0.00  0.00    +0.152 HD
BRANCH   5   9
ATOM      9  O   UNL     1      10.093   0.363  35.121  0.00  0.00    -0.444 OA
BRANCH   9  10
ATOM     10  C   UNL     1      10.730   1.065  36.192  0.00  0.00    +0.292 C 
BRANCH  10  12
ATOM     11  N   UNL     1      11.670   2.846  34.747  0.00  0.00    -0.131 NA
ATOM     12  C   UNL     1      11.860   1.865  35.684  0.00  0.00    +0.120 A 
ATOM     13  C   UNL     1      13.193   1.815  36.019  0.00  0.00    +0.137 A 
ATOM     14  N   UNL     1      13.748   2.841  35.312  0.00  0.00    -0.247 N 
ATOM     15  N   UNL     1      12.837   3.433  34.518  0.00  0.00    -0.065 NA
BRANCH  14  16
ATOM     16  C   UNL     1      15.118   3.313  35.340  0.00  0.00    +0.180 C 
BRANCH  16  17
ATOM     17  C   UNL     1      15.247   4.591  36.134  0.00  0.00    -0.026 A 
ATOM     18  C   UNL     1      14.806   4.655  37.465  0.00  0.00    +0.006 A 
ATOM     19  C   UNL     1      14.912   5.842  38.192  0.00  0.00    +0.015 A 
ATOM     20  C   UNL     1      15.459   6.975  37.591  0.00  0.00    +0.018 A 
ATOM     21 BR   UNL     1      15.617   8.577  38.582  0.00  0.00    -0.050 Br
ATOM     22  C   UNL     1      15.890   6.934  36.267  0.00  0.00    +0.015 A 
ATOM     23  C   UNL     1      15.779   5.746  35.538  0.00  0.00    +0.006 A 
ENDBRANCH  16  17
ENDBRANCH  14  16
ENDBRANCH  10  12
ENDBRANCH   9  10
ENDBRANCH   5   9
ENDBRANCH   4   7
ENDBRANCH   1   4
BRANCH   1  24
ATOM     24  C   UNL     1       6.300   4.146  34.350  0.00  0.00    +0.175 C 
BRANCH  24  25
ATOM     25  C   UNL     1       6.434   5.261  35.397  0.00  0.00    +0.176 C 
ATOM     26  O   UNL     1       7.790   5.223  35.920  0.00  0.00    -0.332 OA
ATOM     27  C   UNL     1       8.137   6.291  36.863  0.00  0.00    +0.277 C 
ATOM     28  C   UNL     1       7.125   6.327  38.034  0.00  0.00    +0.110 C 
ATOM     29  C   UNL     1       5.667   6.336  37.528  0.00  0.00    +0.143 C 
ATOM     30  C   UNL     1       5.418   5.186  36.552  0.00  0.00    +0.133 C 
BRANCH  30  31
ATOM     31  N   UNL     1       4.052   5.256  36.011  0.00  0.00    -0.308 N 
ATOM     32  H   UNL     1       3.843   5.994  35.352  0.00  0.00    +0.149 HD
ATOM     33  C   UNL     1       3.070   4.409  36.332  0.00  0.00    +0.210 C 
ATOM     34  C   UNL     1       3.413   3.313  37.358  0.00  0.00    +0.109 C 
ATOM     35  O   UNL     1       1.939   4.484  35.851  0.00  0.00    -0.276 OA
ENDBRANCH  30  31
BRANCH  27  36
ATOM     36  C   UNL     1       8.154   7.661  36.154  0.00  0.00    +0.414 C 
ATOM     37  O   UNL     1       8.163   8.700  36.814  0.00  0.00    -0.240 OA
ATOM     38  O   UNL     1       8.160   7.729  34.925  0.00  0.00    -0.240 OA
ENDBRANCH  27  36
BRANCH  27  39
ATOM     39  O   UNL     1       9.452   6.004  37.403  0.00  0.00    -0.343 OA
ATOM     40  C   UNL     1       9.749   4.595  37.575  0.00  0.00    +0.198 C 
ENDBRANCH  27  39
BRANCH  29  41
ATOM     41  O   UNL     1       4.772   6.216  38.635  0.00  0.00    -0.390 OA
ATOM     42  H   UNL     1       3.898   6.513  38.373  0.00  0.00    +0.210 HD
ENDBRANCH  29  41
ENDBRANCH  24  25
BRANCH  24  43
ATOM     43  O   UNL     1       5.809   2.940  34.968  0.00  0.00    -0.387 OA
ATOM     44  H   UNL     1       5.939   2.198  34.373  0.00  0.00    +0.210 HD
ENDBRANCH  24  43
ENDBRANCH   1  24
TORSDOF 15
