REMARK VINA RESULT:    -5.444      2.624      5.380
REMARK INTER + INTRA:         -12.571
REMARK INTER:                 -11.233
REMARK INTRA:                  -1.338
REMARK UNBOUND:                -2.671
REMARK  Name = lig_assembled_1.pdb
REMARK  18 active torsions:
REMARK  status: ('A' for Active; 'I' for Inactive)
REMARK    1  A    between atoms: _2  and  _9
REMARK    2  A    between atoms: _4  and  _15
REMARK    3  A    between atoms: _5  and  _9
REMARK    4  A    between atoms: _5  and  _10
REMARK    5  A    between atoms: _6  and  _7
REMARK    6  A    between atoms: _6  and  _15
REMARK    7  A    between atoms: _11  and  _31
REMARK    8  A    between atoms: _13  and  _19
REMARK    9  A    between atoms: _14  and  _18
REMARK   10  A    between atoms: _18  and  _19
REMARK   11  A    between atoms: _21  and  _22
REMARK   12  A    between atoms: _23  and  _24
REMARK   13  A    between atoms: _25  and  _27
REMARK   14  A    between atoms: _27  and  _28
REMARK   15  A    between atoms: _27  and  _29
REMARK   16  A    between atoms: _29  and  _30
REMARK   17  A    between atoms: _29  and  _31
REMARK   18  A    between atoms: _32  and  _34
REMARK                            x       y       z     vdW  Elec       q    Type
REMARK                         _______ _______ _______ _____ _____    ______ ____
ROOT
ATOM      1  C   UNL     1      16.588   1.382  24.798  0.00  0.00    +0.175 C 
ENDROOT
BRANCH   1   2
ATOM      2  C   UNL     1      17.654   0.652  23.967  0.00  0.00    +0.176 C 
ATOM      3  O   UNL     1      17.732   1.301  22.669  0.00  0.00    -0.332 OA
ATOM      4  C   UNL     1      18.779   0.802  21.772  0.00  0.00    +0.277 C 
ATOM      5  C   UNL     1      18.644  -0.729  21.584  0.00  0.00    +0.110 C 
ATOM      6  C   UNL     1      18.526  -1.461  22.937  0.00  0.00    +0.143 C 
ATOM      7  C   UNL     1      17.409  -0.859  23.791  0.00  0.00    +0.133 C 
BRANCH   7   8
ATOM      8  N   UNL     1      17.363  -1.507  25.111  0.00  0.00    -0.308 N 
ATOM      9  H   UNL     1      18.080  -1.265  25.781  0.00  0.00    +0.149 HD
ATOM     10  C   UNL     1      16.436  -2.394  25.482  0.00  0.00    +0.210 C 
ATOM     11  C   UNL     1      15.372  -2.761  24.430  0.00  0.00    +0.109 C 
ATOM     12  O   UNL     1      16.414  -2.909  26.600  0.00  0.00    -0.276 OA
ENDBRANCH   7   8
BRANCH   4  13
ATOM     13  C   UNL     1      20.179   1.132  22.329  0.00  0.00    +0.414 C 
ATOM     14  O   UNL     1      21.067   1.532  21.576  0.00  0.00    -0.240 OA
ATOM     15  O   UNL     1      20.422   0.998  23.529  0.00  0.00    -0.240 OA
ENDBRANCH   4  13
BRANCH   4  16
ATOM     16  O   UNL     1      18.604   1.438  20.480  0.00  0.00    -0.343 OA
ATOM     17  C   UNL     1      17.241   1.815  20.162  0.00  0.00    +0.198 C 
ENDBRANCH   4  16
BRANCH   6  18
ATOM     18  O   UNL     1      18.253  -2.845  22.714  0.00  0.00    -0.390 OA
ATOM     19  H   UNL     1      17.378  -3.057  23.049  0.00  0.00    +0.210 HD
ENDBRANCH   6  18
ENDBRANCH   1   2
BRANCH   1  20
ATOM     20  O   UNL     1      16.094   2.527  24.074  0.00  0.00    -0.387 OA
ATOM     21  H   UNL     1      16.027   3.278  24.669  0.00  0.00    +0.210 HD
ENDBRANCH   1  20
BRANCH   1  22
ATOM     22  C   UNL     1      17.123   1.815  26.174  0.00  0.00    +0.163 C 
BRANCH  22  23
ATOM     23  O   UNL     1      16.196   2.694  26.832  0.00  0.00    -0.388 OA
ATOM     24  H   UNL     1      15.786   2.234  27.569  0.00  0.00    +0.210 HD
ENDBRANCH  22  23
BRANCH  22  25
ATOM     25  C   UNL     1      18.469   2.511  26.002  0.00  0.00    +0.141 C 
BRANCH  25  28
ATOM     26  C   UNL     1      19.180   4.505  24.726  0.00  0.00    +0.401 C 
ATOM     27  O   UNL     1      20.205   3.976  24.290  0.00  0.00    -0.226 OA
ATOM     28  N   UNL     1      18.314   3.895  25.537  0.00  0.00    -0.279 N 
ATOM     29  H   UNL     1      17.506   4.415  25.850  0.00  0.00    +0.152 HD
BRANCH  26  30
ATOM     30  O   UNL     1      18.882   5.854  24.357  0.00  0.00    -0.444 OA
BRANCH  30  31
ATOM     31  C   UNL     1      20.099   6.549  24.070  0.00  0.00    +0.292 C 
BRANCH  31  33
ATOM     32  N   UNL     1      21.172   8.684  24.723  0.00  0.00    -0.131 NA
ATOM     33  C   UNL     1      20.268   7.690  24.990  0.00  0.00    +0.120 A 
ATOM     34  C   UNL     1      19.629   7.969  26.178  0.00  0.00    +0.137 A 
ATOM     35  N   UNL     1      20.193   9.141  26.585  0.00  0.00    -0.249 N 
ATOM     36  N   UNL     1      21.122   9.566  25.713  0.00  0.00    -0.065 NA
BRANCH  35  37
ATOM     37  C   UNL     1      19.894   9.906  27.774  0.00  0.00    +0.173 C 
BRANCH  37  38
ATOM     38  C   UNL     1      19.073  11.155  27.478  0.00  0.00    +0.179 C 
BRANCH  38  39
ATOM     39  O   UNL     1      18.965  11.380  26.073  0.00  0.00    -0.393 OA
ATOM     40  H   UNL     1      18.064  11.112  25.811  0.00  0.00    +0.209 HD
ENDBRANCH  38  39
ENDBRANCH  37  38
ENDBRANCH  35  37
ENDBRANCH  31  33
ENDBRANCH  30  31
ENDBRANCH  26  30
ENDBRANCH  25  28
ENDBRANCH  22  25
ENDBRANCH   1  22
TORSDOF 16
