REMARK VINA RESULT:    -5.585     23.033     26.761
REMARK INTER + INTRA:         -13.286
REMARK INTER:                 -11.374
REMARK INTRA:                  -1.912
REMARK UNBOUND:                -2.640
REMARK  Name = lig_assembled_29.pdb
REMARK  21 active torsions:
REMARK  status: ('A' for Active; 'I' for Inactive)
REMARK    1  A    between atoms: _2  and  _9
REMARK    2  A    between atoms: _4  and  _23
REMARK    3  A    between atoms: _6  and  _7
REMARK    4  A    between atoms: _6  and  _23
REMARK    5  A    between atoms: _9  and  _10
REMARK    6  A    between atoms: _12  and  _18
REMARK    7  A    between atoms: _13  and  _18
REMARK    8  A    between atoms: _14  and  _17
REMARK    9  A    between atoms: _15  and  _17
REMARK   10  A    between atoms: _19  and  _39
REMARK   11  A    between atoms: _21  and  _27
REMARK   12  A    between atoms: _22  and  _26
REMARK   13  A    between atoms: _26  and  _27
REMARK   14  A    between atoms: _29  and  _30
REMARK   15  A    between atoms: _31  and  _32
REMARK   16  A    between atoms: _33  and  _35
REMARK   17  A    between atoms: _35  and  _36
REMARK   18  A    between atoms: _35  and  _37
REMARK   19  A    between atoms: _37  and  _38
REMARK   20  A    between atoms: _37  and  _39
REMARK   21  A    between atoms: _40  and  _42
REMARK                            x       y       z     vdW  Elec       q    Type
REMARK                         _______ _______ _______ _____ _____    ______ ____
ROOT
ATOM      1  C   UNL     1      14.973  22.748  19.710  0.00  0.00    +0.163 C 
ENDROOT
BRANCH   1   2
ATOM      2  O   UNL     1      15.986  23.589  19.135  0.00  0.00    -0.388 OA
ATOM      3  H   UNL     1      16.231  24.272  19.765  0.00  0.00    +0.210 HD
ENDBRANCH   1   2
BRANCH   1   4
ATOM      4  C   UNL     1      13.844  22.478  18.701  0.00  0.00    +0.175 C 
BRANCH   4   5
ATOM      5  C   UNL     1      13.587  23.684  17.786  0.00  0.00    +0.176 C 
ATOM      6  O   UNL     1      13.617  24.884  18.607  0.00  0.00    -0.332 OA
ATOM      7  C   UNL     1      13.494  26.152  17.882  0.00  0.00    +0.277 C 
ATOM      8  C   UNL     1      12.220  26.151  17.002  0.00  0.00    +0.110 C 
ATOM      9  C   UNL     1      12.128  24.879  16.133  0.00  0.00    +0.143 C 
ATOM     10  C   UNL     1      12.271  23.619  16.988  0.00  0.00    +0.133 C 
BRANCH  10  11
ATOM     11  N   UNL     1      12.269  22.417  16.140  0.00  0.00    -0.308 N 
ATOM     12  H   UNL     1      11.585  21.701  16.337  0.00  0.00    +0.149 HD
ATOM     13  C   UNL     1      13.114  22.211  15.126  0.00  0.00    +0.210 C 
ATOM     14  C   UNL     1      14.163  23.309  14.867  0.00  0.00    +0.109 C 
ATOM     15  O   UNL     1      13.080  21.200  14.422  0.00  0.00    -0.276 OA
ENDBRANCH  10  11
BRANCH   7  16
ATOM     16  C   UNL     1      14.733  26.397  16.995  0.00  0.00    +0.414 C 
ATOM     17  O   UNL     1      15.826  25.931  17.314  0.00  0.00    -0.240 OA
ATOM     18  O   UNL     1      14.639  27.059  15.961  0.00  0.00    -0.240 OA
ENDBRANCH   7  16
BRANCH   7  19
ATOM     19  O   UNL     1      13.374  27.218  18.858  0.00  0.00    -0.343 OA
ATOM     20  C   UNL     1      13.920  26.913  20.167  0.00  0.00    +0.198 C 
ENDBRANCH   7  19
BRANCH   9  21
ATOM     21  O   UNL     1      10.872  24.847  15.455  0.00  0.00    -0.390 OA
ATOM     22  H   UNL     1      11.017  24.705  14.517  0.00  0.00    +0.210 HD
ENDBRANCH   9  21
ENDBRANCH   4   5
BRANCH   4  23
ATOM     23  O   UNL     1      12.634  22.115  19.396  0.00  0.00    -0.387 OA
ATOM     24  H   UNL     1      12.261  22.893  19.818  0.00  0.00    +0.210 HD
ENDBRANCH   4  23
ENDBRANCH   1   4
BRANCH   1  25
ATOM     25  C   UNL     1      15.586  21.424  20.155  0.00  0.00    +0.141 C 
BRANCH  25  28
ATOM     26  C   UNL     1      17.195  21.957  21.953  0.00  0.00    +0.401 C 
ATOM     27  O   UNL     1      18.044  22.417  21.186  0.00  0.00    -0.226 OA
ATOM     28  N   UNL     1      16.020  21.465  21.557  0.00  0.00    -0.279 N 
ATOM     29  H   UNL     1      15.394  21.101  22.261  0.00  0.00    +0.152 HD
BRANCH  26  30
ATOM     30  O   UNL     1      17.467  21.935  23.357  0.00  0.00    -0.444 OA
BRANCH  30  31
ATOM     31  C   UNL     1      17.140  23.205  23.927  0.00  0.00    +0.292 C 
BRANCH  31  33
ATOM     32  N   UNL     1      15.101  21.988  24.640  0.00  0.00    -0.131 NA
ATOM     33  C   UNL     1      15.821  23.152  24.584  0.00  0.00    +0.120 A 
ATOM     34  C   UNL     1      15.124  24.144  25.235  0.00  0.00    +0.137 A 
ATOM     35  N   UNL     1      14.035  23.497  25.744  0.00  0.00    -0.247 N 
ATOM     36  N   UNL     1      14.000  22.214  25.346  0.00  0.00    -0.065 NA
BRANCH  35  37
ATOM     37  C   UNL     1      13.026  24.019  26.647  0.00  0.00    +0.180 C 
BRANCH  37  38
ATOM     38  C   UNL     1      11.677  24.081  25.967  0.00  0.00    -0.022 A 
ATOM     39  C   UNL     1      11.517  24.814  24.778  0.00  0.00    +0.054 A 
ATOM     40  C   UNL     1      10.292  24.816  24.095  0.00  0.00    +0.162 A 
ATOM     41  C   UNL     1       9.207  24.081  24.613  0.00  0.00    +0.162 A 
ATOM     42  C   UNL     1       9.368  23.354  25.795  0.00  0.00    +0.050 A 
ATOM     43  C   UNL     1      10.592  23.355  26.468  0.00  0.00    +0.009 A 
BRANCH  40  44
ATOM     44  O   UNL     1      10.063  25.488  22.920  0.00  0.00    -0.491 OA
ATOM     45  C   UNL     1      10.831  25.118  21.784  0.00  0.00    +0.277 C 
ENDBRANCH  40  44
BRANCH  41  46
ATOM     46  O   UNL     1       8.039  24.138  23.891  0.00  0.00    -0.491 OA
ATOM     47  C   UNL     1       7.498  22.914  23.413  0.00  0.00    +0.277 C 
ENDBRANCH  41  46
ENDBRANCH  37  38
ENDBRANCH  35  37
ENDBRANCH  31  33
ENDBRANCH  30  31
ENDBRANCH  26  30
ENDBRANCH  25  28
ENDBRANCH   1  25
TORSDOF 17
