REMARK VINA RESULT:    -5.141     21.966     25.061
REMARK INTER + INTRA:         -12.652
REMARK INTER:                 -10.261
REMARK INTRA:                  -2.391
REMARK UNBOUND:                -3.154
REMARK  Name = lig_assembled_67.pdb
REMARK  18 active torsions:
REMARK  status: ('A' for Active; 'I' for Inactive)
REMARK    1  A    between atoms: _2  and  _9
REMARK    2  A    between atoms: _4  and  _19
REMARK    3  A    between atoms: _6  and  _7
REMARK    4  A    between atoms: _6  and  _19
REMARK    5  A    between atoms: _9  and  _10
REMARK    6  A    between atoms: _10  and  _11
REMARK    7  A    between atoms: _15  and  _35
REMARK    8  A    between atoms: _17  and  _23
REMARK    9  A    between atoms: _18  and  _22
REMARK   10  A    between atoms: _22  and  _23
REMARK   11  A    between atoms: _25  and  _26
REMARK   12  A    between atoms: _27  and  _28
REMARK   13  A    between atoms: _29  and  _31
REMARK   14  A    between atoms: _31  and  _32
REMARK   15  A    between atoms: _31  and  _33
REMARK   16  A    between atoms: _33  and  _34
REMARK   17  A    between atoms: _33  and  _35
REMARK   18  A    between atoms: _36  and  _38
REMARK                            x       y       z     vdW  Elec       q    Type
REMARK                         _______ _______ _______ _____ _____    ______ ____
ROOT
ATOM      1  C   UNL     1       2.201  16.327   8.776  0.00  0.00    +0.163 C 
ENDROOT
BRANCH   1   2
ATOM      2  O   UNL     1       1.782  15.870   7.480  0.00  0.00    -0.388 OA
ATOM      3  H   UNL     1       1.595  14.928   7.517  0.00  0.00    +0.210 HD
ENDBRANCH   1   2
BRANCH   1   4
ATOM      4  C   UNL     1       2.250  15.163   9.781  0.00  0.00    +0.175 C 
BRANCH   4   5
ATOM      5  C   UNL     1       1.010  15.129  10.687  0.00  0.00    +0.176 C 
ATOM      6  O   UNL     1      -0.127  14.729   9.873  0.00  0.00    -0.332 OA
ATOM      7  C   UNL     1      -1.388  14.539  10.596  0.00  0.00    +0.277 C 
ATOM      8  C   UNL     1      -1.744  15.810  11.406  0.00  0.00    +0.110 C 
ATOM      9  C   UNL     1      -0.555  16.292  12.263  0.00  0.00    +0.143 C 
ATOM     10  C   UNL     1       0.705  16.453  11.411  0.00  0.00    +0.133 C 
BRANCH  10  11
ATOM     11  N   UNL     1       1.852  16.828  12.253  0.00  0.00    -0.308 N 
ATOM     12  H   UNL     1       2.213  16.135  12.894  0.00  0.00    +0.149 HD
ATOM     13  C   UNL     1       2.446  18.024  12.226  0.00  0.00    +0.210 C 
ATOM     14  C   UNL     1       1.856  19.066  11.258  0.00  0.00    +0.109 C 
ATOM     15  O   UNL     1       3.415  18.305  12.933  0.00  0.00    -0.276 OA
ENDBRANCH  10  11
BRANCH   7  16
ATOM     16  C   UNL     1      -1.295  13.330  11.550  0.00  0.00    +0.414 C 
ATOM     17  O   UNL     1      -0.876  12.248  11.140  0.00  0.00    -0.240 OA
ATOM     18  O   UNL     1      -1.639  13.436  12.728  0.00  0.00    -0.240 OA
ENDBRANCH   7  16
BRANCH   9  19
ATOM     19  O   UNL     1      -0.875  17.544  12.871  0.00  0.00    -0.390 OA
ATOM     20  H   UNL     1      -0.377  18.244  12.444  0.00  0.00    +0.210 HD
ENDBRANCH   9  19
BRANCH   7  21
ATOM     21  O   UNL     1      -2.436  14.311   9.619  0.00  0.00    -0.343 OA
ATOM     22  C   UNL     1      -3.419  15.372   9.516  0.00  0.00    +0.198 C 
ENDBRANCH   7  21
ENDBRANCH   4   5
BRANCH   4  23
ATOM     23  O   UNL     1       3.447  15.246  10.580  0.00  0.00    -0.387 OA
ATOM     24  H   UNL     1       3.840  16.116  10.479  0.00  0.00    +0.210 HD
ENDBRANCH   4  23
ENDBRANCH   1   4
BRANCH   1  25
ATOM     25  C   UNL     1       3.579  16.975   8.681  0.00  0.00    +0.141 C 
BRANCH  25  28
ATOM     26  C   UNL     1       4.943  17.071   6.623  0.00  0.00    +0.401 C 
ATOM     27  O   UNL     1       4.815  18.289   6.482  0.00  0.00    -0.226 OA
ATOM     28  N   UNL     1       4.394  16.373   7.618  0.00  0.00    -0.279 N 
ATOM     29  H   UNL     1       4.548  15.375   7.643  0.00  0.00    +0.152 HD
BRANCH  26  30
ATOM     30  O   UNL     1       5.719  16.339   5.670  0.00  0.00    -0.444 OA
BRANCH  30  31
ATOM     31  C   UNL     1       4.884  15.940   4.579  0.00  0.00    +0.292 C 
BRANCH  31  33
ATOM     32  N   UNL     1       3.487  14.125   5.515  0.00  0.00    -0.131 NA
ATOM     33  C   UNL     1       4.520  14.517   4.703  0.00  0.00    +0.120 A 
ATOM     34  C   UNL     1       5.068  13.404   4.106  0.00  0.00    +0.137 A 
ATOM     35  N   UNL     1       4.329  12.370   4.596  0.00  0.00    -0.251 N 
ATOM     36  N   UNL     1       3.383  12.805   5.444  0.00  0.00    -0.065 NA
BRANCH  35  37
ATOM     37  C   UNL     1       4.455  10.961   4.299  0.00  0.00    +0.150 C 
BRANCH  37  38
ATOM     38  C   UNL     1       4.259  10.060   5.517  0.00  0.00    +0.084 C 
BRANCH  38  39
ATOM     39  C   UNL     1       5.211   8.872   5.520  0.00  0.00    +0.252 C 
ATOM     40  O   UNL     1       4.800   7.907   4.546  0.00  0.00    -0.349 OA
ATOM     41  C   UNL     1       6.027   7.287   4.166  0.00  0.00    +0.191 C 
ATOM     42  C   UNL     1       7.015   8.423   4.200  0.00  0.00    +0.191 C 
ATOM     43  O   UNL     1       6.545   9.299   5.226  0.00  0.00    -0.349 OA
ENDBRANCH  38  39
ENDBRANCH  37  38
ENDBRANCH  35  37
ENDBRANCH  31  33
ENDBRANCH  30  31
ENDBRANCH  26  30
ENDBRANCH  25  28
ENDBRANCH   1  25
TORSDOF 16
