REMARK VINA RESULT:    -5.561     13.882     15.704
REMARK INTER + INTRA:         -13.035
REMARK INTER:                 -10.401
REMARK INTRA:                  -2.635
REMARK UNBOUND:                -2.111
REMARK  Name = lig_assembled_17.pdb
REMARK  22 active torsions:
REMARK  status: ('A' for Active; 'I' for Inactive)
REMARK    1  A    between atoms: _2  and  _10
REMARK    2  A    between atoms: _3  and  _11
REMARK    3  A    between atoms: _3  and  _12
REMARK    4  A    between atoms: _3  and  _14
REMARK    5  A    between atoms: _5  and  _19
REMARK    6  A    between atoms: _6  and  _14
REMARK    7  A    between atoms: _7  and  _8
REMARK    8  A    between atoms: _7  and  _19
REMARK    9  A    between atoms: _10  and  _11
REMARK   10  A    between atoms: _12  and  _13
REMARK   11  A    between atoms: _15  and  _35
REMARK   12  A    between atoms: _17  and  _23
REMARK   13  A    between atoms: _18  and  _22
REMARK   14  A    between atoms: _22  and  _23
REMARK   15  A    between atoms: _25  and  _26
REMARK   16  A    between atoms: _27  and  _28
REMARK   17  A    between atoms: _29  and  _31
REMARK   18  A    between atoms: _31  and  _32
REMARK   19  A    between atoms: _31  and  _33
REMARK   20  A    between atoms: _33  and  _34
REMARK   21  A    between atoms: _33  and  _35
REMARK   22  A    between atoms: _36  and  _38
REMARK                            x       y       z     vdW  Elec       q    Type
REMARK                         _______ _______ _______ _____ _____    ______ ____
ROOT
ATOM      1  C   UNL     1      18.466  10.450  29.683  0.00  0.00    +0.163 C 
ENDROOT
BRANCH   1   2
ATOM      2  O   UNL     1      17.151  10.766  30.169  0.00  0.00    -0.388 OA
ATOM      3  H   UNL     1      16.586   9.993  30.089  0.00  0.00    +0.210 HD
ENDBRANCH   1   2
BRANCH   1   4
ATOM      4  C   UNL     1      18.814   8.976  29.954  0.00  0.00    +0.175 C 
BRANCH   4   5
ATOM      5  C   UNL     1      18.038   8.410  31.152  0.00  0.00    +0.176 C 
ATOM      6  O   UNL     1      18.141   9.366  32.244  0.00  0.00    -0.332 OA
ATOM      7  C   UNL     1      17.368   9.041  33.446  0.00  0.00    +0.277 C 
ATOM      8  C   UNL     1      17.729   7.624  33.955  0.00  0.00    +0.110 C 
ATOM      9  C   UNL     1      17.664   6.578  32.822  0.00  0.00    +0.143 C 
ATOM     10  C   UNL     1      18.501   7.018  31.620  0.00  0.00    +0.133 C 
BRANCH  10  11
ATOM     11  N   UNL     1      18.361   6.057  30.515  0.00  0.00    -0.308 N 
ATOM     12  H   UNL     1      17.455   5.971  30.076  0.00  0.00    +0.149 HD
ATOM     13  C   UNL     1      19.353   5.289  30.055  0.00  0.00    +0.210 C 
ATOM     14  C   UNL     1      20.714   5.424  30.763  0.00  0.00    +0.109 C 
ATOM     15  O   UNL     1      19.211   4.503  29.118  0.00  0.00    -0.276 OA
ENDBRANCH  10  11
BRANCH   7  16
ATOM     16  C   UNL     1      15.854   9.116  33.159  0.00  0.00    +0.414 C 
ATOM     17  O   UNL     1      15.101   8.233  33.568  0.00  0.00    -0.240 OA
ATOM     18  O   UNL     1      15.386  10.058  32.519  0.00  0.00    -0.240 OA
ENDBRANCH   7  16
BRANCH   9  19
ATOM     19  O   UNL     1      18.148   5.321  33.298  0.00  0.00    -0.390 OA
ATOM     20  H   UNL     1      17.408   4.724  33.435  0.00  0.00    +0.210 HD
ENDBRANCH   9  19
BRANCH   7  21
ATOM     21  O   UNL     1      17.717  10.000  34.477  0.00  0.00    -0.343 OA
ATOM     22  C   UNL     1      17.595   9.509  35.836  0.00  0.00    +0.198 C 
ENDBRANCH   7  21
ENDBRANCH   4   5
BRANCH   4  23
ATOM     23  O   UNL     1      20.233   8.832  30.168  0.00  0.00    -0.387 OA
ATOM     24  H   UNL     1      20.582   8.173  29.564  0.00  0.00    +0.210 HD
ENDBRANCH   4  23
ENDBRANCH   1   4
BRANCH   1  25
ATOM     25  C   UNL     1      18.549  10.726  28.185  0.00  0.00    +0.141 C 
BRANCH  25  28
ATOM     26  C   UNL     1      19.923   9.604  26.464  0.00  0.00    +0.401 C 
ATOM     27  O   UNL     1      20.464  10.645  26.083  0.00  0.00    -0.226 OA
ATOM     28  N   UNL     1      19.012   9.550  27.437  0.00  0.00    -0.279 N 
ATOM     29  H   UNL     1      18.618   8.650  27.672  0.00  0.00    +0.152 HD
BRANCH  26  30
ATOM     30  O   UNL     1      20.275   8.368  25.837  0.00  0.00    -0.444 OA
BRANCH  30  31
ATOM     31  C   UNL     1      19.604   7.290  26.495  0.00  0.00    +0.292 C 
BRANCH  31  33
ATOM     32  N   UNL     1      18.573   6.657  24.340  0.00  0.00    -0.131 NA
ATOM     33  C   UNL     1      19.176   6.280  25.511  0.00  0.00    +0.120 A 
ATOM     34  C   UNL     1      19.287   4.907  25.541  0.00  0.00    +0.137 A 
ATOM     35  N   UNL     1      18.752   4.513  24.352  0.00  0.00    -0.250 N 
ATOM     36  N   UNL     1      18.314   5.564  23.637  0.00  0.00    -0.065 NA
BRANCH  35  37
ATOM     37  C   UNL     1      18.659   3.175  23.805  0.00  0.00    +0.160 C 
BRANCH  37  38
ATOM     38  C   UNL     1      17.765   3.163  22.556  0.00  0.00    +0.107 C 
BRANCH  38  39
ATOM     39  N   UNL     1      17.226   1.841  22.154  0.00  0.00    -0.301 NA
BRANCH  39  40
ATOM     40  C   UNL     1      17.712   1.388  20.838  0.00  0.00    +0.081 C 
ATOM     41  C   UNL     1      16.814   1.689  19.641  0.00  0.00    +0.020 C 
ENDBRANCH  39  40
BRANCH  39  42
ATOM     42  C   UNL     1      17.485   0.872  23.239  0.00  0.00    +0.081 C 
ATOM     43  C   UNL     1      18.067  -0.462  22.783  0.00  0.00    +0.020 C 
ENDBRANCH  39  42
ENDBRANCH  38  39
ENDBRANCH  37  38
ENDBRANCH  35  37
ENDBRANCH  31  33
ENDBRANCH  30  31
ENDBRANCH  26  30
ENDBRANCH  25  28
ENDBRANCH   1  25
TORSDOF 18
