REMARK VINA RESULT:    -6.390     14.258     16.199
REMARK INTER + INTRA:         -12.912
REMARK INTER:                 -10.612
REMARK INTRA:                  -2.300
REMARK UNBOUND:                -1.853
REMARK  Name = lig_assembled_86.pdb
REMARK  17 active torsions:
REMARK  status: ('A' for Active; 'I' for Inactive)
REMARK    1  A    between atoms: _2  and  _10
REMARK    2  A    between atoms: _3  and  _13
REMARK    3  A    between atoms: _5  and  _21
REMARK    4  A    between atoms: _7  and  _8
REMARK    5  A    between atoms: _7  and  _21
REMARK    6  A    between atoms: _17  and  _37
REMARK    7  A    between atoms: _19  and  _25
REMARK    8  A    between atoms: _20  and  _24
REMARK    9  A    between atoms: _24  and  _25
REMARK   10  A    between atoms: _27  and  _28
REMARK   11  A    between atoms: _29  and  _30
REMARK   12  A    between atoms: _31  and  _33
REMARK   13  A    between atoms: _33  and  _34
REMARK   14  A    between atoms: _33  and  _35
REMARK   15  A    between atoms: _35  and  _36
REMARK   16  A    between atoms: _35  and  _37
REMARK   17  A    between atoms: _38  and  _40
REMARK                            x       y       z     vdW  Elec       q    Type
REMARK                         _______ _______ _______ _____ _____    ______ ____
ROOT
ATOM      1  C   UNL     1      18.490  10.515  29.116  0.00  0.00    +0.163 C 
ENDROOT
BRANCH   1   2
ATOM      2  O   UNL     1      17.199  11.094  29.369  0.00  0.00    -0.388 OA
ATOM      3  H   UNL     1      17.305  11.908  29.866  0.00  0.00    +0.210 HD
ENDBRANCH   1   2
BRANCH   1   4
ATOM      4  C   UNL     1      18.649  10.227  27.627  0.00  0.00    +0.141 C 
BRANCH   4   7
ATOM      5  C   UNL     1      19.471   8.117  26.637  0.00  0.00    +0.401 C 
ATOM      6  O   UNL     1      18.395   7.839  26.103  0.00  0.00    -0.226 OA
ATOM      7  N   UNL     1      19.677   9.210  27.373  0.00  0.00    -0.279 N 
ATOM      8  H   UNL     1      20.592   9.345  27.779  0.00  0.00    +0.152 HD
BRANCH   5   9
ATOM      9  O   UNL     1      20.577   7.225  26.476  0.00  0.00    -0.444 OA
BRANCH   9  10
ATOM     10  C   UNL     1      20.885   7.093  25.086  0.00  0.00    +0.292 C 
BRANCH  10  12
ATOM     11  N   UNL     1      21.809   4.974  24.187  0.00  0.00    -0.131 NA
ATOM     12  C   UNL     1      20.740   5.686  24.664  0.00  0.00    +0.120 A 
ATOM     13  C   UNL     1      19.631   4.874  24.672  0.00  0.00    +0.137 A 
ATOM     14  N   UNL     1      20.095   3.675  24.225  0.00  0.00    -0.248 N 
ATOM     15  N   UNL     1      21.399   3.745  23.904  0.00  0.00    -0.065 NA
BRANCH  14  16
ATOM     16  C   UNL     1      19.349   2.433  24.093  0.00  0.00    +0.112 C 
ATOM     17  C   UNL     1      17.928   2.551  24.684  0.00  0.00    +0.045 C 
ATOM     18  C   UNL     1      16.818   1.985  23.794  0.00  0.00    +0.059 C 
ATOM     19  C   UNL     1      16.497   2.937  22.637  0.00  0.00    +0.020 C 
ATOM     20  C   UNL     1      17.358   2.440  21.479  0.00  0.00    +0.020 C 
ATOM     21  C   UNL     1      18.173   1.290  22.074  0.00  0.00    +0.059 C 
ATOM     22  N   UNL     1      17.230   0.783  23.070  0.00  0.00    -0.299 NA
ATOM     23  C   UNL     1      17.678  -0.341  23.870  0.00  0.00    +0.105 C 
ATOM     24  C   UNL     1      19.484   1.797  22.690  0.00  0.00    +0.045 C 
ENDBRANCH  14  16
ENDBRANCH  10  12
ENDBRANCH   9  10
ENDBRANCH   5   9
ENDBRANCH   4   7
ENDBRANCH   1   4
BRANCH   1  25
ATOM     25  C   UNL     1      18.676   9.213  29.914  0.00  0.00    +0.175 C 
BRANCH  25  26
ATOM     26  C   UNL     1      17.909   9.237  31.245  0.00  0.00    +0.176 C 
ATOM     27  O   UNL     1      18.143  10.527  31.873  0.00  0.00    -0.332 OA
ATOM     28  C   UNL     1      17.399  10.773  33.113  0.00  0.00    +0.277 C 
ATOM     29  C   UNL     1      17.660   9.638  34.134  0.00  0.00    +0.110 C 
ATOM     30  C   UNL     1      17.454   8.245  33.502  0.00  0.00    +0.143 C 
ATOM     31  C   UNL     1      18.271   8.099  32.217  0.00  0.00    +0.133 C 
BRANCH  31  32
ATOM     32  N   UNL     1      18.000   6.802  31.579  0.00  0.00    -0.308 N 
ATOM     33  H   UNL     1      17.080   6.651  31.188  0.00  0.00    +0.149 HD
ATOM     34  C   UNL     1      18.889   5.810  31.483  0.00  0.00    +0.210 C 
ATOM     35  C   UNL     1      20.272   6.060  32.112  0.00  0.00    +0.109 C 
ATOM     36  O   UNL     1      18.638   4.738  30.929  0.00  0.00    -0.276 OA
ENDBRANCH  31  32
BRANCH  28  37
ATOM     37  C   UNL     1      15.886  10.876  32.831  0.00  0.00    +0.414 C 
ATOM     38  O   UNL     1      15.475  11.544  31.883  0.00  0.00    -0.240 OA
ATOM     39  O   UNL     1      15.076  10.291  33.552  0.00  0.00    -0.240 OA
ENDBRANCH  28  37
BRANCH  30  40
ATOM     40  O   UNL     1      17.849   7.233  34.428  0.00  0.00    -0.390 OA
ATOM     41  H   UNL     1      17.072   6.762  34.740  0.00  0.00    +0.210 HD
ENDBRANCH  30  40
BRANCH  28  42
ATOM     42  O   UNL     1      17.876  12.019  33.682  0.00  0.00    -0.343 OA
ATOM     43  C   UNL     1      17.614  12.184  35.099  0.00  0.00    +0.198 C 
ENDBRANCH  28  42
ENDBRANCH  25  26
BRANCH  25  44
ATOM     44  O   UNL     1      20.077   8.973  30.153  0.00  0.00    -0.387 OA
ATOM     45  H   UNL     1      20.255   8.031  30.097  0.00  0.00    +0.210 HD
ENDBRANCH  25  44
ENDBRANCH   1  25
TORSDOF 14
