REMARK VINA RESULT:    -5.093      2.632      4.895
REMARK INTER + INTRA:         -12.563
REMARK INTER:                 -11.080
REMARK INTRA:                  -1.483
REMARK UNBOUND:                -3.154
REMARK  Name = lig_assembled_67.pdb
REMARK  18 active torsions:
REMARK  status: ('A' for Active; 'I' for Inactive)
REMARK    1  A    between atoms: _2  and  _9
REMARK    2  A    between atoms: _4  and  _19
REMARK    3  A    between atoms: _6  and  _7
REMARK    4  A    between atoms: _6  and  _19
REMARK    5  A    between atoms: _9  and  _10
REMARK    6  A    between atoms: _10  and  _11
REMARK    7  A    between atoms: _15  and  _35
REMARK    8  A    between atoms: _17  and  _23
REMARK    9  A    between atoms: _18  and  _22
REMARK   10  A    between atoms: _22  and  _23
REMARK   11  A    between atoms: _25  and  _26
REMARK   12  A    between atoms: _27  and  _28
REMARK   13  A    between atoms: _29  and  _31
REMARK   14  A    between atoms: _31  and  _32
REMARK   15  A    between atoms: _31  and  _33
REMARK   16  A    between atoms: _33  and  _34
REMARK   17  A    between atoms: _33  and  _35
REMARK   18  A    between atoms: _36  and  _38
REMARK                            x       y       z     vdW  Elec       q    Type
REMARK                         _______ _______ _______ _____ _____    ______ ____
ROOT
ATOM      1  C   UNL     1       6.217   2.897  33.134  0.00  0.00    +0.163 C 
ENDROOT
BRANCH   1   2
ATOM      2  O   UNL     1       6.177   2.506  31.752  0.00  0.00    -0.388 OA
ATOM      3  H   UNL     1       5.631   3.124  31.260  0.00  0.00    +0.210 HD
ENDBRANCH   1   2
BRANCH   1   4
ATOM      4  C   UNL     1       7.537   3.616  33.464  0.00  0.00    +0.175 C 
BRANCH   4   5
ATOM      5  C   UNL     1       7.546   4.181  34.892  0.00  0.00    +0.176 C 
ATOM      6  O   UNL     1       7.509   5.632  34.799  0.00  0.00    -0.332 OA
ATOM      7  C   UNL     1       7.406   6.346  36.074  0.00  0.00    +0.277 C 
ATOM      8  C   UNL     1       8.543   5.912  37.032  0.00  0.00    +0.110 C 
ATOM      9  C   UNL     1       8.642   4.376  37.138  0.00  0.00    +0.143 C 
ATOM     10  C   UNL     1       8.742   3.735  35.753  0.00  0.00    +0.133 C 
BRANCH  10  11
ATOM     11  N   UNL     1       8.748   2.268  35.864  0.00  0.00    -0.308 N 
ATOM     12  H   UNL     1       7.914   1.818  36.214  0.00  0.00    +0.149 HD
ATOM     13  C   UNL     1       9.784   1.492  35.532  0.00  0.00    +0.210 C 
ATOM     14  C   UNL     1      11.050   2.211  35.027  0.00  0.00    +0.109 C 
ATOM     15  O   UNL     1       9.756   0.264  35.621  0.00  0.00    -0.276 OA
ENDBRANCH  10  11
BRANCH   7  16
ATOM     16  C   UNL     1       6.041   6.080  36.742  0.00  0.00    +0.414 C 
ATOM     17  O   UNL     1       5.005   6.142  36.081  0.00  0.00    -0.240 OA
ATOM     18  O   UNL     1       5.975   5.803  37.940  0.00  0.00    -0.240 OA
ENDBRANCH   7  16
BRANCH   9  19
ATOM     19  O   UNL     1       9.792   4.019  37.906  0.00  0.00    -0.390 OA
ATOM     20  H   UNL     1      10.521   4.603  37.682  0.00  0.00    +0.210 HD
ENDBRANCH   9  19
BRANCH   7  21
ATOM     21  O   UNL     1       7.550   7.765  35.807  0.00  0.00    -0.343 OA
ATOM     22  C   UNL     1       7.495   8.133  34.406  0.00  0.00    +0.198 C 
ENDBRANCH   7  21
ENDBRANCH   4   5
BRANCH   4  23
ATOM     23  O   UNL     1       7.780   4.670  32.511  0.00  0.00    -0.387 OA
ATOM     24  H   UNL     1       8.689   4.623  32.206  0.00  0.00    +0.210 HD
ENDBRANCH   4  23
ENDBRANCH   1   4
BRANCH   1  25
ATOM     25  C   UNL     1       5.043   3.818  33.450  0.00  0.00    +0.141 C 
BRANCH  25  28
ATOM     26  C   UNL     1       2.685   3.718  32.721  0.00  0.00    +0.401 C 
ATOM     27  O   UNL     1       2.230   3.773  33.866  0.00  0.00    -0.226 OA
ATOM     28  N   UNL     1       3.987   3.727  32.435  0.00  0.00    -0.279 N 
ATOM     29  H   UNL     1       4.263   3.668  31.464  0.00  0.00    +0.152 HD
BRANCH  26  30
ATOM     30  O   UNL     1       1.779   3.634  31.617  0.00  0.00    -0.444 OA
BRANCH  30  31
ATOM     31  C   UNL     1       2.402   2.927  30.541  0.00  0.00    +0.292 C 
BRANCH  31  33
ATOM     32  N   UNL     1       0.448   3.695  29.230  0.00  0.00    -0.131 NA
ATOM     33  C   UNL     1       1.747   3.256  29.261  0.00  0.00    +0.120 A 
ATOM     34  C   UNL     1       2.233   3.202  27.974  0.00  0.00    +0.137 A 
ATOM     35  N   UNL     1       1.185   3.615  27.209  0.00  0.00    -0.251 N 
ATOM     36  N   UNL     1       0.114   3.908  27.965  0.00  0.00    -0.065 NA
BRANCH  35  37
ATOM     37  C   UNL     1       1.131   3.768  25.773  0.00  0.00    +0.150 C 
BRANCH  37  38
ATOM     38  C   UNL     1       2.347   3.194  25.050  0.00  0.00    +0.084 C 
BRANCH  38  39
ATOM     39  C   UNL     1       2.084   1.811  24.474  0.00  0.00    +0.252 C 
ATOM     40  O   UNL     1       0.691   1.494  24.567  0.00  0.00    -0.349 OA
ATOM     41  C   UNL     1       0.481   0.620  23.460  0.00  0.00    +0.191 C 
ATOM     42  C   UNL     1       1.384   1.188  22.395  0.00  0.00    +0.191 C 
ATOM     43  O   UNL     1       2.487   1.756  23.102  0.00  0.00    -0.349 OA
ENDBRANCH  38  39
ENDBRANCH  37  38
ENDBRANCH  35  37
ENDBRANCH  31  33
ENDBRANCH  30  31
ENDBRANCH  26  30
ENDBRANCH  25  28
ENDBRANCH   1  25
TORSDOF 16
