REMARK VINA RESULT:    -5.185     16.364     19.843
REMARK INTER + INTRA:         -13.343
REMARK INTER:                  -9.731
REMARK INTRA:                  -3.612
REMARK UNBOUND:                -3.914
REMARK  Name = lig_assembled_73.pdb
REMARK  18 active torsions:
REMARK  status: ('A' for Active; 'I' for Inactive)
REMARK    1  A    between atoms: _2  and  _10
REMARK    2  A    between atoms: _3  and  _14
REMARK    3  A    between atoms: _5  and  _22
REMARK    4  A    between atoms: _7  and  _8
REMARK    5  A    between atoms: _7  and  _22
REMARK    6  A    between atoms: _13  and  _16
REMARK    7  A    between atoms: _18  and  _38
REMARK    8  A    between atoms: _20  and  _26
REMARK    9  A    between atoms: _21  and  _25
REMARK   10  A    between atoms: _25  and  _26
REMARK   11  A    between atoms: _28  and  _29
REMARK   12  A    between atoms: _30  and  _31
REMARK   13  A    between atoms: _32  and  _34
REMARK   14  A    between atoms: _34  and  _35
REMARK   15  A    between atoms: _34  and  _36
REMARK   16  A    between atoms: _36  and  _37
REMARK   17  A    between atoms: _36  and  _38
REMARK   18  A    between atoms: _39  and  _41
REMARK                            x       y       z     vdW  Elec       q    Type
REMARK                         _______ _______ _______ _____ _____    ______ ____
ROOT
ATOM      1  C   UNL     1      -5.969  17.512  22.897  0.00  0.00    +0.163 C 
ENDROOT
BRANCH   1   2
ATOM      2  O   UNL     1      -6.214  17.814  24.280  0.00  0.00    -0.388 OA
ATOM      3  H   UNL     1      -5.758  17.175  24.833  0.00  0.00    +0.210 HD
ENDBRANCH   1   2
BRANCH   1   4
ATOM      4  C   UNL     1      -4.567  17.979  22.471  0.00  0.00    +0.175 C 
BRANCH   4   5
ATOM      5  C   UNL     1      -4.234  19.376  23.015  0.00  0.00    +0.176 C 
ATOM      6  O   UNL     1      -5.383  20.235  22.777  0.00  0.00    -0.332 OA
ATOM      7  C   UNL     1      -5.287  21.590  23.328  0.00  0.00    +0.277 C 
ATOM      8  C   UNL     1      -4.000  22.288  22.825  0.00  0.00    +0.110 C 
ATOM      9  C   UNL     1      -2.754  21.400  23.028  0.00  0.00    +0.143 C 
ATOM     10  C   UNL     1      -2.964  20.013  22.420  0.00  0.00    +0.133 C 
BRANCH  10  11
ATOM     11  N   UNL     1      -1.805  19.149  22.695  0.00  0.00    -0.308 N 
ATOM     12  H   UNL     1      -1.626  18.893  23.656  0.00  0.00    +0.149 HD
ATOM     13  C   UNL     1      -0.975  18.682  21.759  0.00  0.00    +0.210 C 
ATOM     14  C   UNL     1      -1.261  19.112  20.308  0.00  0.00    +0.109 C 
ATOM     15  O   UNL     1      -0.021  17.947  22.017  0.00  0.00    -0.276 OA
ENDBRANCH  10  11
BRANCH   7  16
ATOM     16  C   UNL     1      -5.286  21.555  24.870  0.00  0.00    +0.414 C 
ATOM     17  O   UNL     1      -5.648  20.542  25.468  0.00  0.00    -0.240 OA
ATOM     18  O   UNL     1      -4.924  22.538  25.517  0.00  0.00    -0.240 OA
ENDBRANCH   7  16
BRANCH   9  19
ATOM     19  O   UNL     1      -1.619  22.016  22.417  0.00  0.00    -0.390 OA
ATOM     20  H   UNL     1      -0.819  21.569  22.703  0.00  0.00    +0.210 HD
ENDBRANCH   9  19
BRANCH   7  21
ATOM     21  O   UNL     1      -6.432  22.347  22.857  0.00  0.00    -0.343 OA
ATOM     22  C   UNL     1      -7.651  21.579  22.697  0.00  0.00    +0.198 C 
ENDBRANCH   7  21
ENDBRANCH   4   5
BRANCH   4  23
ATOM     23  O   UNL     1      -4.453  17.965  21.034  0.00  0.00    -0.387 OA
ATOM     24  H   UNL     1      -4.467  17.058  20.721  0.00  0.00    +0.210 HD
ENDBRANCH   4  23
ENDBRANCH   1   4
BRANCH   1  25
ATOM     25  C   UNL     1      -6.100  16.011  22.659  0.00  0.00    +0.141 C 
BRANCH  25  28
ATOM     26  C   UNL     1      -7.200  14.495  24.271  0.00  0.00    +0.401 C 
ATOM     27  O   UNL     1      -8.212  14.344  23.582  0.00  0.00    -0.226 OA
ATOM     28  N   UNL     1      -6.167  15.261  23.920  0.00  0.00    -0.279 N 
ATOM     29  H   UNL     1      -5.385  15.330  24.557  0.00  0.00    +0.152 HD
BRANCH  26  30
ATOM     30  O   UNL     1      -7.109  13.821  25.529  0.00  0.00    -0.444 OA
BRANCH  30  31
ATOM     31  C   UNL     1      -8.032  14.404  26.452  0.00  0.00    +0.292 C 
BRANCH  31  33
ATOM     32  N   UNL     1      -7.888  16.874  26.390  0.00  0.00    -0.131 NA
ATOM     33  C   UNL     1      -7.512  15.690  26.954  0.00  0.00    +0.121 A 
ATOM     34  C   UNL     1      -6.637  15.941  27.985  0.00  0.00    +0.143 A 
ATOM     35  N   UNL     1      -6.512  17.310  28.019  0.00  0.00    -0.220 N 
ATOM     36  N   UNL     1      -7.277  17.853  27.042  0.00  0.00    -0.060 NA
BRANCH  35  37
ATOM     37  C   UNL     1      -5.730  18.111  28.892  0.00  0.00    +0.074 A 
ATOM     38  C   UNL     1      -5.488  17.678  30.208  0.00  0.00    +0.032 A 
ATOM     39  C   UNL     1      -4.727  18.457  31.090  0.00  0.00    +0.054 A 
ATOM     40  C   UNL     1      -4.203  19.677  30.668  0.00  0.00    +0.195 A 
ATOM     41  C   UNL     1      -4.445  20.100  29.362  0.00  0.00    +0.316 A 
ATOM     42  C   UNL     1      -5.197  19.332  28.462  0.00  0.00    +0.116 A 
BRANCH  41  43
ATOM     43  N   UNL     1      -3.921  21.369  28.895  0.00  0.00    +0.083 N 
ATOM     44  O   UNL     1      -3.035  21.340  28.030  0.00  0.00    +0.042 OA
ATOM     45  O   UNL     1      -4.339  22.386  29.467  0.00  0.00    -0.576 OA
ENDBRANCH  41  43
BRANCH  40  46
ATOM     46  O   UNL     1      -3.445  20.423  31.519  0.00  0.00    -0.501 OA
ATOM     47  H   UNL     1      -3.644  21.368  31.402  0.00  0.00    +0.292 HD
ENDBRANCH  40  46
ENDBRANCH  35  37
ENDBRANCH  31  33
ENDBRANCH  30  31
ENDBRANCH  26  30
ENDBRANCH  25  28
ENDBRANCH   1  25
TORSDOF 16
