REMARK VINA RESULT:    -6.621      1.931      3.948
REMARK INTER + INTRA:         -13.660
REMARK INTER:                 -11.918
REMARK INTRA:                  -1.742
REMARK UNBOUND:                -1.813
REMARK  Name = lig_assembled_41.pdb
REMARK  18 active torsions:
REMARK  status: ('A' for Active; 'I' for Inactive)
REMARK    1  A    between atoms: _2  and  _9
REMARK    2  A    between atoms: _4  and  _21
REMARK    3  A    between atoms: _6  and  _7
REMARK    4  A    between atoms: _6  and  _21
REMARK    5  A    between atoms: _10  and  _11
REMARK    6  A    between atoms: _11  and  _12
REMARK    7  A    between atoms: _17  and  _37
REMARK    8  A    between atoms: _19  and  _25
REMARK    9  A    between atoms: _20  and  _24
REMARK   10  A    between atoms: _24  and  _25
REMARK   11  A    between atoms: _27  and  _28
REMARK   12  A    between atoms: _29  and  _30
REMARK   13  A    between atoms: _31  and  _33
REMARK   14  A    between atoms: _33  and  _34
REMARK   15  A    between atoms: _33  and  _35
REMARK   16  A    between atoms: _35  and  _36
REMARK   17  A    between atoms: _35  and  _37
REMARK   18  A    between atoms: _38  and  _40
REMARK                            x       y       z     vdW  Elec       q    Type
REMARK                         _______ _______ _______ _____ _____    ______ ____
ROOT
ATOM      1  C   UNL     1       6.020   3.049  33.911  0.00  0.00    +0.163 C 
ENDROOT
BRANCH   1   2
ATOM      2  O   UNL     1       5.761   1.669  33.604  0.00  0.00    -0.388 OA
ATOM      3  H   UNL     1       5.049   1.612  32.962  0.00  0.00    +0.210 HD
ENDBRANCH   1   2
BRANCH   1   4
ATOM      4  C   UNL     1       5.008   3.941  33.199  0.00  0.00    +0.141 C 
BRANCH   4   7
ATOM      5  C   UNL     1       3.248   3.443  31.538  0.00  0.00    +0.401 C 
ATOM      6  O   UNL     1       2.374   4.074  32.136  0.00  0.00    -0.226 OA
ATOM      7  N   UNL     1       4.506   3.322  31.966  0.00  0.00    -0.279 N 
ATOM      8  H   UNL     1       5.148   2.775  31.411  0.00  0.00    +0.152 HD
BRANCH   5   9
ATOM      9  O   UNL     1       2.916   2.787  30.311  0.00  0.00    -0.444 OA
BRANCH   9  10
ATOM     10  C   UNL     1       1.502   2.844  30.108  0.00  0.00    +0.292 C 
BRANCH  10  12
ATOM     11  N   UNL     1       0.045   3.919  28.433  0.00  0.00    -0.131 NA
ATOM     12  C   UNL     1       1.198   3.255  28.725  0.00  0.00    +0.121 A 
ATOM     13  C   UNL     1       1.931   3.098  27.569  0.00  0.00    +0.143 A 
ATOM     14  N   UNL     1       1.130   3.592  26.566  0.00  0.00    -0.219 N 
ATOM     15  N   UNL     1       0.034   4.169  27.133  0.00  0.00    -0.060 NA
BRANCH  14  16
ATOM     16  C   UNL     1       1.342   3.671  25.160  0.00  0.00    +0.077 A 
ATOM     17  C   UNL     1       1.689   2.579  24.336  0.00  0.00    +0.043 A 
ATOM     18  C   UNL     1       1.919   2.811  22.963  0.00  0.00    +0.013 A 
ATOM     19  C   UNL     1       1.818   4.092  22.416  0.00  0.00    +0.001 A 
ATOM     20  C   UNL     1       1.453   5.161  23.221  0.00  0.00    +0.002 A 
ATOM     21  C   UNL     1       1.206   4.952  24.576  0.00  0.00    +0.028 A 
BRANCH  17  22
ATOM     22  C   UNL     1       1.626   1.152  24.775  0.00  0.00    +0.162 C 
ATOM     23  O   UNL     1       0.533   0.641  25.007  0.00  0.00    -0.292 OA
ATOM     24  C   UNL     1       2.894   0.347  24.929  0.00  0.00    +0.091 C 
ENDBRANCH  17  22
ENDBRANCH  14  16
ENDBRANCH  10  12
ENDBRANCH   9  10
ENDBRANCH   5   9
ENDBRANCH   4   7
ENDBRANCH   1   4
BRANCH   1  25
ATOM     25  C   UNL     1       7.444   3.448  33.488  0.00  0.00    +0.175 C 
BRANCH  25  26
ATOM     26  C   UNL     1       8.367   3.663  34.697  0.00  0.00    +0.176 C 
ATOM     27  O   UNL     1       8.666   2.360  35.269  0.00  0.00    -0.332 OA
ATOM     28  C   UNL     1       9.626   2.358  36.376  0.00  0.00    +0.277 C 
ATOM     29  C   UNL     1       9.165   3.326  37.493  0.00  0.00    +0.110 C 
ATOM     30  C   UNL     1       8.806   4.717  36.929  0.00  0.00    +0.143 C 
ATOM     31  C   UNL     1       7.803   4.601  35.780  0.00  0.00    +0.133 C 
BRANCH  31  32
ATOM     32  N   UNL     1       7.536   5.924  35.194  0.00  0.00    -0.308 N 
ATOM     33  H   UNL     1       8.263   6.348  34.635  0.00  0.00    +0.149 HD
ATOM     34  C   UNL     1       6.395   6.600  35.351  0.00  0.00    +0.210 C 
ATOM     35  C   UNL     1       5.316   5.938  36.229  0.00  0.00    +0.109 C 
ATOM     36  O   UNL     1       6.193   7.700  34.836  0.00  0.00    -0.276 OA
ENDBRANCH  31  32
BRANCH  28  37
ATOM     37  C   UNL     1      11.029   2.769  35.885  0.00  0.00    +0.414 C 
ATOM     38  O   UNL     1      11.842   3.258  36.668  0.00  0.00    -0.240 OA
ATOM     39  O   UNL     1      11.348   2.611  34.706  0.00  0.00    -0.240 OA
ENDBRANCH  28  37
BRANCH  30  40
ATOM     40  O   UNL     1       8.245   5.527  37.963  0.00  0.00    -0.390 OA
ATOM     41  H   UNL     1       7.366   5.206  38.180  0.00  0.00    +0.210 HD
ENDBRANCH  30  40
BRANCH  28  42
ATOM     42  O   UNL     1       9.674   1.016  36.926  0.00  0.00    -0.343 OA
ATOM     43  C   UNL     1       9.718  -0.048  35.942  0.00  0.00    +0.198 C 
ENDBRANCH  28  42
ENDBRANCH  25  26
BRANCH  25  44
ATOM     44  O   UNL     1       7.406   4.638  32.675  0.00  0.00    -0.387 OA
ATOM     45  H   UNL     1       7.198   5.396  33.226  0.00  0.00    +0.210 HD
ENDBRANCH  25  44
ENDBRANCH   1  25
TORSDOF 15
