REMARK VINA RESULT:    -6.669      1.296      3.661
REMARK INTER + INTRA:         -14.469
REMARK INTER:                 -12.661
REMARK INTRA:                  -1.808
REMARK UNBOUND:                -2.536
REMARK  Name = lig_assembled_44.pdb
REMARK  17 active torsions:
REMARK  status: ('A' for Active; 'I' for Inactive)
REMARK    1  A    between atoms: _2  and  _9
REMARK    2  A    between atoms: _4  and  _19
REMARK    3  A    between atoms: _6  and  _7
REMARK    4  A    between atoms: _6  and  _19
REMARK    5  A    between atoms: _9  and  _10
REMARK    6  A    between atoms: _15  and  _35
REMARK    7  A    between atoms: _17  and  _23
REMARK    8  A    between atoms: _18  and  _22
REMARK    9  A    between atoms: _22  and  _23
REMARK   10  A    between atoms: _25  and  _26
REMARK   11  A    between atoms: _27  and  _28
REMARK   12  A    between atoms: _29  and  _31
REMARK   13  A    between atoms: _31  and  _32
REMARK   14  A    between atoms: _31  and  _33
REMARK   15  A    between atoms: _33  and  _34
REMARK   16  A    between atoms: _33  and  _35
REMARK   17  A    between atoms: _36  and  _38
REMARK                            x       y       z     vdW  Elec       q    Type
REMARK                         _______ _______ _______ _____ _____    ______ ____
ROOT
ATOM      1  C   UNL     1       3.097   2.797  32.604  0.00  0.00    +0.163 C 
ENDROOT
BRANCH   1   2
ATOM      2  O   UNL     1       3.851   2.100  31.599  0.00  0.00    -0.388 OA
ATOM      3  H   UNL     1       4.766   2.391  31.626  0.00  0.00    +0.210 HD
ENDBRANCH   1   2
BRANCH   1   4
ATOM      4  C   UNL     1       1.897   3.492  31.968  0.00  0.00    +0.141 C 
BRANCH   4   7
ATOM      5  C   UNL     1       1.365   3.311  29.562  0.00  0.00    +0.401 C 
ATOM      6  O   UNL     1       0.399   2.564  29.736  0.00  0.00    -0.226 OA
ATOM      7  N   UNL     1       2.125   3.787  30.549  0.00  0.00    -0.279 N 
ATOM      8  H   UNL     1       2.902   4.385  30.305  0.00  0.00    +0.152 HD
BRANCH   5   9
ATOM      9  O   UNL     1       1.712   3.699  28.230  0.00  0.00    -0.444 OA
BRANCH   9  10
ATOM     10  C   UNL     1       0.706   3.243  27.322  0.00  0.00    +0.292 C 
BRANCH  10  12
ATOM     11  N   UNL     1      -0.253   5.003  25.865  0.00  0.00    -0.131 NA
ATOM     12  C   UNL     1       0.713   4.060  26.094  0.00  0.00    +0.120 A 
ATOM     13  C   UNL     1       1.601   4.061  25.044  0.00  0.00    +0.137 A 
ATOM     14  N   UNL     1       1.166   5.080  24.248  0.00  0.00    -0.247 N 
ATOM     15  N   UNL     1       0.028   5.618  24.723  0.00  0.00    -0.065 NA
BRANCH  14  16
ATOM     16  C   UNL     1       1.773   5.594  23.036  0.00  0.00    +0.180 C 
BRANCH  16  17
ATOM     17  C   UNL     1       1.252   4.881  21.811  0.00  0.00    -0.026 A 
ATOM     18  C   UNL     1       2.007   3.871  21.195  0.00  0.00    +0.006 A 
ATOM     19  C   UNL     1       1.530   3.225  20.053  0.00  0.00    +0.015 A 
ATOM     20  C   UNL     1       0.294   3.586  19.519  0.00  0.00    +0.018 A 
ATOM     21 BR   UNL     1      -0.358   2.697  17.983  0.00  0.00    -0.050 Br
ATOM     22  C   UNL     1      -0.463   4.594  20.109  0.00  0.00    +0.015 A 
ATOM     23  C   UNL     1       0.017   5.245  21.250  0.00  0.00    +0.006 A 
ENDBRANCH  16  17
ENDBRANCH  14  16
ENDBRANCH  10  12
ENDBRANCH   9  10
ENDBRANCH   5   9
ENDBRANCH   4   7
ENDBRANCH   1   4
BRANCH   1  24
ATOM     24  C   UNL     1       3.971   3.838  33.325  0.00  0.00    +0.175 C 
BRANCH  24  25
ATOM     25  C   UNL     1       5.391   3.317  33.588  0.00  0.00    +0.176 C 
ATOM     26  O   UNL     1       5.284   1.948  34.068  0.00  0.00    -0.332 OA
ATOM     27  C   UNL     1       6.555   1.247  34.273  0.00  0.00    +0.277 C 
ATOM     28  C   UNL     1       7.475   2.060  35.215  0.00  0.00    +0.110 C 
ATOM     29  C   UNL     1       7.595   3.531  34.764  0.00  0.00    +0.143 C 
ATOM     30  C   UNL     1       6.215   4.162  34.578  0.00  0.00    +0.133 C 
BRANCH  30  31
ATOM     31  N   UNL     1       6.341   5.535  34.065  0.00  0.00    -0.308 N 
ATOM     32  H   UNL     1       6.656   5.656  33.112  0.00  0.00    +0.149 HD
ATOM     33  C   UNL     1       6.066   6.633  34.775  0.00  0.00    +0.210 C 
ATOM     34  C   UNL     1       5.613   6.416  36.231  0.00  0.00    +0.109 C 
ATOM     35  O   UNL     1       6.166   7.770  34.314  0.00  0.00    -0.276 OA
ENDBRANCH  30  31
BRANCH  27  36
ATOM     36  C   UNL     1       7.273   1.010  32.928  0.00  0.00    +0.414 C 
ATOM     37  O   UNL     1       8.497   1.114  32.852  0.00  0.00    -0.240 OA
ATOM     38  O   UNL     1       6.629   0.717  31.920  0.00  0.00    -0.240 OA
ENDBRANCH  27  36
BRANCH  27  39
ATOM     39  O   UNL     1       6.267  -0.028  34.904  0.00  0.00    -0.343 OA
ATOM     40  C   UNL     1       7.408  -0.677  35.521  0.00  0.00    +0.198 C 
ENDBRANCH  27  39
BRANCH  29  41
ATOM     41  O   UNL     1       8.325   4.277  35.739  0.00  0.00    -0.390 OA
ATOM     42  H   UNL     1       7.727   4.863  36.209  0.00  0.00    +0.210 HD
ENDBRANCH  29  41
ENDBRANCH  24  25
BRANCH  24  43
ATOM     43  O   UNL     1       3.350   4.235  34.564  0.00  0.00    -0.387 OA
ATOM     44  H   UNL     1       2.822   5.024  34.419  0.00  0.00    +0.210 HD
ENDBRANCH  24  43
ENDBRANCH   1  24
TORSDOF 15
