REMARK VINA RESULT:    -6.274      7.766     12.904
REMARK INTER + INTRA:         -12.890
REMARK INTER:                 -11.118
REMARK INTRA:                  -1.771
REMARK UNBOUND:                -2.031
REMARK  Name = lig_assembled_42.pdb
REMARK  16 active torsions:
REMARK  status: ('A' for Active; 'I' for Inactive)
REMARK    1  A    between atoms: _2  and  _9
REMARK    2  A    between atoms: _4  and  _21
REMARK    3  A    between atoms: _6  and  _7
REMARK    4  A    between atoms: _6  and  _21
REMARK    5  A    between atoms: _17  and  _37
REMARK    6  A    between atoms: _19  and  _25
REMARK    7  A    between atoms: _20  and  _24
REMARK    8  A    between atoms: _24  and  _25
REMARK    9  A    between atoms: _27  and  _28
REMARK   10  A    between atoms: _29  and  _30
REMARK   11  A    between atoms: _31  and  _33
REMARK   12  A    between atoms: _33  and  _34
REMARK   13  A    between atoms: _33  and  _35
REMARK   14  A    between atoms: _35  and  _36
REMARK   15  A    between atoms: _35  and  _37
REMARK   16  A    between atoms: _38  and  _40
REMARK                            x       y       z     vdW  Elec       q    Type
REMARK                         _______ _______ _______ _____ _____    ______ ____
ROOT
ATOM      1  C   UNL     1       9.023   5.278  38.267  0.00  0.00    +0.163 C 
ENDROOT
BRANCH   1   2
ATOM      2  O   UNL     1       8.775   6.570  37.688  0.00  0.00    -0.388 OA
ATOM      3  H   UNL     1       9.020   7.255  38.315  0.00  0.00    +0.210 HD
ENDBRANCH   1   2
BRANCH   1   4
ATOM      4  C   UNL     1      10.480   5.173  38.705  0.00  0.00    +0.141 C 
BRANCH   4   7
ATOM      5  C   UNL     1      12.214   4.021  37.373  0.00  0.00    +0.401 C 
ATOM      6  O   UNL     1      12.309   3.067  38.149  0.00  0.00    -0.226 OA
ATOM      7  N   UNL     1      11.389   5.053  37.558  0.00  0.00    -0.279 N 
ATOM      8  H   UNL     1      11.389   5.793  36.871  0.00  0.00    +0.152 HD
BRANCH   5   9
ATOM      9  O   UNL     1      13.030   4.047  36.200  0.00  0.00    -0.444 OA
BRANCH   9  10
ATOM     10  C   UNL     1      14.326   4.555  36.530  0.00  0.00    +0.292 C 
BRANCH  10  12
ATOM     11  N   UNL     1      14.753   5.052  34.137  0.00  0.00    -0.131 NA
ATOM     12  C   UNL     1      14.834   5.419  35.448  0.00  0.00    +0.121 A 
ATOM     13  C   UNL     1      15.437   6.651  35.531  0.00  0.00    +0.143 A 
ATOM     14  N   UNL     1      15.711   7.006  34.232  0.00  0.00    -0.220 N 
ATOM     15  N   UNL     1      15.287   6.020  33.401  0.00  0.00    -0.060 NA
BRANCH  14  16
ATOM     16  C   UNL     1      16.334   8.187  33.756  0.00  0.00    +0.071 A 
ATOM     17  C   UNL     1      16.387   9.329  34.569  0.00  0.00    +0.077 A 
ATOM     18  C   UNL     1      17.004  10.452  34.062  0.00  0.00    +0.168 A 
ATOM     19  O   UNL     1      17.142  11.633  34.719  0.00  0.00    -0.453 OA
ATOM     20  C   UNL     1      17.852  12.409  33.732  0.00  0.00    +0.466 C 
ATOM     21  O   UNL     1      18.113  11.682  32.511  0.00  0.00    -0.453 OA
ATOM     22  C   UNL     1      17.557  10.477  32.805  0.00  0.00    +0.166 A 
ATOM     23  C   UNL     1      17.522   9.375  31.977  0.00  0.00    +0.051 A 
ATOM     24  C   UNL     1      16.903   8.213  32.460  0.00  0.00    +0.031 A 
ENDBRANCH  14  16
ENDBRANCH  10  12
ENDBRANCH   9  10
ENDBRANCH   5   9
ENDBRANCH   4   7
ENDBRANCH   1   4
BRANCH   1  25
ATOM     25  C   UNL     1       8.705   4.155  37.265  0.00  0.00    +0.175 C 
BRANCH  25  26
ATOM     26  C   UNL     1       8.094   4.698  35.964  0.00  0.00    +0.176 C 
ATOM     27  O   UNL     1       6.717   5.075  36.240  0.00  0.00    -0.332 OA
ATOM     28  C   UNL     1       6.002   5.716  35.133  0.00  0.00    +0.277 C 
ATOM     29  C   UNL     1       6.057   4.828  33.866  0.00  0.00    +0.110 C 
ATOM     30  C   UNL     1       7.498   4.375  33.551  0.00  0.00    +0.143 C 
ATOM     31  C   UNL     1       8.149   3.725  34.772  0.00  0.00    +0.133 C 
BRANCH  31  32
ATOM     32  N   UNL     1       9.550   3.377  34.485  0.00  0.00    -0.308 N 
ATOM     33  H   UNL     1      10.157   4.108  34.143  0.00  0.00    +0.149 HD
ATOM     34  C   UNL     1      10.071   2.158  34.648  0.00  0.00    +0.210 C 
ATOM     35  C   UNL     1       9.113   1.059  35.146  0.00  0.00    +0.109 C 
ATOM     36  O   UNL     1      11.252   1.899  34.414  0.00  0.00    -0.276 OA
ENDBRANCH  31  32
BRANCH  28  37
ATOM     37  C   UNL     1       6.607   7.100  34.819  0.00  0.00    +0.414 C 
ATOM     38  O   UNL     1       7.787   7.334  35.078  0.00  0.00    -0.240 OA
ATOM     39  O   UNL     1       5.916   7.982  34.307  0.00  0.00    -0.240 OA
ENDBRANCH  28  37
BRANCH  30  40
ATOM     40  O   UNL     1       7.484   3.440  32.471  0.00  0.00    -0.390 OA
ATOM     41  H   UNL     1       6.852   3.726  31.808  0.00  0.00    +0.210 HD
ENDBRANCH  30  40
BRANCH  28  42
ATOM     42  O   UNL     1       4.613   5.868  35.525  0.00  0.00    -0.343 OA
ATOM     43  C   UNL     1       3.854   4.634  35.583  0.00  0.00    +0.198 C 
ENDBRANCH  28  42
ENDBRANCH  25  26
BRANCH  25  44
ATOM     44  O   UNL     1       7.819   3.190  37.865  0.00  0.00    -0.387 OA
ATOM     45  H   UNL     1       7.870   3.259  38.821  0.00  0.00    +0.210 HD
ENDBRANCH  25  44
ENDBRANCH   1  25
TORSDOF 14
