REMARK VINA RESULT:    -6.533      1.924      2.562
REMARK INTER + INTRA:         -13.623
REMARK INTER:                 -11.839
REMARK INTRA:                  -1.784
REMARK UNBOUND:                -1.933
REMARK  Name = lig_assembled_39.pdb
REMARK  17 active torsions:
REMARK  status: ('A' for Active; 'I' for Inactive)
REMARK    1  A    between atoms: _2  and  _9
REMARK    2  A    between atoms: _4  and  _19
REMARK    3  A    between atoms: _6  and  _7
REMARK    4  A    between atoms: _6  and  _19
REMARK    5  A    between atoms: _9  and  _10
REMARK    6  A    between atoms: _15  and  _35
REMARK    7  A    between atoms: _17  and  _23
REMARK    8  A    between atoms: _18  and  _22
REMARK    9  A    between atoms: _22  and  _23
REMARK   10  A    between atoms: _25  and  _26
REMARK   11  A    between atoms: _27  and  _28
REMARK   12  A    between atoms: _29  and  _31
REMARK   13  A    between atoms: _31  and  _32
REMARK   14  A    between atoms: _31  and  _33
REMARK   15  A    between atoms: _33  and  _34
REMARK   16  A    between atoms: _33  and  _35
REMARK   17  A    between atoms: _36  and  _38
REMARK                            x       y       z     vdW  Elec       q    Type
REMARK                         _______ _______ _______ _____ _____    ______ ____
ROOT
ATOM      1  C   UNL     1      18.873  10.086  29.064  0.00  0.00    +0.163 C 
ENDROOT
BRANCH   1   2
ATOM      2  O   UNL     1      17.587  10.704  29.238  0.00  0.00    -0.388 OA
ATOM      3  H   UNL     1      16.930  10.229  28.724  0.00  0.00    +0.210 HD
ENDBRANCH   1   2
BRANCH   1   4
ATOM      4  C   UNL     1      19.157   9.885  27.579  0.00  0.00    +0.141 C 
BRANCH   4   7
ATOM      5  C   UNL     1      19.651   7.915  26.170  0.00  0.00    +0.401 C 
ATOM      6  O   UNL     1      20.479   8.505  25.472  0.00  0.00    -0.226 OA
ATOM      7  N   UNL     1      18.981   8.485  27.173  0.00  0.00    -0.279 N 
ATOM      8  H   UNL     1      18.315   7.921  27.682  0.00  0.00    +0.152 HD
BRANCH   5   9
ATOM      9  O   UNL     1      19.373   6.538  25.905  0.00  0.00    -0.444 OA
BRANCH   9  10
ATOM     10  C   UNL     1      19.772   6.219  24.569  0.00  0.00    +0.292 C 
BRANCH  10  12
ATOM     11  N   UNL     1      17.754   6.374  23.143  0.00  0.00    -0.131 NA
ATOM     12  C   UNL     1      18.654   5.603  23.831  0.00  0.00    +0.120 A 
ATOM     13  C   UNL     1      18.325   4.275  23.673  0.00  0.00    +0.137 A 
ATOM     14  N   UNL     1      17.267   4.303  22.813  0.00  0.00    -0.247 N 
ATOM     15  N   UNL     1      16.889   5.567  22.546  0.00  0.00    -0.065 NA
BRANCH  14  16
ATOM     16  C   UNL     1      16.617   3.178  22.156  0.00  0.00    +0.181 C 
BRANCH  16  17
ATOM     17  C   UNL     1      17.429   1.896  22.221  0.00  0.00    -0.012 A 
ATOM     18  C   UNL     1      18.186   1.459  21.116  0.00  0.00    +0.006 A 
ATOM     19  C   UNL     1      18.933   0.279  21.160  0.00  0.00    +0.000 A 
ATOM     20  C   UNL     1      18.923  -0.507  22.305  0.00  0.00    +0.001 A 
ATOM     21  C   UNL     1      18.149  -0.123  23.398  0.00  0.00    +0.015 A 
ATOM     22  C   UNL     1      17.399   1.061  23.355  0.00  0.00    +0.023 A 
ATOM     23 BR   UNL     1      16.337   1.452  24.883  0.00  0.00    -0.050 Br
ENDBRANCH  16  17
ENDBRANCH  14  16
ENDBRANCH  10  12
ENDBRANCH   9  10
ENDBRANCH   5   9
ENDBRANCH   4   7
ENDBRANCH   1   4
BRANCH   1  24
ATOM     24  C   UNL     1      18.934   8.730  29.787  0.00  0.00    +0.175 C 
BRANCH  24  25
ATOM     25  C   UNL     1      18.184   8.756  31.128  0.00  0.00    +0.176 C 
ATOM     26  O   UNL     1      18.527   9.994  31.808  0.00  0.00    -0.332 OA
ATOM     27  C   UNL     1      17.818  10.244  33.067  0.00  0.00    +0.277 C 
ATOM     28  C   UNL     1      17.997   9.048  34.034  0.00  0.00    +0.110 C 
ATOM     29  C   UNL     1      17.674   7.705  33.346  0.00  0.00    +0.143 C 
ATOM     30  C   UNL     1      18.464   7.551  32.046  0.00  0.00    +0.133 C 
BRANCH  30  31
ATOM     31  N   UNL     1      18.083   6.309  31.355  0.00  0.00    -0.308 N 
ATOM     32  H   UNL     1      17.149   6.247  30.976  0.00  0.00    +0.149 HD
ATOM     33  C   UNL     1      18.891   5.257  31.198  0.00  0.00    +0.210 C 
ATOM     34  C   UNL     1      20.300   5.372  31.811  0.00  0.00    +0.109 C 
ATOM     35  O   UNL     1      18.550   4.235  30.602  0.00  0.00    -0.276 OA
ENDBRANCH  30  31
BRANCH  27  36
ATOM     36  C   UNL     1      16.315  10.479  32.810  0.00  0.00    +0.414 C 
ATOM     37  O   UNL     1      15.475  10.028  33.588  0.00  0.00    -0.240 OA
ATOM     38  O   UNL     1      15.943  11.121  31.827  0.00  0.00    -0.240 OA
ENDBRANCH  27  36
BRANCH  27  39
ATOM     39  O   UNL     1      18.399  11.422  33.683  0.00  0.00    -0.343 OA
ATOM     40  C   UNL     1      17.478  12.217  34.473  0.00  0.00    +0.198 C 
ENDBRANCH  27  39
BRANCH  29  41
ATOM     41  O   UNL     1      17.996   6.625  34.223  0.00  0.00    -0.390 OA
ATOM     42  H   UNL     1      18.546   5.989  33.759  0.00  0.00    +0.210 HD
ENDBRANCH  29  41
ENDBRANCH  24  25
BRANCH  24  43
ATOM     43  O   UNL     1      20.306   8.339  29.993  0.00  0.00    -0.387 OA
ATOM     44  H   UNL     1      20.864   8.771  29.342  0.00  0.00    +0.210 HD
ENDBRANCH  24  43
ENDBRANCH   1  24
TORSDOF 15
