REMARK VINA RESULT:    -7.186      0.000      0.000
REMARK INTER + INTRA:         -14.586
REMARK INTER:                 -12.673
REMARK INTRA:                  -1.913
REMARK UNBOUND:                -2.150
REMARK  Name = lig_assembled_80.pdb
REMARK  16 active torsions:
REMARK  status: ('A' for Active; 'I' for Inactive)
REMARK    1  A    between atoms: _2  and  _10
REMARK    2  A    between atoms: _5  and  _24
REMARK    3  A    between atoms: _7  and  _8
REMARK    4  A    between atoms: _7  and  _24
REMARK    5  A    between atoms: _20  and  _40
REMARK    6  A    between atoms: _22  and  _28
REMARK    7  A    between atoms: _23  and  _27
REMARK    8  A    between atoms: _27  and  _28
REMARK    9  A    between atoms: _30  and  _31
REMARK   10  A    between atoms: _32  and  _33
REMARK   11  A    between atoms: _34  and  _36
REMARK   12  A    between atoms: _36  and  _37
REMARK   13  A    between atoms: _36  and  _38
REMARK   14  A    between atoms: _38  and  _39
REMARK   15  A    between atoms: _38  and  _40
REMARK   16  A    between atoms: _41  and  _43
REMARK                            x       y       z     vdW  Elec       q    Type
REMARK                         _______ _______ _______ _____ _____    ______ ____
ROOT
ATOM      1  C   UNL     1       1.486   3.269  32.845  0.00  0.00    +0.141 C 
ENDROOT
BRANCH   1   4
ATOM      2  C   UNL     1      -0.361   4.092  31.425  0.00  0.00    +0.401 C 
ATOM      3  O   UNL     1      -1.219   3.963  32.301  0.00  0.00    -0.226 OA
ATOM      4  N   UNL     1       0.927   3.786  31.591  0.00  0.00    -0.279 N 
ATOM      5  H   UNL     1       1.553   3.919  30.809  0.00  0.00    +0.152 HD
BRANCH   2   6
ATOM      6  O   UNL     1      -0.748   4.596  30.144  0.00  0.00    -0.444 OA
BRANCH   6   7
ATOM      7  C   UNL     1      -0.880   3.509  29.223  0.00  0.00    +0.292 C 
BRANCH   7   9
ATOM      8  N   UNL     1       1.483   3.782  28.579  0.00  0.00    -0.131 NA
ATOM      9  C   UNL     1       0.186   3.567  28.202  0.00  0.00    +0.120 A 
ATOM     10  C   UNL     1       0.122   3.428  26.834  0.00  0.00    +0.138 A 
ATOM     11  N   UNL     1       1.414   3.627  26.426  0.00  0.00    -0.239 N 
ATOM     12  N   UNL     1       2.234   3.803  27.486  0.00  0.00    -0.065 NA
BRANCH  11  13
ATOM     13  C   UNL     1       2.007   3.500  25.090  0.00  0.00    +0.195 C 
ATOM     14  C   UNL     1       1.777   2.079  24.594  0.00  0.00    +0.041 C 
ATOM     15  C   UNL     1       2.606   1.791  23.359  0.00  0.00    +0.039 C 
ATOM     16  C   UNL     1       1.878   2.262  22.139  0.00  0.00    -0.026 A 
ATOM     17  C   UNL     1       1.596   3.609  21.905  0.00  0.00    +0.037 A 
ATOM     18  C   UNL     1       1.019   3.986  20.680  0.00  0.00    +0.023 A 
ATOM     19  C   UNL     1       0.618   3.031  19.749  0.00  0.00    +0.002 A 
ATOM     20  C   UNL     1       0.831   1.685  20.012  0.00  0.00    +0.000 A 
ATOM     21  N   UNL     1       1.760   4.654  22.831  0.00  0.00    -0.284 N 
ATOM     22  H   UNL     1       1.527   5.576  22.476  0.00  0.00    +0.155 HD
ATOM     23  C   UNL     1       1.479   1.306  21.186  0.00  0.00    +0.005 A 
ATOM     24  C   UNL     1       1.593   4.656  24.187  0.00  0.00    +0.242 C 
ATOM     25  O   UNL     1       1.178   5.723  24.653  0.00  0.00    -0.273 OA
ENDBRANCH  11  13
ENDBRANCH   7   9
ENDBRANCH   6   7
ENDBRANCH   2   6
ENDBRANCH   1   4
BRANCH   1  26
ATOM     26  C   UNL     1       3.008   3.352  32.867  0.00  0.00    +0.163 C 
BRANCH  26  27
ATOM     27  O   UNL     1       3.443   4.563  32.227  0.00  0.00    -0.388 OA
ATOM     28  H   UNL     1       3.607   4.393  31.296  0.00  0.00    +0.210 HD
ENDBRANCH  26  27
BRANCH  26  29
ATOM     29  C   UNL     1       3.506   3.289  34.321  0.00  0.00    +0.175 C 
BRANCH  29  30
ATOM     30  C   UNL     1       5.038   3.348  34.410  0.00  0.00    +0.176 C 
ATOM     31  O   UNL     1       5.447   4.723  34.171  0.00  0.00    -0.332 OA
ATOM     32  C   UNL     1       6.880   4.993  34.322  0.00  0.00    +0.277 C 
ATOM     33  C   UNL     1       7.708   4.038  33.428  0.00  0.00    +0.110 C 
ATOM     34  C   UNL     1       7.287   2.566  33.624  0.00  0.00    +0.143 C 
ATOM     35  C   UNL     1       5.777   2.400  33.448  0.00  0.00    +0.133 C 
BRANCH  35  36
ATOM     36  N   UNL     1       5.377   1.011  33.723  0.00  0.00    -0.308 N 
ATOM     37  H   UNL     1       5.441   0.681  34.676  0.00  0.00    +0.149 HD
ATOM     38  C   UNL     1       4.934   0.157  32.795  0.00  0.00    +0.210 C 
ATOM     39  C   UNL     1       4.873   0.682  31.349  0.00  0.00    +0.109 C 
ATOM     40  O   UNL     1       4.592  -0.996  33.057  0.00  0.00    -0.276 OA
ENDBRANCH  35  36
BRANCH  32  41
ATOM     41  C   UNL     1       7.315   4.830  35.793  0.00  0.00    +0.414 C 
ATOM     42  O   UNL     1       6.479   4.867  36.695  0.00  0.00    -0.240 OA
ATOM     43  O   UNL     1       8.502   4.662  36.078  0.00  0.00    -0.240 OA
ENDBRANCH  32  41
BRANCH  34  44
ATOM     44  O   UNL     1       7.965   1.741  32.677  0.00  0.00    -0.390 OA
ATOM     45  H   UNL     1       7.340   1.133  32.275  0.00  0.00    +0.210 HD
ENDBRANCH  34  44
BRANCH  32  46
ATOM     46  O   UNL     1       7.128   6.355  33.887  0.00  0.00    -0.343 OA
ATOM     47  C   UNL     1       6.120   7.318  34.288  0.00  0.00    +0.198 C 
ENDBRANCH  32  46
ENDBRANCH  29  30
BRANCH  29  48
ATOM     48  O   UNL     1       3.017   2.093  34.962  0.00  0.00    -0.387 OA
ATOM     49  H   UNL     1       3.756   1.517  35.170  0.00  0.00    +0.210 HD
ENDBRANCH  29  48
ENDBRANCH  26  29
ENDBRANCH   1  26
TORSDOF 14
