REMARK VINA RESULT:    -6.010      6.102      8.473
REMARK INTER + INTRA:         -14.295
REMARK INTER:                 -11.883
REMARK INTRA:                  -2.412
REMARK UNBOUND:                -3.014
REMARK  Name = lig_assembled_75.pdb
REMARK  19 active torsions:
REMARK  status: ('A' for Active; 'I' for Inactive)
REMARK    1  A    between atoms: _2  and  _9
REMARK    2  A    between atoms: _4  and  _23
REMARK    3  A    between atoms: _6  and  _7
REMARK    4  A    between atoms: _6  and  _23
REMARK    5  A    between atoms: _11  and  _12
REMARK    6  A    between atoms: _13  and  _14
REMARK    7  A    between atoms: _14  and  _17
REMARK    8  A    between atoms: _19  and  _39
REMARK    9  A    between atoms: _21  and  _27
REMARK   10  A    between atoms: _22  and  _26
REMARK   11  A    between atoms: _26  and  _27
REMARK   12  A    between atoms: _29  and  _30
REMARK   13  A    between atoms: _31  and  _32
REMARK   14  A    between atoms: _33  and  _35
REMARK   15  A    between atoms: _35  and  _36
REMARK   16  A    between atoms: _35  and  _37
REMARK   17  A    between atoms: _37  and  _38
REMARK   18  A    between atoms: _37  and  _39
REMARK   19  A    between atoms: _40  and  _42
REMARK                            x       y       z     vdW  Elec       q    Type
REMARK                         _______ _______ _______ _____ _____    ______ ____
ROOT
ATOM      1  C   UNL     1       1.129   0.943  28.169  0.00  0.00    +0.141 C 
ENDROOT
BRANCH   1   4
ATOM      2  C   UNL     1       1.488   3.291  27.486  0.00  0.00    +0.401 C 
ATOM      3  O   UNL     1       1.901   3.648  28.592  0.00  0.00    -0.226 OA
ATOM      4  N   UNL     1       1.100   2.047  27.201  0.00  0.00    -0.279 N 
ATOM      5  H   UNL     1       0.767   1.854  26.267  0.00  0.00    +0.152 HD
BRANCH   2   6
ATOM      6  O   UNL     1       1.408   4.253  26.431  0.00  0.00    -0.444 OA
BRANCH   6   7
ATOM      7  C   UNL     1       0.345   3.899  25.542  0.00  0.00    +0.292 C 
BRANCH   7   9
ATOM      8  N   UNL     1       1.640   5.132  23.833  0.00  0.00    -0.131 NA
ATOM      9  C   UNL     1       0.740   4.154  24.144  0.00  0.00    +0.121 A 
ATOM     10  C   UNL     1       0.329   3.534  22.986  0.00  0.00    +0.143 A 
ATOM     11  N   UNL     1       1.012   4.174  21.978  0.00  0.00    -0.220 N 
ATOM     12  N   UNL     1       1.799   5.140  22.516  0.00  0.00    -0.060 NA
BRANCH  11  13
ATOM     13  C   UNL     1       0.946   3.955  20.578  0.00  0.00    +0.068 A 
ATOM     14  C   UNL     1       1.904   3.130  19.965  0.00  0.00    +0.035 A 
ATOM     15  C   UNL     1       1.909   2.945  18.575  0.00  0.00    -0.023 A 
ATOM     16  C   UNL     1       0.899   3.547  17.813  0.00  0.00    +0.008 A 
ATOM     17  C   UNL     1      -0.069   4.349  18.420  0.00  0.00    +0.003 A 
ATOM     18  C   UNL     1      -0.044   4.562  19.798  0.00  0.00    +0.028 A 
BRANCH  15  19
ATOM     19  C   UNL     1       2.922   2.128  17.890  0.00  0.00    +0.015 C 
ATOM     20  C   UNL     1       4.211   2.483  17.769  0.00  0.00    +0.092 C 
BRANCH  20  21
ATOM     21  C   UNL     1       5.140   1.619  17.017  0.00  0.00    +0.330 C 
ATOM     22  O   UNL     1       4.807   0.653  16.354  0.00  0.00    -0.246 OA
BRANCH  21  23
ATOM     23  O   UNL     1       6.419   2.031  17.134  0.00  0.00    -0.478 OA
ATOM     24  H   UNL     1       6.606   2.925  16.797  0.00  0.00    +0.295 HD
ENDBRANCH  21  23
ENDBRANCH  20  21
ENDBRANCH  15  19
ENDBRANCH  11  13
ENDBRANCH   7   9
ENDBRANCH   6   7
ENDBRANCH   2   6
ENDBRANCH   1   4
BRANCH   1  25
ATOM     25  C   UNL     1       2.442   0.169  28.108  0.00  0.00    +0.163 C 
BRANCH  25  26
ATOM     26  O   UNL     1       3.102   0.220  29.383  0.00  0.00    -0.388 OA
ATOM     27  H   UNL     1       2.639  -0.346  30.006  0.00  0.00    +0.210 HD
ENDBRANCH  25  26
BRANCH  25  28
ATOM     28  C   UNL     1       2.162  -1.285  27.691  0.00  0.00    +0.175 C 
BRANCH  28  29
ATOM     29  C   UNL     1       3.348  -1.910  26.941  0.00  0.00    +0.176 C 
ATOM     30  O   UNL     1       4.474  -1.972  27.858  0.00  0.00    -0.332 OA
ATOM     31  C   UNL     1       5.674  -2.640  27.345  0.00  0.00    +0.277 C 
ATOM     32  C   UNL     1       6.121  -1.999  26.009  0.00  0.00    +0.110 C 
ATOM     33  C   UNL     1       4.949  -1.882  25.012  0.00  0.00    +0.143 C 
ATOM     34  C   UNL     1       3.754  -1.174  25.651  0.00  0.00    +0.133 C 
BRANCH  34  35
ATOM     35  N   UNL     1       2.614  -1.146  24.721  0.00  0.00    -0.308 N 
ATOM     36  H   UNL     1       2.117  -2.011  24.558  0.00  0.00    +0.149 HD
ATOM     37  C   UNL     1       2.192  -0.054  24.078  0.00  0.00    +0.210 C 
ATOM     38  C   UNL     1       2.987   1.242  24.327  0.00  0.00    +0.109 C 
ATOM     39  O   UNL     1       1.225  -0.057  23.316  0.00  0.00    -0.276 OA
ENDBRANCH  34  35
BRANCH  31  40
ATOM     40  C   UNL     1       5.411  -4.146  27.131  0.00  0.00    +0.414 C 
ATOM     41  O   UNL     1       5.591  -4.656  26.026  0.00  0.00    -0.240 OA
ATOM     42  O   UNL     1       5.020  -4.850  28.063  0.00  0.00    -0.240 OA
ENDBRANCH  31  40
BRANCH  31  43
ATOM     43  O   UNL     1       6.737  -2.463  28.316  0.00  0.00    -0.343 OA
ATOM     44  C   UNL     1       8.036  -2.951  27.897  0.00  0.00    +0.198 C 
ENDBRANCH  31  43
BRANCH  33  45
ATOM     45  O   UNL     1       5.367  -1.152  23.858  0.00  0.00    -0.390 OA
ATOM     46  H   UNL     1       6.112  -1.598  23.449  0.00  0.00    +0.210 HD
ENDBRANCH  33  45
ENDBRANCH  28  29
BRANCH  28  47
ATOM     47  O   UNL     1       0.972  -1.349  26.880  0.00  0.00    -0.387 OA
ATOM     48  H   UNL     1       1.051  -2.070  26.250  0.00  0.00    +0.210 HD
ENDBRANCH  28  47
ENDBRANCH  25  28
ENDBRANCH   1  25
TORSDOF 17
