REMARK VINA RESULT:    -7.203      2.748     10.274
REMARK INTER + INTRA:         -16.993
REMARK INTER:                 -12.880
REMARK INTRA:                  -4.113
REMARK UNBOUND:                -3.474
REMARK  Name = lig_assembled_34.pdb
REMARK  19 active torsions:
REMARK  status: ('A' for Active; 'I' for Inactive)
REMARK    1  A    between atoms: _2  and  _9
REMARK    2  A    between atoms: _4  and  _37
REMARK    3  A    between atoms: _6  and  _7
REMARK    4  A    between atoms: _6  and  _37
REMARK    5  A    between atoms: _11  and  _12
REMARK    6  A    between atoms: _13  and  _14
REMARK    7  A    between atoms: _18  and  _31
REMARK    8  A    between atoms: _33  and  _53
REMARK    9  A    between atoms: _35  and  _41
REMARK   10  A    between atoms: _36  and  _40
REMARK   11  A    between atoms: _40  and  _41
REMARK   12  A    between atoms: _43  and  _44
REMARK   13  A    between atoms: _45  and  _46
REMARK   14  A    between atoms: _47  and  _49
REMARK   15  A    between atoms: _49  and  _50
REMARK   16  A    between atoms: _49  and  _51
REMARK   17  A    between atoms: _51  and  _52
REMARK   18  A    between atoms: _51  and  _53
REMARK   19  A    between atoms: _54  and  _56
REMARK                            x       y       z     vdW  Elec       q    Type
REMARK                         _______ _______ _______ _____ _____    ______ ____
ROOT
ATOM      1  N   UNL     1       2.617  23.368  14.871  0.00  0.00    -0.131 NA
ATOM      2  C   UNL     1       3.964  23.139  14.836  0.00  0.00    +0.121 A 
ATOM      3  C   UNL     1       4.198  21.972  14.152  0.00  0.00    +0.143 A 
ATOM      4  N   UNL     1       2.958  21.522  13.753  0.00  0.00    -0.220 N 
ATOM      5  N   UNL     1       2.010  22.376  14.225  0.00  0.00    -0.060 NA
ENDROOT
BRANCH   4   6
ATOM      6  C   UNL     1       2.656  20.395  12.943  0.00  0.00    +0.068 A 
ATOM      7  C   UNL     1       1.637  20.483  11.988  0.00  0.00    +0.038 A 
ATOM      8  C   UNL     1       1.196  19.366  11.236  0.00  0.00    +0.007 A 
ATOM      9  C   UNL     1       1.863  18.136  11.405  0.00  0.00    -0.008 A 
ATOM     10  C   UNL     1       2.926  18.068  12.338  0.00  0.00    +0.011 A 
ATOM     11  C   UNL     1       3.312  19.176  13.113  0.00  0.00    +0.028 A 
BRANCH   9  12
ATOM     12  C   UNL     1       1.478  16.857  10.724  0.00  0.00    +0.004 A 
ATOM     13  C   UNL     1       2.098  16.417   9.592  0.00  0.00    +0.026 A 
ATOM     14  C   UNL     1       3.149  17.186   8.913  0.00  0.00    +0.016 A 
ATOM     15  C   UNL     1       3.610  16.829   7.705  0.00  0.00    +0.051 A 
ATOM     16  C   UNL     1       3.094  15.615   7.028  0.00  0.00    +0.183 A 
ATOM     17  O   UNL     1       3.460  15.313   5.896  0.00  0.00    -0.288 OA
ATOM     18  C   UNL     1       2.181  14.744   7.795  0.00  0.00    +0.097 A 
ATOM     19  C   UNL     1       1.746  15.109   9.007  0.00  0.00    +0.140 A 
ATOM     20  O   UNL     1       1.005  14.196   9.743  0.00  0.00    -0.455 OA
ATOM     21  C   UNL     1       0.347  14.637  10.860  0.00  0.00    +0.140 A 
ATOM     22  C   UNL     1      -0.459  13.702  11.512  0.00  0.00    +0.092 A 
ATOM     23  C   UNL     1      -1.199  14.096  12.616  0.00  0.00    +0.120 A 
ATOM     24  C   UNL     1      -1.204  15.425  13.024  0.00  0.00    +0.046 A 
ATOM     25  C   UNL     1      -0.383  16.347  12.369  0.00  0.00    +0.016 A 
ATOM     26  C   UNL     1       0.454  15.949  11.316  0.00  0.00    +0.026 A 
BRANCH  23  27
ATOM     27  O   UNL     1      -1.908  13.146  13.290  0.00  0.00    -0.507 OA
ATOM     28  H   UNL     1      -2.807  13.489  13.422  0.00  0.00    +0.292 HD
ENDBRANCH  23  27
ENDBRANCH   9  12
BRANCH   8  29
ATOM     29  C   UNL     1      -0.022  19.580  10.360  0.00  0.00    +0.072 C 
ATOM     30  O   UNL     1      -1.143  19.619  10.962  0.00  0.00    -0.545 OA
ATOM     31  O   UNL     1       0.141  19.626   9.105  0.00  0.00    -0.545 OA
ENDBRANCH   8  29
ENDBRANCH   4   6
BRANCH   2  32
ATOM     32  C   UNL     1       4.939  24.055  15.459  0.00  0.00    +0.292 C 
BRANCH  32  33
ATOM     33  O   UNL     1       5.502  23.472  16.637  0.00  0.00    -0.444 OA
BRANCH  33  34
ATOM     34  C   UNL     1       4.674  23.776  17.763  0.00  0.00    +0.401 C 
ATOM     35  O   UNL     1       4.968  24.734  18.481  0.00  0.00    -0.226 OA
ATOM     36  N   UNL     1       3.615  22.991  17.964  0.00  0.00    -0.279 N 
ATOM     37  H   UNL     1       3.451  22.235  17.314  0.00  0.00    +0.152 HD
BRANCH  36  38
ATOM     38  C   UNL     1       2.673  23.163  19.077  0.00  0.00    +0.141 C 
BRANCH  38  39
ATOM     39  C   UNL     1       1.225  22.997  18.629  0.00  0.00    +0.163 C 
BRANCH  39  40
ATOM     40  O   UNL     1       1.179  22.661  17.232  0.00  0.00    -0.388 OA
ATOM     41  H   UNL     1       2.024  22.293  16.963  0.00  0.00    +0.210 HD
ENDBRANCH  39  40
BRANCH  39  42
ATOM     42  C   UNL     1       0.545  21.910  19.479  0.00  0.00    +0.175 C 
BRANCH  42  43
ATOM     43  C   UNL     1      -0.667  21.293  18.766  0.00  0.00    +0.176 C 
ATOM     44  O   UNL     1      -1.396  22.367  18.112  0.00  0.00    -0.332 OA
ATOM     45  C   UNL     1      -2.534  21.950  17.287  0.00  0.00    +0.277 C 
ATOM     46  C   UNL     1      -3.513  21.082  18.116  0.00  0.00    +0.110 C 
ATOM     47  C   UNL     1      -2.779  19.945  18.856  0.00  0.00    +0.143 C 
ATOM     48  C   UNL     1      -1.611  20.490  19.680  0.00  0.00    +0.133 C 
BRANCH  48  49
ATOM     49  N   UNL     1      -0.867  19.389  20.311  0.00  0.00    -0.308 N 
ATOM     50  H   UNL     1      -0.232  18.857  19.732  0.00  0.00    +0.149 HD
ATOM     51  C   UNL     1      -0.976  19.046  21.597  0.00  0.00    +0.210 C 
ATOM     52  C   UNL     1      -1.972  19.859  22.445  0.00  0.00    +0.109 C 
ATOM     53  O   UNL     1      -0.329  18.128  22.102  0.00  0.00    -0.276 OA
ENDBRANCH  48  49
BRANCH  45  54
ATOM     54  C   UNL     1      -2.055  21.154  16.056  0.00  0.00    +0.414 C 
ATOM     55  O   UNL     1      -2.837  20.427  15.445  0.00  0.00    -0.240 OA
ATOM     56  O   UNL     1      -0.888  21.240  15.672  0.00  0.00    -0.240 OA
ENDBRANCH  45  54
BRANCH  47  57
ATOM     57  O   UNL     1      -3.690  19.267  19.722  0.00  0.00    -0.390 OA
ATOM     58  H   UNL     1      -4.058  19.891  20.352  0.00  0.00    +0.210 HD
ENDBRANCH  47  57
BRANCH  45  59
ATOM     59  O   UNL     1      -3.236  23.144  16.855  0.00  0.00    -0.343 OA
ATOM     60  C   UNL     1      -2.415  24.335  16.757  0.00  0.00    +0.198 C 
ENDBRANCH  45  59
ENDBRANCH  42  43
BRANCH  42  61
ATOM     61  O   UNL     1       0.148  22.453  20.754  0.00  0.00    -0.387 OA
ATOM     62  H   UNL     1      -0.185  21.748  21.313  0.00  0.00    +0.210 HD
ENDBRANCH  42  61
ENDBRANCH  39  42
ENDBRANCH  38  39
ENDBRANCH  36  38
ENDBRANCH  33  34
ENDBRANCH  32  33
ENDBRANCH   2  32
TORSDOF 17
