REMARK VINA RESULT:    -5.396     13.274     15.932
REMARK INTER + INTRA:         -12.454
REMARK INTER:                  -8.317
REMARK INTRA:                  -4.136
REMARK UNBOUND:                -2.326
REMARK  Name = lig_assembled_32.pdb
REMARK  19 active torsions:
REMARK  status: ('A' for Active; 'I' for Inactive)
REMARK    1  A    between atoms: _2  and  _9
REMARK    2  A    between atoms: _4  and  _17
REMARK    3  A    between atoms: _5  and  _10
REMARK    4  A    between atoms: _5  and  _11
REMARK    5  A    between atoms: _6  and  _7
REMARK    6  A    between atoms: _6  and  _17
REMARK    7  A    between atoms: _9  and  _10
REMARK    8  A    between atoms: _13  and  _33
REMARK    9  A    between atoms: _15  and  _21
REMARK   10  A    between atoms: _16  and  _20
REMARK   11  A    between atoms: _20  and  _21
REMARK   12  A    between atoms: _23  and  _24
REMARK   13  A    between atoms: _25  and  _26
REMARK   14  A    between atoms: _27  and  _29
REMARK   15  A    between atoms: _29  and  _30
REMARK   16  A    between atoms: _29  and  _31
REMARK   17  A    between atoms: _31  and  _32
REMARK   18  A    between atoms: _31  and  _33
REMARK   19  A    between atoms: _34  and  _36
REMARK                            x       y       z     vdW  Elec       q    Type
REMARK                         _______ _______ _______ _____ _____    ______ ____
ROOT
ATOM      1  C   UNL     1      19.406  -0.271  27.667  0.00  0.00    +0.163 C 
ENDROOT
BRANCH   1   2
ATOM      2  O   UNL     1      17.972  -0.368  27.676  0.00  0.00    -0.388 OA
ATOM      3  H   UNL     1      17.592   0.508  27.771  0.00  0.00    +0.210 HD
ENDBRANCH   1   2
BRANCH   1   4
ATOM      4  C   UNL     1      19.958  -0.415  26.239  0.00  0.00    +0.175 C 
BRANCH   4   5
ATOM      5  C   UNL     1      18.905  -0.963  25.264  0.00  0.00    +0.176 C 
ATOM      6  O   UNL     1      18.553  -2.306  25.695  0.00  0.00    -0.332 OA
ATOM      7  C   UNL     1      17.475  -2.952  24.940  0.00  0.00    +0.277 C 
ATOM      8  C   UNL     1      17.803  -2.957  23.427  0.00  0.00    +0.110 C 
ATOM      9  C   UNL     1      18.215  -1.556  22.928  0.00  0.00    +0.143 C 
ATOM     10  C   UNL     1      19.340  -0.977  23.787  0.00  0.00    +0.133 C 
BRANCH  10  11
ATOM     11  N   UNL     1      19.663   0.393  23.357  0.00  0.00    -0.308 N 
ATOM     12  H   UNL     1      18.927   1.084  23.390  0.00  0.00    +0.149 HD
ATOM     13  C   UNL     1      20.866   0.782  22.925  0.00  0.00    +0.210 C 
ATOM     14  C   UNL     1      21.960  -0.301  22.862  0.00  0.00    +0.109 C 
ATOM     15  O   UNL     1      21.112   1.940  22.585  0.00  0.00    -0.276 OA
ENDBRANCH  10  11
BRANCH   7  16
ATOM     16  C   UNL     1      16.133  -2.228  25.174  0.00  0.00    +0.414 C 
ATOM     17  O   UNL     1      15.313  -2.132  24.262  0.00  0.00    -0.240 OA
ATOM     18  O   UNL     1      15.870  -1.741  26.274  0.00  0.00    -0.240 OA
ENDBRANCH   7  16
BRANCH   7  19
ATOM     19  O   UNL     1      17.374  -4.327  25.391  0.00  0.00    -0.343 OA
ATOM     20  C   UNL     1      17.987  -4.597  26.676  0.00  0.00    +0.198 C 
ENDBRANCH   7  19
BRANCH   9  21
ATOM     21  O   UNL     1      18.652  -1.637  21.571  0.00  0.00    -0.390 OA
ATOM     22  H   UNL     1      18.557  -0.778  21.152  0.00  0.00    +0.210 HD
ENDBRANCH   9  21
ENDBRANCH   4   5
BRANCH   4  23
ATOM     23  O   UNL     1      21.123  -1.264  26.240  0.00  0.00    -0.387 OA
ATOM     24  H   UNL     1      21.255  -1.627  27.119  0.00  0.00    +0.210 HD
ENDBRANCH   4  23
ENDBRANCH   1   4
BRANCH   1  25
ATOM     25  C   UNL     1      19.841   1.070  28.249  0.00  0.00    +0.141 C 
BRANCH  25  28
ATOM     26  C   UNL     1      20.881   2.985  27.084  0.00  0.00    +0.401 C 
ATOM     27  O   UNL     1      21.888   2.992  27.795  0.00  0.00    -0.226 OA
ATOM     28  N   UNL     1      19.871   2.125  27.229  0.00  0.00    -0.279 N 
ATOM     29  H   UNL     1      19.083   2.205  26.602  0.00  0.00    +0.152 HD
BRANCH  26  30
ATOM     30  O   UNL     1      20.764   3.950  26.035  0.00  0.00    -0.444 OA
BRANCH  30  31
ATOM     31  C   UNL     1      19.431   4.467  26.008  0.00  0.00    +0.292 C 
BRANCH  31  33
ATOM     32  N   UNL     1      18.245   2.661  24.802  0.00  0.00    -0.131 NA
ATOM     33  C   UNL     1      18.704   3.952  24.833  0.00  0.00    +0.120 A 
ATOM     34  C   UNL     1      18.373   4.576  23.651  0.00  0.00    +0.137 A 
ATOM     35  N   UNL     1      17.726   3.610  22.943  0.00  0.00    -0.251 N 
ATOM     36  N   UNL     1      17.648   2.461  23.635  0.00  0.00    -0.065 NA
BRANCH  35  37
ATOM     37  C   UNL     1      17.155   3.701  21.618  0.00  0.00    +0.156 C 
BRANCH  37  38
ATOM     38  C   UNL     1      16.417   2.429  21.226  0.00  0.00    +0.143 C 
BRANCH  38  39
ATOM     39  C   UNL     1      17.171   1.704  20.148  0.00  0.00    +0.306 C 
ATOM     40  O   UNL     1      16.822   1.630  18.981  0.00  0.00    -0.251 OA
BRANCH  39  41
ATOM     41  O   UNL     1      18.297   1.112  20.606  0.00  0.00    -0.481 OA
ATOM     42  H   UNL     1      18.139   0.316  21.151  0.00  0.00    +0.295 HD
ENDBRANCH  39  41
ENDBRANCH  38  39
ENDBRANCH  37  38
ENDBRANCH  35  37
ENDBRANCH  31  33
ENDBRANCH  30  31
ENDBRANCH  26  30
ENDBRANCH  25  28
ENDBRANCH   1  25
TORSDOF 17
