REMARK VINA RESULT:    -5.703      5.600      8.840
REMARK INTER + INTRA:         -13.511
REMARK INTER:                 -10.793
REMARK INTRA:                  -2.718
REMARK UNBOUND:                -2.640
REMARK  Name = lig_assembled_29.pdb
REMARK  21 active torsions:
REMARK  status: ('A' for Active; 'I' for Inactive)
REMARK    1  A    between atoms: _2  and  _9
REMARK    2  A    between atoms: _4  and  _23
REMARK    3  A    between atoms: _6  and  _7
REMARK    4  A    between atoms: _6  and  _23
REMARK    5  A    between atoms: _9  and  _10
REMARK    6  A    between atoms: _12  and  _18
REMARK    7  A    between atoms: _13  and  _18
REMARK    8  A    between atoms: _14  and  _17
REMARK    9  A    between atoms: _15  and  _17
REMARK   10  A    between atoms: _19  and  _39
REMARK   11  A    between atoms: _21  and  _27
REMARK   12  A    between atoms: _22  and  _26
REMARK   13  A    between atoms: _26  and  _27
REMARK   14  A    between atoms: _29  and  _30
REMARK   15  A    between atoms: _31  and  _32
REMARK   16  A    between atoms: _33  and  _35
REMARK   17  A    between atoms: _35  and  _36
REMARK   18  A    between atoms: _35  and  _37
REMARK   19  A    between atoms: _37  and  _38
REMARK   20  A    between atoms: _37  and  _39
REMARK   21  A    between atoms: _40  and  _42
REMARK                            x       y       z     vdW  Elec       q    Type
REMARK                         _______ _______ _______ _____ _____    ______ ____
ROOT
ATOM      1  C   UNL     1       3.484   2.450  36.530  0.00  0.00    +0.163 C 
ENDROOT
BRANCH   1   2
ATOM      2  O   UNL     1       3.491   1.285  35.688  0.00  0.00    -0.388 OA
ATOM      3  H   UNL     1       4.307   0.797  35.823  0.00  0.00    +0.210 HD
ENDBRANCH   1   2
BRANCH   1   4
ATOM      4  C   UNL     1       4.667   3.375  36.197  0.00  0.00    +0.175 C 
BRANCH   4   5
ATOM      5  C   UNL     1       5.382   2.956  34.904  0.00  0.00    +0.176 C 
ATOM      6  O   UNL     1       6.118   1.732  35.176  0.00  0.00    -0.332 OA
ATOM      7  C   UNL     1       6.783   1.122  34.021  0.00  0.00    +0.277 C 
ATOM      8  C   UNL     1       7.713   2.148  33.328  0.00  0.00    +0.110 C 
ATOM      9  C   UNL     1       6.983   3.478  33.046  0.00  0.00    +0.143 C 
ATOM     10  C   UNL     1       6.325   4.022  34.315  0.00  0.00    +0.133 C 
BRANCH  10  11
ATOM     11  N   UNL     1       5.561   5.243  34.016  0.00  0.00    -0.308 N 
ATOM     12  H   UNL     1       4.742   5.156  33.430  0.00  0.00    +0.149 HD
ATOM     13  C   UNL     1       5.878   6.459  34.468  0.00  0.00    +0.210 C 
ATOM     14  C   UNL     1       7.146   6.563  35.336  0.00  0.00    +0.109 C 
ATOM     15  O   UNL     1       5.211   7.463  34.213  0.00  0.00    -0.276 OA
ENDBRANCH  10  11
BRANCH   7  16
ATOM     16  C   UNL     1       5.746   0.598  33.007  0.00  0.00    +0.414 C 
ATOM     17  O   UNL     1       4.649   0.197  33.393  0.00  0.00    -0.240 OA
ATOM     18  O   UNL     1       6.006   0.575  31.803  0.00  0.00    -0.240 OA
ENDBRANCH   7  16
BRANCH   7  19
ATOM     19  O   UNL     1       7.596   0.020  34.502  0.00  0.00    -0.343 OA
ATOM     20  C   UNL     1       8.942   0.381  34.901  0.00  0.00    +0.198 C 
ENDBRANCH   7  19
BRANCH   9  21
ATOM     21  O   UNL     1       7.913   4.441  32.548  0.00  0.00    -0.390 OA
ATOM     22  H   UNL     1       8.167   5.038  33.256  0.00  0.00    +0.210 HD
ENDBRANCH   9  21
ENDBRANCH   4   5
BRANCH   4  23
ATOM     23  O   UNL     1       5.601   3.402  37.295  0.00  0.00    -0.387 OA
ATOM     24  H   UNL     1       6.283   2.742  37.151  0.00  0.00    +0.210 HD
ENDBRANCH   4  23
ENDBRANCH   1   4
BRANCH   1  25
ATOM     25  C   UNL     1       2.175   3.213  36.355  0.00  0.00    +0.141 C 
BRANCH  25  28
ATOM     26  C   UNL     1       1.394   3.181  34.011  0.00  0.00    +0.401 C 
ATOM     27  O   UNL     1       0.838   2.085  34.112  0.00  0.00    -0.226 OA
ATOM     28  N   UNL     1       2.048   3.780  35.007  0.00  0.00    -0.279 N 
ATOM     29  H   UNL     1       2.481   4.674  34.823  0.00  0.00    +0.152 HD
BRANCH  26  30
ATOM     30  O   UNL     1       1.353   3.867  32.757  0.00  0.00    -0.444 OA
BRANCH  30  31
ATOM     31  C   UNL     1       2.577   3.648  32.051  0.00  0.00    +0.292 C 
BRANCH  31  33
ATOM     32  N   UNL     1       3.045   1.755  30.520  0.00  0.00    -0.131 NA
ATOM     33  C   UNL     1       2.329   2.886  30.814  0.00  0.00    +0.120 A 
ATOM     34  C   UNL     1       1.407   3.106  29.816  0.00  0.00    +0.137 A 
ATOM     35  N   UNL     1       1.550   2.025  28.994  0.00  0.00    -0.247 N 
ATOM     36  N   UNL     1       2.565   1.240  29.394  0.00  0.00    -0.065 NA
BRANCH  35  37
ATOM     37  C   UNL     1       0.732   1.654  27.855  0.00  0.00    +0.180 C 
BRANCH  37  38
ATOM     38  C   UNL     1       1.051   2.523  26.659  0.00  0.00    -0.022 A 
ATOM     39  C   UNL     1       0.239   3.628  26.352  0.00  0.00    +0.054 A 
ATOM     40  C   UNL     1       0.568   4.488  25.293  0.00  0.00    +0.162 A 
ATOM     41  C   UNL     1       1.721   4.234  24.524  0.00  0.00    +0.162 A 
ATOM     42  C   UNL     1       2.526   3.134  24.831  0.00  0.00    +0.050 A 
ATOM     43  C   UNL     1       2.193   2.284  25.889  0.00  0.00    +0.009 A 
BRANCH  40  44
ATOM     44  O   UNL     1      -0.161   5.598  24.943  0.00  0.00    -0.491 OA
ATOM     45  C   UNL     1      -1.496   5.692  25.419  0.00  0.00    +0.277 C 
ENDBRANCH  40  44
BRANCH  41  46
ATOM     46  O   UNL     1       1.972   5.116  23.502  0.00  0.00    -0.491 OA
ATOM     47  C   UNL     1       1.814   4.647  22.170  0.00  0.00    +0.277 C 
ENDBRANCH  41  46
ENDBRANCH  37  38
ENDBRANCH  35  37
ENDBRANCH  31  33
ENDBRANCH  30  31
ENDBRANCH  26  30
ENDBRANCH  25  28
ENDBRANCH   1  25
TORSDOF 17
