REMARK VINA RESULT:    -5.102     28.319     30.415
REMARK INTER + INTRA:         -13.271
REMARK INTER:                 -11.121
REMARK INTRA:                  -2.150
REMARK UNBOUND:                -3.545
REMARK  Name = lig_assembled_55.pdb
REMARK  20 active torsions:
REMARK  status: ('A' for Active; 'I' for Inactive)
REMARK    1  A    between atoms: _2  and  _10
REMARK    2  A    between atoms: _3  and  _11
REMARK    3  A    between atoms: _3  and  _38
REMARK    4  A    between atoms: _5  and  _18
REMARK    5  A    between atoms: _6  and  _38
REMARK    6  A    between atoms: _7  and  _8
REMARK    7  A    between atoms: _7  and  _18
REMARK    8  A    between atoms: _10  and  _11
REMARK    9  A    between atoms: _14  and  _34
REMARK   10  A    between atoms: _16  and  _22
REMARK   11  A    between atoms: _17  and  _21
REMARK   12  A    between atoms: _21  and  _22
REMARK   13  A    between atoms: _24  and  _25
REMARK   14  A    between atoms: _26  and  _27
REMARK   15  A    between atoms: _28  and  _30
REMARK   16  A    between atoms: _30  and  _31
REMARK   17  A    between atoms: _30  and  _32
REMARK   18  A    between atoms: _32  and  _33
REMARK   19  A    between atoms: _32  and  _34
REMARK   20  A    between atoms: _35  and  _37
REMARK                            x       y       z     vdW  Elec       q    Type
REMARK                         _______ _______ _______ _____ _____    ______ ____
ROOT
ATOM      1  C   UNL     1       2.174  16.466   8.847  0.00  0.00    +0.163 C 
ENDROOT
BRANCH   1   2
ATOM      2  O   UNL     1       1.707  16.098   7.539  0.00  0.00    -0.388 OA
ATOM      3  H   UNL     1       2.347  15.516   7.122  0.00  0.00    +0.210 HD
ENDBRANCH   1   2
BRANCH   1   4
ATOM      4  C   UNL     1       2.216  15.244   9.781  0.00  0.00    +0.175 C 
BRANCH   4   5
ATOM      5  C   UNL     1       0.977  15.164  10.684  0.00  0.00    +0.176 C 
ATOM      6  O   UNL     1      -0.154  14.773   9.858  0.00  0.00    -0.332 OA
ATOM      7  C   UNL     1      -1.412  14.542  10.575  0.00  0.00    +0.277 C 
ATOM      8  C   UNL     1      -1.787  15.782  11.422  0.00  0.00    +0.110 C 
ATOM      9  C   UNL     1      -0.605  16.255  12.294  0.00  0.00    +0.143 C 
ATOM     10  C   UNL     1       0.652  16.461  11.448  0.00  0.00    +0.133 C 
BRANCH  10  11
ATOM     11  N   UNL     1       1.793  16.827  12.302  0.00  0.00    -0.308 N 
ATOM     12  H   UNL     1       2.153  16.127  12.935  0.00  0.00    +0.149 HD
ATOM     13  C   UNL     1       2.385  18.025  12.295  0.00  0.00    +0.210 C 
ATOM     14  C   UNL     1       1.797  19.079  11.338  0.00  0.00    +0.109 C 
ATOM     15  O   UNL     1       3.348  18.299  13.011  0.00  0.00    -0.276 OA
ENDBRANCH  10  11
BRANCH   7  16
ATOM     16  C   UNL     1      -1.301  13.306  11.491  0.00  0.00    +0.414 C 
ATOM     17  O   UNL     1      -1.608  13.385  12.680  0.00  0.00    -0.240 OA
ATOM     18  O   UNL     1      -0.905  12.229  11.042  0.00  0.00    -0.240 OA
ENDBRANCH   7  16
BRANCH   7  19
ATOM     19  O   UNL     1      -2.456  14.328   9.590  0.00  0.00    -0.343 OA
ATOM     20  C   UNL     1      -2.041  14.495   8.211  0.00  0.00    +0.198 C 
ENDBRANCH   7  19
BRANCH   9  21
ATOM     21  O   UNL     1      -0.944  17.483  12.940  0.00  0.00    -0.390 OA
ATOM     22  H   UNL     1      -0.510  17.526  13.795  0.00  0.00    +0.210 HD
ENDBRANCH   9  21
ENDBRANCH   4   5
BRANCH   4  23
ATOM     23  O   UNL     1       3.415  15.272  10.582  0.00  0.00    -0.387 OA
ATOM     24  H   UNL     1       3.406  16.051  11.144  0.00  0.00    +0.210 HD
ENDBRANCH   4  23
ENDBRANCH   1   4
BRANCH   1  25
ATOM     25  C   UNL     1       3.567  17.081   8.749  0.00  0.00    +0.141 C 
BRANCH  25  28
ATOM     26  C   UNL     1       5.061  16.891   6.790  0.00  0.00    +0.401 C 
ATOM     27  O   UNL     1       4.976  18.085   6.492  0.00  0.00    -0.226 OA
ATOM     28  N   UNL     1       4.430  16.335   7.825  0.00  0.00    -0.279 N 
ATOM     29  H   UNL     1       4.554  15.345   7.983  0.00  0.00    +0.152 HD
BRANCH  26  30
ATOM     30  O   UNL     1       5.874  16.031   5.988  0.00  0.00    -0.444 OA
BRANCH  30  31
ATOM     31  C   UNL     1       5.393  16.037   4.641  0.00  0.00    +0.292 C 
BRANCH  31  33
ATOM     32  N   UNL     1       7.369  15.043   3.535  0.00  0.00    -0.131 NA
ATOM     33  C   UNL     1       6.520  16.107   3.692  0.00  0.00    +0.120 A 
ATOM     34  C   UNL     1       6.920  17.129   2.859  0.00  0.00    +0.137 A 
ATOM     35  N   UNL     1       8.027  16.633   2.238  0.00  0.00    -0.250 N 
ATOM     36  N   UNL     1       8.292  15.378   2.646  0.00  0.00    -0.065 NA
BRANCH  35  37
ATOM     37  C   UNL     1       8.856  17.273   1.240  0.00  0.00    +0.162 C 
BRANCH  37  38
ATOM     38  C   UNL     1      10.289  17.548   1.709  0.00  0.00    +0.129 C 
BRANCH  38  39
ATOM     39  N   UNL     1      10.492  17.332   3.172  0.00  0.00    -0.193 NA
ATOM     40  H   UNL     1      10.486  16.329   3.392  0.00  0.00    +0.148 HD
BRANCH  39  41
ATOM     41  S   UNL     1      11.790  18.149   3.871  0.00  0.00    +0.027 S 
ATOM     42  O   UNL     1      11.288  19.436   4.301  0.00  0.00    -0.158 OA
ATOM     43  O   UNL     1      12.428  17.242   4.799  0.00  0.00    -0.158 OA
ATOM     44  C   UNL     1      12.850  18.403   2.467  0.00  0.00    +0.214 C 
ENDBRANCH  39  41
ENDBRANCH  38  39
ENDBRANCH  37  38
ENDBRANCH  35  37
ENDBRANCH  31  33
ENDBRANCH  30  31
ENDBRANCH  26  30
ENDBRANCH  25  28
ENDBRANCH   1  25
TORSDOF 17
