REMARK VINA RESULT:    -5.549     13.366     14.925
REMARK INTER + INTRA:         -15.735
REMARK INTER:                 -13.047
REMARK INTRA:                  -2.688
REMARK UNBOUND:                -2.725
REMARK  Name = lig_assembled_30.pdb
REMARK  27 active torsions:
REMARK  status: ('A' for Active; 'I' for Inactive)
REMARK    1  A    between atoms: _2  and  _9
REMARK    2  A    between atoms: _4  and  _25
REMARK    3  A    between atoms: _5  and  _18
REMARK    4  A    between atoms: _5  and  _19
REMARK    5  A    between atoms: _6  and  _7
REMARK    6  A    between atoms: _6  and  _25
REMARK    7  A    between atoms: _9  and  _10
REMARK    8  A    between atoms: _10  and  _11
REMARK    9  A    between atoms: _11  and  _12
REMARK   10  A    between atoms: _12  and  _13
REMARK   11  A    between atoms: _13  and  _14
REMARK   12  A    between atoms: _14  and  _15
REMARK   13  A    between atoms: _15  and  _16
REMARK   14  A    between atoms: _16  and  _17
REMARK   15  A    between atoms: _17  and  _18
REMARK   16  A    between atoms: _21  and  _41
REMARK   17  A    between atoms: _23  and  _29
REMARK   18  A    between atoms: _24  and  _28
REMARK   19  A    between atoms: _28  and  _29
REMARK   20  A    between atoms: _31  and  _32
REMARK   21  A    between atoms: _33  and  _34
REMARK   22  A    between atoms: _35  and  _37
REMARK   23  A    between atoms: _37  and  _38
REMARK   24  A    between atoms: _37  and  _39
REMARK   25  A    between atoms: _39  and  _40
REMARK   26  A    between atoms: _39  and  _41
REMARK   27  A    between atoms: _42  and  _44
REMARK                            x       y       z     vdW  Elec       q    Type
REMARK                         _______ _______ _______ _____ _____    ______ ____
ROOT
ATOM      1  C   UNL     1       6.455  -0.333  32.169  0.00  0.00    +0.401 C 
ATOM      2  O   UNL     1       7.355  -0.848  31.502  0.00  0.00    -0.226 OA
ATOM      3  N   UNL     1       6.631   0.715  32.975  0.00  0.00    -0.279 N 
ATOM      4  H   UNL     1       5.829   1.073  33.474  0.00  0.00    +0.152 HD
ENDROOT
BRANCH   1   5
ATOM      5  O   UNL     1       5.133  -0.871  32.085  0.00  0.00    -0.444 OA
BRANCH   5   6
ATOM      6  C   UNL     1       4.650  -0.748  30.745  0.00  0.00    +0.292 C 
BRANCH   6   8
ATOM      7  N   UNL     1       4.096   1.566  31.425  0.00  0.00    -0.131 NA
ATOM      8  C   UNL     1       3.883   0.501  30.590  0.00  0.00    +0.120 A 
ATOM      9  C   UNL     1       2.900   0.829  29.682  0.00  0.00    +0.137 A 
ATOM     10  N   UNL     1       2.558   2.103  30.021  0.00  0.00    -0.251 N 
ATOM     11  N   UNL     1       3.274   2.545  31.066  0.00  0.00    -0.065 NA
BRANCH  10  12
ATOM     12  C   UNL     1       1.538   2.937  29.424  0.00  0.00    +0.145 C 
BRANCH  12  13
ATOM     13  C   UNL     1       1.202   2.472  28.011  0.00  0.00    +0.023 C 
BRANCH  13  14
ATOM     14  C   UNL     1       1.831   3.371  26.948  0.00  0.00    +0.002 C 
BRANCH  14  15
ATOM     15  C   UNL     1       1.342   2.965  25.558  0.00  0.00    +0.000 C 
BRANCH  15  16
ATOM     16  C   UNL     1       2.413   3.185  24.494  0.00  0.00    +0.000 C 
BRANCH  16  17
ATOM     17  C   UNL     1       1.848   2.931  23.095  0.00  0.00    +0.000 C 
BRANCH  17  18
ATOM     18  C   UNL     1       1.862   4.210  22.262  0.00  0.00    +0.000 C 
BRANCH  18  19
ATOM     19  C   UNL     1       0.992   4.078  21.012  0.00  0.00    +0.001 C 
BRANCH  19  20
ATOM     20  C   UNL     1       1.866   3.908  19.770  0.00  0.00    +0.011 C 
BRANCH  20  21
ATOM     21  C   UNL     1       2.226   2.446  19.522  0.00  0.00    +0.120 C 
BRANCH  21  22
ATOM     22  C   UNL     1       2.930   2.267  18.197  0.00  0.00    +0.305 C 
ATOM     23  O   UNL     1       4.062   1.830  18.049  0.00  0.00    -0.251 OA
BRANCH  22  24
ATOM     24  O   UNL     1       2.164   2.649  17.150  0.00  0.00    -0.481 OA
ATOM     25  H   UNL     1       1.518   1.973  16.870  0.00  0.00    +0.295 HD
ENDBRANCH  22  24
ENDBRANCH  21  22
ENDBRANCH  20  21
ENDBRANCH  19  20
ENDBRANCH  18  19
ENDBRANCH  17  18
ENDBRANCH  16  17
ENDBRANCH  15  16
ENDBRANCH  14  15
ENDBRANCH  13  14
ENDBRANCH  12  13
ENDBRANCH  10  12
ENDBRANCH   6   8
ENDBRANCH   5   6
ENDBRANCH   1   5
BRANCH   3  26
ATOM     26  C   UNL     1       7.925   1.377  33.179  0.00  0.00    +0.141 C 
BRANCH  26  27
ATOM     27  C   UNL     1       7.802   2.603  34.077  0.00  0.00    +0.163 C 
BRANCH  27  28
ATOM     28  O   UNL     1       8.130   3.790  33.336  0.00  0.00    -0.388 OA
ATOM     29  H   UNL     1       8.892   3.619  32.778  0.00  0.00    +0.210 HD
ENDBRANCH  27  28
BRANCH  27  30
ATOM     30  C   UNL     1       6.373   2.685  34.641  0.00  0.00    +0.175 C 
BRANCH  30  31
ATOM     31  C   UNL     1       5.938   4.134  34.906  0.00  0.00    +0.176 C 
ATOM     32  O   UNL     1       7.006   4.794  35.639  0.00  0.00    -0.332 OA
ATOM     33  C   UNL     1       6.811   6.225  35.891  0.00  0.00    +0.277 C 
ATOM     34  C   UNL     1       5.458   6.470  36.603  0.00  0.00    +0.110 C 
ATOM     35  C   UNL     1       4.296   5.760  35.878  0.00  0.00    +0.143 C 
ATOM     36  C   UNL     1       4.606   4.278  35.665  0.00  0.00    +0.133 C 
BRANCH  36  37
ATOM     37  N   UNL     1       3.530   3.632  34.897  0.00  0.00    -0.308 N 
ATOM     38  H   UNL     1       3.399   3.918  33.937  0.00  0.00    +0.149 HD
ATOM     39  C   UNL     1       2.715   2.693  35.386  0.00  0.00    +0.210 C 
ATOM     40  C   UNL     1       2.924   2.298  36.860  0.00  0.00    +0.109 C 
ATOM     41  O   UNL     1       1.832   2.158  34.715  0.00  0.00    -0.276 OA
ENDBRANCH  36  37
BRANCH  33  42
ATOM     42  C   UNL     1       6.850   7.023  34.571  0.00  0.00    +0.414 C 
ATOM     43  O   UNL     1       7.321   6.516  33.553  0.00  0.00    -0.240 OA
ATOM     44  O   UNL     1       6.412   8.173  34.523  0.00  0.00    -0.240 OA
ENDBRANCH  33  42
BRANCH  35  45
ATOM     45  O   UNL     1       3.100   5.885  36.648  0.00  0.00    -0.390 OA
ATOM     46  H   UNL     1       2.507   6.508  36.220  0.00  0.00    +0.210 HD
ENDBRANCH  35  45
BRANCH  33  47
ATOM     47  O   UNL     1       7.877   6.677  36.766  0.00  0.00    -0.343 OA
ATOM     48  C   UNL     1       7.438   7.214  38.039  0.00  0.00    +0.198 C 
ENDBRANCH  33  47
ENDBRANCH  30  31
BRANCH  30  49
ATOM     49  O   UNL     1       6.272   1.907  35.851  0.00  0.00    -0.387 OA
ATOM     50  H   UNL     1       5.572   1.257  35.756  0.00  0.00    +0.210 HD
ENDBRANCH  30  49
ENDBRANCH  27  30
ENDBRANCH  26  27
ENDBRANCH   3  26
TORSDOF 25
