REMARK VINA RESULT:    -5.879      7.319     12.692
REMARK INTER + INTRA:         -13.030
REMARK INTER:                 -10.782
REMARK INTRA:                  -2.249
REMARK UNBOUND:                -2.511
REMARK  Name = lig_assembled_6.pdb
REMARK  17 active torsions:
REMARK  status: ('A' for Active; 'I' for Inactive)
REMARK    1  A    between atoms: _2  and  _10
REMARK    2  A    between atoms: _3  and  _13
REMARK    3  A    between atoms: _5  and  _21
REMARK    4  A    between atoms: _7  and  _8
REMARK    5  A    between atoms: _7  and  _21
REMARK    6  A    between atoms: _17  and  _37
REMARK    7  A    between atoms: _19  and  _25
REMARK    8  A    between atoms: _20  and  _24
REMARK    9  A    between atoms: _24  and  _25
REMARK   10  A    between atoms: _27  and  _28
REMARK   11  A    between atoms: _29  and  _30
REMARK   12  A    between atoms: _31  and  _33
REMARK   13  A    between atoms: _33  and  _34
REMARK   14  A    between atoms: _33  and  _35
REMARK   15  A    between atoms: _35  and  _36
REMARK   16  A    between atoms: _35  and  _37
REMARK   17  A    between atoms: _38  and  _40
REMARK                            x       y       z     vdW  Elec       q    Type
REMARK                         _______ _______ _______ _____ _____    ______ ____
ROOT
ATOM      1  C   UNL     1       8.498   2.493  36.246  0.00  0.00    +0.163 C 
ENDROOT
BRANCH   1   2
ATOM      2  O   UNL     1       8.262   3.049  37.549  0.00  0.00    -0.388 OA
ATOM      3  H   UNL     1       8.110   2.339  38.178  0.00  0.00    +0.210 HD
ENDBRANCH   1   2
BRANCH   1   4
ATOM      4  C   UNL     1       9.607   1.448  36.318  0.00  0.00    +0.141 C 
BRANCH   4   7
ATOM      5  C   UNL     1      12.071   1.476  36.138  0.00  0.00    +0.401 C 
ATOM      6  O   UNL     1      12.141   0.354  35.632  0.00  0.00    -0.226 OA
ATOM      7  N   UNL     1      10.928   2.063  36.496  0.00  0.00    -0.279 N 
ATOM      8  H   UNL     1      10.973   2.982  36.913  0.00  0.00    +0.152 HD
BRANCH   5   9
ATOM      9  O   UNL     1      13.276   2.210  36.369  0.00  0.00    -0.444 OA
BRANCH   9  10
ATOM     10  C   UNL     1      12.955   3.564  36.698  0.00  0.00    +0.292 C 
BRANCH  10  12
ATOM     11  N   UNL     1      14.174   4.175  34.632  0.00  0.00    -0.131 NA
ATOM     12  C   UNL     1      13.770   4.495  35.895  0.00  0.00    +0.121 A 
ATOM     13  C   UNL     1      14.235   5.751  36.210  0.00  0.00    +0.143 A 
ATOM     14  N   UNL     1      14.899   6.177  35.083  0.00  0.00    -0.220 N 
ATOM     15  N   UNL     1      14.865   5.197  34.147  0.00  0.00    -0.060 NA
BRANCH  14  16
ATOM     16  C   UNL     1      15.511   7.435  34.834  0.00  0.00    +0.067 A 
ATOM     17  C   UNL     1      16.346   8.026  35.794  0.00  0.00    +0.034 A 
ATOM     18  C   UNL     1      16.893   9.293  35.563  0.00  0.00    +0.086 A 
ATOM     19  C   UNL     1      16.607   9.969  34.371  0.00  0.00    +0.273 A 
ATOM     20  C   UNL     1      15.797   9.376  33.396  0.00  0.00    +0.086 A 
ATOM     21  C   UNL     1      15.251   8.109  33.629  0.00  0.00    +0.034 A 
BRANCH  19  22
ATOM     22  N   UNL     1      17.150  11.317  34.154  0.00  0.00    +0.080 N 
ATOM     23  O   UNL     1      17.422  11.647  32.990  0.00  0.00    +0.041 OA
ATOM     24  O   UNL     1      17.311  12.040  35.146  0.00  0.00    -0.576 OA
ENDBRANCH  19  22
ENDBRANCH  14  16
ENDBRANCH  10  12
ENDBRANCH   9  10
ENDBRANCH   5   9
ENDBRANCH   4   7
ENDBRANCH   1   4
BRANCH   1  25
ATOM     25  C   UNL     1       8.891   3.591  35.242  0.00  0.00    +0.175 C 
BRANCH  25  26
ATOM     26  C   UNL     1       7.738   4.570  34.976  0.00  0.00    +0.176 C 
ATOM     27  O   UNL     1       7.551   5.376  36.171  0.00  0.00    -0.332 OA
ATOM     28  C   UNL     1       6.554   6.446  36.065  0.00  0.00    +0.277 C 
ATOM     29  C   UNL     1       5.192   5.872  35.602  0.00  0.00    +0.110 C 
ATOM     30  C   UNL     1       5.345   4.981  34.351  0.00  0.00    +0.143 C 
ATOM     31  C   UNL     1       6.409   3.905  34.570  0.00  0.00    +0.133 C 
BRANCH  31  32
ATOM     32  N   UNL     1       6.607   3.118  33.343  0.00  0.00    -0.308 N 
ATOM     33  H   UNL     1       7.039   3.577  32.553  0.00  0.00    +0.149 HD
ATOM     34  C   UNL     1       6.254   1.838  33.205  0.00  0.00    +0.210 C 
ATOM     35  C   UNL     1       5.576   1.174  34.418  0.00  0.00    +0.109 C 
ATOM     36  O   UNL     1       6.446   1.199  32.169  0.00  0.00    -0.276 OA
ENDBRANCH  31  32
BRANCH  28  37
ATOM     37  C   UNL     1       7.020   7.531  35.073  0.00  0.00    +0.414 C 
ATOM     38  O   UNL     1       8.212   7.828  34.993  0.00  0.00    -0.240 OA
ATOM     39  O   UNL     1       6.206   8.109  34.352  0.00  0.00    -0.240 OA
ENDBRANCH  28  37
BRANCH  30  40
ATOM     40  O   UNL     1       4.097   4.355  34.050  0.00  0.00    -0.390 OA
ATOM     41  H   UNL     1       3.399   4.769  34.562  0.00  0.00    +0.210 HD
ENDBRANCH  30  40
BRANCH  28  42
ATOM     42  O   UNL     1       6.380   7.030  37.381  0.00  0.00    -0.343 OA
ATOM     43  C   UNL     1       7.546   6.960  38.241  0.00  0.00    +0.198 C 
ENDBRANCH  28  42
ENDBRANCH  25  26
BRANCH  25  44
ATOM     44  O   UNL     1       9.335   2.997  34.005  0.00  0.00    -0.387 OA
ATOM     45  H   UNL     1       9.517   2.065  34.145  0.00  0.00    +0.210 HD
ENDBRANCH  25  44
ENDBRANCH   1  25
TORSDOF 15
