REMARK VINA RESULT:    -7.373      1.540      3.701
REMARK INTER + INTRA:         -14.768
REMARK INTER:                 -12.562
REMARK INTRA:                  -2.206
REMARK UNBOUND:                -1.575
REMARK  Name = lig_assembled_0.pdb
REMARK  17 active torsions:
REMARK  status: ('A' for Active; 'I' for Inactive)
REMARK    1  A    between atoms: _2  and  _10
REMARK    2  A    between atoms: _5  and  _21
REMARK    3  A    between atoms: _7  and  _8
REMARK    4  A    between atoms: _7  and  _21
REMARK    5  A    between atoms: _11  and  _12
REMARK    6  A    between atoms: _17  and  _37
REMARK    7  A    between atoms: _19  and  _25
REMARK    8  A    between atoms: _20  and  _24
REMARK    9  A    between atoms: _24  and  _25
REMARK   10  A    between atoms: _27  and  _28
REMARK   11  A    between atoms: _29  and  _30
REMARK   12  A    between atoms: _31  and  _33
REMARK   13  A    between atoms: _33  and  _34
REMARK   14  A    between atoms: _33  and  _35
REMARK   15  A    between atoms: _35  and  _36
REMARK   16  A    between atoms: _35  and  _37
REMARK   17  A    between atoms: _38  and  _40
REMARK                            x       y       z     vdW  Elec       q    Type
REMARK                         _______ _______ _______ _____ _____    ______ ____
ROOT
ATOM      1  C   UNL     1       4.225   3.668  32.449  0.00  0.00    +0.163 C 
ENDROOT
BRANCH   1   2
ATOM      2  O   UNL     1       3.500   4.172  33.583  0.00  0.00    -0.388 OA
ATOM      3  H   UNL     1       3.032   4.973  33.334  0.00  0.00    +0.210 HD
ENDBRANCH   1   2
BRANCH   1   4
ATOM      4  C   UNL     1       3.386   2.630  31.712  0.00  0.00    +0.141 C 
BRANCH   4   7
ATOM      5  C   UNL     1       1.306   3.731  30.961  0.00  0.00    +0.401 C 
ATOM      6  O   UNL     1       0.778   3.705  32.076  0.00  0.00    -0.226 OA
ATOM      7  N   UNL     1       2.519   3.244  30.699  0.00  0.00    -0.279 N 
ATOM      8  H   UNL     1       2.862   3.303  29.751  0.00  0.00    +0.152 HD
BRANCH   5   9
ATOM      9  O   UNL     1       0.588   4.307  29.867  0.00  0.00    -0.444 OA
BRANCH   9  10
ATOM     10  C   UNL     1       0.220   3.280  28.943  0.00  0.00    +0.292 C 
BRANCH  10  12
ATOM     11  N   UNL     1       2.244   3.733  27.606  0.00  0.00    -0.131 NA
ATOM     12  C   UNL     1       0.905   3.481  27.652  0.00  0.00    +0.121 A 
ATOM     13  C   UNL     1       0.410   3.436  26.369  0.00  0.00    +0.143 A 
ATOM     14  N   UNL     1       1.475   3.765  25.561  0.00  0.00    -0.219 N 
ATOM     15  N   UNL     1       2.592   3.853  26.335  0.00  0.00    -0.060 NA
BRANCH  14  16
ATOM     16  C   UNL     1       1.568   3.888  24.146  0.00  0.00    +0.079 A 
ATOM     17  C   UNL     1       1.789   2.816  23.258  0.00  0.00    +0.062 A 
ATOM     18  C   UNL     1       1.901   3.089  21.877  0.00  0.00    +0.015 A 
ATOM     19  C   UNL     1       1.811   4.390  21.383  0.00  0.00    +0.001 A 
ATOM     20  C   UNL     1       1.577   5.443  22.256  0.00  0.00    +0.002 A 
ATOM     21  C   UNL     1       1.445   5.195  23.622  0.00  0.00    +0.028 A 
BRANCH  17  22
ATOM     22  C   UNL     1       1.731   1.380  23.651  0.00  0.00    +0.244 C 
ATOM     23  O   UNL     1       2.733   0.732  23.908  0.00  0.00    -0.270 OA
ATOM     24  N   UNL     1       0.493   0.802  23.758  0.00  0.00    -0.325 N 
ATOM     25  H   UNL     1       0.460  -0.159  24.075  0.00  0.00    +0.145 HD
ATOM     26  H   UNL     1      -0.381   1.272  23.577  0.00  0.00    +0.145 HD
ENDBRANCH  17  22
ENDBRANCH  14  16
ENDBRANCH  10  12
ENDBRANCH   9  10
ENDBRANCH   5   9
ENDBRANCH   4   7
ENDBRANCH   1   4
BRANCH   1  27
ATOM     27  C   UNL     1       5.558   3.036  32.886  0.00  0.00    +0.175 C 
BRANCH  27  28
ATOM     28  C   UNL     1       6.048   3.592  34.231  0.00  0.00    +0.176 C 
ATOM     29  O   UNL     1       6.448   4.975  34.024  0.00  0.00    -0.332 OA
ATOM     30  C   UNL     1       6.848   5.706  35.230  0.00  0.00    +0.277 C 
ATOM     31  C   UNL     1       7.968   4.944  35.979  0.00  0.00    +0.110 C 
ATOM     32  C   UNL     1       7.601   3.460  36.194  0.00  0.00    +0.143 C 
ATOM     33  C   UNL     1       7.198   2.798  34.876  0.00  0.00    +0.133 C 
BRANCH  33  34
ATOM     34  N   UNL     1       6.768   1.410  35.108  0.00  0.00    -0.308 N 
ATOM     35  H   UNL     1       6.048   1.248  35.798  0.00  0.00    +0.149 HD
ATOM     36  C   UNL     1       7.267   0.350  34.466  0.00  0.00    +0.210 C 
ATOM     37  C   UNL     1       8.382   0.627  33.440  0.00  0.00    +0.109 C 
ATOM     38  O   UNL     1       6.877  -0.800  34.670  0.00  0.00    -0.276 OA
ENDBRANCH  33  34
BRANCH  30  39
ATOM     39  C   UNL     1       5.643   5.908  36.172  0.00  0.00    +0.414 C 
ATOM     40  O   UNL     1       5.809   5.951  37.391  0.00  0.00    -0.240 OA
ATOM     41  O   UNL     1       4.506   6.029  35.714  0.00  0.00    -0.240 OA
ENDBRANCH  30  39
BRANCH  32  42
ATOM     42  O   UNL     1       8.718   2.763  36.749  0.00  0.00    -0.390 OA
ATOM     43  H   UNL     1       8.604   1.819  36.618  0.00  0.00    +0.210 HD
ENDBRANCH  32  42
BRANCH  30  44
ATOM     44  O   UNL     1       7.369   6.997  34.820  0.00  0.00    -0.343 OA
ATOM     45  C   UNL     1       8.156   7.687  35.824  0.00  0.00    +0.198 C 
ENDBRANCH  30  44
ENDBRANCH  27  28
BRANCH  27  46
ATOM     46  O   UNL     1       6.560   3.239  31.870  0.00  0.00    -0.387 OA
ATOM     47  H   UNL     1       6.133   3.406  31.027  0.00  0.00    +0.210 HD
ENDBRANCH  27  46
ENDBRANCH   1  27
TORSDOF 15
