REMARK VINA RESULT:    -5.969      4.644      6.454
REMARK INTER + INTRA:         -14.020
REMARK INTER:                 -11.136
REMARK INTRA:                  -2.885
REMARK UNBOUND:                -2.643
REMARK  Name = lig_assembled_21.pdb
REMARK  20 active torsions:
REMARK  status: ('A' for Active; 'I' for Inactive)
REMARK    1  A    between atoms: _2  and  _9
REMARK    2  A    between atoms: _4  and  _23
REMARK    3  A    between atoms: _6  and  _7
REMARK    4  A    between atoms: _6  and  _23
REMARK    5  A    between atoms: _9  and  _10
REMARK    6  A    between atoms: _11  and  _18
REMARK    7  A    between atoms: _12  and  _13
REMARK    8  A    between atoms: _12  and  _18
REMARK    9  A    between atoms: _19  and  _39
REMARK   10  A    between atoms: _21  and  _27
REMARK   11  A    between atoms: _22  and  _26
REMARK   12  A    between atoms: _26  and  _27
REMARK   13  A    between atoms: _29  and  _30
REMARK   14  A    between atoms: _31  and  _32
REMARK   15  A    between atoms: _33  and  _35
REMARK   16  A    between atoms: _35  and  _36
REMARK   17  A    between atoms: _35  and  _37
REMARK   18  A    between atoms: _37  and  _38
REMARK   19  A    between atoms: _37  and  _39
REMARK   20  A    between atoms: _40  and  _42
REMARK                            x       y       z     vdW  Elec       q    Type
REMARK                         _______ _______ _______ _____ _____    ______ ____
ROOT
ATOM      1  C   UNL     1       2.815  -1.794  25.855  0.00  0.00    +0.163 C 
ENDROOT
BRANCH   1   2
ATOM      2  O   UNL     1       3.630  -1.298  24.781  0.00  0.00    -0.388 OA
ATOM      3  H   UNL     1       4.507  -1.686  24.839  0.00  0.00    +0.210 HD
ENDBRANCH   1   2
BRANCH   1   4
ATOM      4  C   UNL     1       3.489  -1.548  27.216  0.00  0.00    +0.175 C 
BRANCH   4   5
ATOM      5  C   UNL     1       4.997  -1.837  27.174  0.00  0.00    +0.176 C 
ATOM      6  O   UNL     1       5.203  -3.019  26.353  0.00  0.00    -0.332 OA
ATOM      7  C   UNL     1       6.602  -3.386  26.111  0.00  0.00    +0.277 C 
ATOM      8  C   UNL     1       7.360  -3.542  27.452  0.00  0.00    +0.110 C 
ATOM      9  C   UNL     1       7.145  -2.323  28.373  0.00  0.00    +0.143 C 
ATOM     10  C   UNL     1       5.655  -2.028  28.553  0.00  0.00    +0.133 C 
BRANCH  10  11
ATOM     11  N   UNL     1       5.465  -0.813  29.361  0.00  0.00    -0.308 N 
ATOM     12  H   UNL     1       5.700   0.075  28.941  0.00  0.00    +0.149 HD
ATOM     13  C   UNL     1       5.001  -0.807  30.614  0.00  0.00    +0.210 C 
ATOM     14  C   UNL     1       4.676  -2.178  31.236  0.00  0.00    +0.109 C 
ATOM     15  O   UNL     1       4.838   0.227  31.262  0.00  0.00    -0.276 OA
ENDBRANCH  10  11
BRANCH   7  16
ATOM     16  C   UNL     1       7.304  -2.323  25.242  0.00  0.00    +0.414 C 
ATOM     17  O   UNL     1       6.683  -1.735  24.358  0.00  0.00    -0.240 OA
ATOM     18  O   UNL     1       8.492  -2.053  25.424  0.00  0.00    -0.240 OA
ENDBRANCH   7  16
BRANCH   9  19
ATOM     19  O   UNL     1       7.733  -2.574  29.650  0.00  0.00    -0.390 OA
ATOM     20  H   UNL     1       8.583  -3.005  29.532  0.00  0.00    +0.210 HD
ENDBRANCH   9  19
BRANCH   7  21
ATOM     21  O   UNL     1       6.617  -4.665  25.425  0.00  0.00    -0.343 OA
ATOM     22  C   UNL     1       5.352  -5.061  24.839  0.00  0.00    +0.198 C 
ENDBRANCH   7  21
ENDBRANCH   4   5
BRANCH   4  23
ATOM     23  O   UNL     1       2.858  -2.350  28.235  0.00  0.00    -0.387 OA
ATOM     24  H   UNL     1       2.170  -2.889  27.838  0.00  0.00    +0.210 HD
ENDBRANCH   4  23
ENDBRANCH   1   4
BRANCH   1  25
ATOM     25  C   UNL     1       1.451  -1.111  25.832  0.00  0.00    +0.141 C 
BRANCH  25  28
ATOM     26  C   UNL     1       0.389   0.931  26.731  0.00  0.00    +0.401 C 
ATOM     27  O   UNL     1      -0.739   0.634  26.330  0.00  0.00    -0.226 OA
ATOM     28  N   UNL     1       1.471   0.177  26.537  0.00  0.00    -0.279 N 
ATOM     29  H   UNL     1       2.355   0.510  26.895  0.00  0.00    +0.152 HD
BRANCH  26  30
ATOM     30  O   UNL     1       0.572   2.156  27.445  0.00  0.00    -0.444 OA
BRANCH  30  31
ATOM     31  C   UNL     1       1.761   2.804  26.985  0.00  0.00    +0.292 C 
BRANCH  31  33
ATOM     32  N   UNL     1       0.559   4.734  26.015  0.00  0.00    -0.131 NA
ATOM     33  C   UNL     1       1.448   3.705  25.861  0.00  0.00    +0.120 A 
ATOM     34  C   UNL     1       1.946   3.730  24.577  0.00  0.00    +0.137 A 
ATOM     35  N   UNL     1       1.390   4.854  24.027  0.00  0.00    -0.247 N 
ATOM     36  N   UNL     1       0.530   5.428  24.887  0.00  0.00    -0.065 NA
BRANCH  35  37
ATOM     37  C   UNL     1       1.729   5.430  22.730  0.00  0.00    +0.184 C 
BRANCH  37  38
ATOM     38  C   UNL     1       1.181   4.702  21.526  0.00  0.00    +0.016 A 
ATOM     39  C   UNL     1      -0.142   4.884  21.086  0.00  0.00    +0.137 A 
ATOM     40  C   UNL     1      -0.629   4.204  19.968  0.00  0.00    +0.047 A 
ATOM     41  C   UNL     1       0.212   3.342  19.264  0.00  0.00    +0.004 A 
ATOM     42  C   UNL     1       1.521   3.137  19.693  0.00  0.00    +0.001 A 
ATOM     43  C   UNL     1       2.004   3.813  20.814  0.00  0.00    +0.009 A 
BRANCH  39  44
ATOM     44  O   UNL     1      -0.969   5.717  21.876  0.00  0.00    -0.426 OA
BRANCH  44  45
ATOM     45  C   UNL     1      -2.192   5.287  22.395  0.00  0.00    +0.309 C 
ATOM     46  O   UNL     1      -3.273   5.856  22.312  0.00  0.00    -0.251 OA
ATOM     47  C   UNL     1      -2.005   3.940  23.029  0.00  0.00    +0.136 C 
ENDBRANCH  44  45
ENDBRANCH  39  44
ENDBRANCH  37  38
ENDBRANCH  35  37
ENDBRANCH  31  33
ENDBRANCH  30  31
ENDBRANCH  26  30
ENDBRANCH  25  28
ENDBRANCH   1  25
TORSDOF 17
