REMARK VINA RESULT:    -6.299      6.332     12.391
REMARK INTER + INTRA:         -13.176
REMARK INTER:                 -10.768
REMARK INTRA:                  -2.408
REMARK UNBOUND:                -1.905
REMARK  Name = lig_assembled_38.pdb
REMARK  17 active torsions:
REMARK  status: ('A' for Active; 'I' for Inactive)
REMARK    1  A    between atoms: _2  and  _9
REMARK    2  A    between atoms: _4  and  _19
REMARK    3  A    between atoms: _6  and  _7
REMARK    4  A    between atoms: _6  and  _19
REMARK    5  A    between atoms: _9  and  _10
REMARK    6  A    between atoms: _15  and  _35
REMARK    7  A    between atoms: _17  and  _23
REMARK    8  A    between atoms: _18  and  _22
REMARK    9  A    between atoms: _22  and  _23
REMARK   10  A    between atoms: _25  and  _26
REMARK   11  A    between atoms: _27  and  _28
REMARK   12  A    between atoms: _29  and  _31
REMARK   13  A    between atoms: _31  and  _32
REMARK   14  A    between atoms: _31  and  _33
REMARK   15  A    between atoms: _33  and  _34
REMARK   16  A    between atoms: _33  and  _35
REMARK   17  A    between atoms: _36  and  _38
REMARK                            x       y       z     vdW  Elec       q    Type
REMARK                         _______ _______ _______ _____ _____    ______ ____
ROOT
ATOM      1  C   UNL     1      -2.105   3.446  22.893  0.00  0.00    +0.163 C 
ENDROOT
BRANCH   1   2
ATOM      2  O   UNL     1      -2.858   2.333  22.383  0.00  0.00    -0.388 OA
ATOM      3  H   UNL     1      -3.334   2.603  21.594  0.00  0.00    +0.210 HD
ENDBRANCH   1   2
BRANCH   1   4
ATOM      4  C   UNL     1      -2.611   3.826  24.281  0.00  0.00    +0.141 C 
BRANCH   4   7
ATOM      5  C   UNL     1      -0.911   4.875  25.735  0.00  0.00    +0.401 C 
ATOM      6  O   UNL     1      -1.155   6.021  25.352  0.00  0.00    -0.226 OA
ATOM      7  N   UNL     1      -1.540   3.788  25.283  0.00  0.00    -0.279 N 
ATOM      8  H   UNL     1      -1.263   2.889  25.652  0.00  0.00    +0.152 HD
BRANCH   5   9
ATOM      9  O   UNL     1       0.105   4.672  26.720  0.00  0.00    -0.444 OA
BRANCH   9  10
ATOM     10  C   UNL     1      -0.408   3.855  27.776  0.00  0.00    +0.292 C 
BRANCH  10  12
ATOM     11  N   UNL     1       1.747   3.535  28.955  0.00  0.00    -0.131 NA
ATOM     12  C   UNL     1       0.659   2.993  28.324  0.00  0.00    +0.120 A 
ATOM     13  C   UNL     1       0.759   1.620  28.351  0.00  0.00    +0.137 A 
ATOM     14  N   UNL     1       1.901   1.387  29.062  0.00  0.00    -0.247 N 
ATOM     15  N   UNL     1       2.499   2.542  29.410  0.00  0.00    -0.065 NA
BRANCH  14  16
ATOM     16  C   UNL     1       2.346   0.130  29.637  0.00  0.00    +0.180 C 
BRANCH  16  17
ATOM     17  C   UNL     1       3.394  -0.573  28.809  0.00  0.00    -0.025 A 
ATOM     18  C   UNL     1       3.226  -0.738  27.425  0.00  0.00    +0.005 A 
ATOM     19  C   UNL     1       4.240  -1.309  26.649  0.00  0.00    +0.001 A 
ATOM     20  C   UNL     1       5.430  -1.722  27.246  0.00  0.00    +0.015 A 
ATOM     21  C   UNL     1       5.599  -1.570  28.618  0.00  0.00    +0.018 A 
ATOM     22 BR   UNL     1       7.216  -2.119  29.430  0.00  0.00    -0.050 Br
ATOM     23  C   UNL     1       4.593  -1.001  29.401  0.00  0.00    +0.020 A 
ENDBRANCH  16  17
ENDBRANCH  14  16
ENDBRANCH  10  12
ENDBRANCH   9  10
ENDBRANCH   5   9
ENDBRANCH   4   7
ENDBRANCH   1   4
BRANCH   1  24
ATOM     24  C   UNL     1      -2.215   4.661  21.955  0.00  0.00    +0.175 C 
BRANCH  24  25
ATOM     25  C   UNL     1      -1.317   4.519  20.718  0.00  0.00    +0.176 C 
ATOM     26  O   UNL     1      -1.985   3.633  19.779  0.00  0.00    -0.332 OA
ATOM     27  C   UNL     1      -1.319   3.462  18.484  0.00  0.00    +0.277 C 
ATOM     28  C   UNL     1       0.146   3.002  18.686  0.00  0.00    +0.110 C 
ATOM     29  C   UNL     1       0.889   3.896  19.701  0.00  0.00    +0.143 C 
ATOM     30  C   UNL     1       0.106   4.007  21.010  0.00  0.00    +0.133 C 
BRANCH  30  31
ATOM     31  N   UNL     1       0.780   4.929  21.937  0.00  0.00    -0.308 N 
ATOM     32  H   UNL     1       0.730   5.919  21.737  0.00  0.00    +0.149 HD
ATOM     33  C   UNL     1       1.453   4.545  23.025  0.00  0.00    +0.210 C 
ATOM     34  C   UNL     1       1.533   3.029  23.287  0.00  0.00    +0.109 C 
ATOM     35  O   UNL     1       1.996   5.342  23.792  0.00  0.00    -0.276 OA
ENDBRANCH  30  31
BRANCH  27  36
ATOM     36  C   UNL     1      -1.340   4.779  17.681  0.00  0.00    +0.414 C 
ATOM     37  O   UNL     1      -0.326   5.169  17.102  0.00  0.00    -0.240 OA
ATOM     38  O   UNL     1      -2.369   5.452  17.611  0.00  0.00    -0.240 OA
ENDBRANCH  27  36
BRANCH  27  39
ATOM     39  O   UNL     1      -2.025   2.430  17.748  0.00  0.00    -0.343 OA
ATOM     40  C   UNL     1      -1.232   1.263  17.417  0.00  0.00    +0.198 C 
ENDBRANCH  27  39
BRANCH  29  41
ATOM     41  O   UNL     1       2.180   3.349  19.970  0.00  0.00    -0.390 OA
ATOM     42  H   UNL     1       2.301   2.545  19.459  0.00  0.00    +0.210 HD
ENDBRANCH  29  41
ENDBRANCH  24  25
BRANCH  24  43
ATOM     43  O   UNL     1      -1.891   5.870  22.669  0.00  0.00    -0.387 OA
ATOM     44  H   UNL     1      -2.233   6.628  22.188  0.00  0.00    +0.210 HD
ENDBRANCH  24  43
ENDBRANCH   1  24
TORSDOF 15
