REMARK VINA RESULT:    -5.992      1.889      3.262
REMARK INTER + INTRA:         -13.328
REMARK INTER:                 -11.857
REMARK INTRA:                  -1.471
REMARK UNBOUND:                -2.608
REMARK  Name = lig_assembled_4.pdb
REMARK  19 active torsions:
REMARK  status: ('A' for Active; 'I' for Inactive)
REMARK    1  A    between atoms: _2  and  _9
REMARK    2  A    between atoms: _4  and  _21
REMARK    3  A    between atoms: _6  and  _7
REMARK    4  A    between atoms: _6  and  _21
REMARK    5  A    between atoms: _10  and  _11
REMARK    6  A    between atoms: _11  and  _12
REMARK    7  A    between atoms: _11  and  _13
REMARK    8  A    between atoms: _17  and  _37
REMARK    9  A    between atoms: _19  and  _25
REMARK   10  A    between atoms: _20  and  _24
REMARK   11  A    between atoms: _24  and  _25
REMARK   12  A    between atoms: _27  and  _28
REMARK   13  A    between atoms: _29  and  _30
REMARK   14  A    between atoms: _31  and  _33
REMARK   15  A    between atoms: _33  and  _34
REMARK   16  A    between atoms: _33  and  _35
REMARK   17  A    between atoms: _35  and  _36
REMARK   18  A    between atoms: _35  and  _37
REMARK   19  A    between atoms: _38  and  _40
REMARK                            x       y       z     vdW  Elec       q    Type
REMARK                         _______ _______ _______ _____ _____    ______ ____
ROOT
ATOM      1  C   UNL     1       5.779   3.722  33.547  0.00  0.00    +0.163 C 
ENDROOT
BRANCH   1   2
ATOM      2  O   UNL     1       6.623   3.322  32.455  0.00  0.00    -0.388 OA
ATOM      3  H   UNL     1       6.467   3.897  31.702  0.00  0.00    +0.210 HD
ENDBRANCH   1   2
BRANCH   1   4
ATOM      4  C   UNL     1       4.316   3.467  33.196  0.00  0.00    +0.141 C 
BRANCH   4   7
ATOM      5  C   UNL     1       2.932   3.114  31.180  0.00  0.00    +0.401 C 
ATOM      6  O   UNL     1       1.866   3.108  31.798  0.00  0.00    -0.226 OA
ATOM      7  N   UNL     1       4.126   3.270  31.754  0.00  0.00    -0.279 N 
ATOM      8  H   UNL     1       4.945   3.251  31.163  0.00  0.00    +0.152 HD
BRANCH   5   9
ATOM      9  O   UNL     1       2.913   2.942  29.760  0.00  0.00    -0.444 OA
BRANCH   9  10
ATOM     10  C   UNL     1       1.584   2.628  29.335  0.00  0.00    +0.292 C 
BRANCH  10  12
ATOM     11  N   UNL     1       0.147   3.973  27.846  0.00  0.00    -0.131 NA
ATOM     12  C   UNL     1       1.290   3.260  28.036  0.00  0.00    +0.121 A 
ATOM     13  C   UNL     1       2.005   3.232  26.860  0.00  0.00    +0.143 A 
ATOM     14  N   UNL     1       1.183   3.840  25.930  0.00  0.00    -0.219 N 
ATOM     15  N   UNL     1       0.105   4.342  26.573  0.00  0.00    -0.060 NA
BRANCH  14  16
ATOM     16  C   UNL     1       1.381   3.926  24.520  0.00  0.00    +0.070 A 
ATOM     17  C   UNL     1       1.574   2.789  23.688  0.00  0.00    -0.019 A 
ATOM     18  C   UNL     1       1.791   3.019  22.310  0.00  0.00    +0.006 A 
ATOM     19  C   UNL     1       1.831   4.305  21.770  0.00  0.00    +0.000 A 
ATOM     20  C   UNL     1       1.634   5.406  22.590  0.00  0.00    +0.002 A 
ATOM     21  C   UNL     1       1.413   5.220  23.953  0.00  0.00    +0.028 A 
BRANCH  17  22
ATOM     22  C   UNL     1       1.572   1.344  24.189  0.00  0.00    +0.015 C 
ATOM     23  C   UNL     1       2.963   0.711  24.357  0.00  0.00    +0.012 C 
ATOM     24  C   UNL     1       0.714   0.473  23.269  0.00  0.00    +0.012 C 
ENDBRANCH  17  22
ENDBRANCH  14  16
ENDBRANCH  10  12
ENDBRANCH   9  10
ENDBRANCH   5   9
ENDBRANCH   4   7
ENDBRANCH   1   4
BRANCH   1  25
ATOM     25  C   UNL     1       5.976   5.211  33.878  0.00  0.00    +0.175 C 
BRANCH  25  26
ATOM     26  C   UNL     1       6.468   5.424  35.317  0.00  0.00    +0.176 C 
ATOM     27  O   UNL     1       7.825   4.908  35.406  0.00  0.00    -0.332 OA
ATOM     28  C   UNL     1       8.501   5.122  36.689  0.00  0.00    +0.277 C 
ATOM     29  C   UNL     1       7.648   4.555  37.851  0.00  0.00    +0.110 C 
ATOM     30  C   UNL     1       6.188   5.050  37.780  0.00  0.00    +0.143 C 
ATOM     31  C   UNL     1       5.584   4.781  36.402  0.00  0.00    +0.133 C 
BRANCH  31  32
ATOM     32  N   UNL     1       4.223   5.334  36.319  0.00  0.00    -0.308 N 
ATOM     33  H   UNL     1       4.127   6.333  36.200  0.00  0.00    +0.149 HD
ATOM     34  C   UNL     1       3.107   4.603  36.390  0.00  0.00    +0.210 C 
ATOM     35  C   UNL     1       3.288   3.088  36.598  0.00  0.00    +0.109 C 
ATOM     36  O   UNL     1       1.981   5.092  36.303  0.00  0.00    -0.276 OA
ENDBRANCH  31  32
BRANCH  28  37
ATOM     37  C   UNL     1       8.762   6.624  36.927  0.00  0.00    +0.414 C 
ATOM     38  O   UNL     1       8.799   7.405  35.977  0.00  0.00    -0.240 OA
ATOM     39  O   UNL     1       8.935   7.054  38.068  0.00  0.00    -0.240 OA
ENDBRANCH  28  37
BRANCH  30  40
ATOM     40  O   UNL     1       5.406   4.387  38.775  0.00  0.00    -0.390 OA
ATOM     41  H   UNL     1       5.155   5.015  39.456  0.00  0.00    +0.210 HD
ENDBRANCH  30  40
BRANCH  28  42
ATOM     42  O   UNL     1       9.762   4.406  36.656  0.00  0.00    -0.343 OA
ATOM     43  C   UNL     1      10.064   3.641  37.850  0.00  0.00    +0.198 C 
ENDBRANCH  28  42
ENDBRANCH  25  26
BRANCH  25  44
ATOM     44  O   UNL     1       4.748   5.935  33.661  0.00  0.00    -0.387 OA
ATOM     45  H   UNL     1       4.533   5.928  32.725  0.00  0.00    +0.210 HD
ENDBRANCH  25  44
ENDBRANCH   1  25
TORSDOF 15
