REMARK VINA RESULT:    -5.270     19.920     23.320
REMARK INTER + INTRA:         -12.392
REMARK INTER:                  -9.504
REMARK INTRA:                  -2.888
REMARK UNBOUND:                -2.810
REMARK  Name = lig_assembled_53.pdb
REMARK  18 active torsions:
REMARK  status: ('A' for Active; 'I' for Inactive)
REMARK    1  A    between atoms: _2  and  _9
REMARK    2  A    between atoms: _4  and  _16
REMARK    3  A    between atoms: _5  and  _9
REMARK    4  A    between atoms: _5  and  _10
REMARK    5  A    between atoms: _6  and  _7
REMARK    6  A    between atoms: _6  and  _16
REMARK    7  A    between atoms: _12  and  _32
REMARK    8  A    between atoms: _14  and  _20
REMARK    9  A    between atoms: _15  and  _19
REMARK   10  A    between atoms: _19  and  _20
REMARK   11  A    between atoms: _22  and  _23
REMARK   12  A    between atoms: _24  and  _25
REMARK   13  A    between atoms: _26  and  _28
REMARK   14  A    between atoms: _28  and  _29
REMARK   15  A    between atoms: _28  and  _30
REMARK   16  A    between atoms: _30  and  _31
REMARK   17  A    between atoms: _30  and  _32
REMARK   18  A    between atoms: _33  and  _35
REMARK                            x       y       z     vdW  Elec       q    Type
REMARK                         _______ _______ _______ _____ _____    ______ ____
ROOT
ATOM      1  C   UNL     1      12.428  23.878  26.188  0.00  0.00    +0.175 C 
ENDROOT
BRANCH   1   2
ATOM      2  C   UNL     1      11.241  24.512  25.447  0.00  0.00    +0.176 C 
ATOM      3  O   UNL     1      10.219  23.490  25.283  0.00  0.00    -0.332 OA
ATOM      4  C   UNL     1       8.960  23.944  24.684  0.00  0.00    +0.277 C 
ATOM      5  C   UNL     1       9.226  24.641  23.328  0.00  0.00    +0.110 C 
ATOM      6  C   UNL     1      10.329  25.714  23.445  0.00  0.00    +0.143 C 
ATOM      7  C   UNL     1      11.592  25.135  24.083  0.00  0.00    +0.133 C 
BRANCH   7   8
ATOM      8  N   UNL     1      12.604  26.186  24.269  0.00  0.00    -0.308 N 
ATOM      9  H   UNL     1      12.379  26.954  24.886  0.00  0.00    +0.149 HD
ATOM     10  C   UNL     1      13.801  26.193  23.676  0.00  0.00    +0.210 C 
ATOM     11  C   UNL     1      14.104  25.022  22.721  0.00  0.00    +0.109 C 
ATOM     12  O   UNL     1      14.635  27.080  23.862  0.00  0.00    -0.276 OA
ENDBRANCH   7   8
BRANCH   4  13
ATOM     13  C   UNL     1       8.225  24.918  25.629  0.00  0.00    +0.414 C 
ATOM     14  O   UNL     1       8.543  24.990  26.815  0.00  0.00    -0.240 OA
ATOM     15  O   UNL     1       7.315  25.631  25.205  0.00  0.00    -0.240 OA
ENDBRANCH   4  13
BRANCH   4  16
ATOM     16  O   UNL     1       8.131  22.778  24.445  0.00  0.00    -0.343 OA
ATOM     17  C   UNL     1       7.434  22.773  23.174  0.00  0.00    +0.198 C 
ENDBRANCH   4  16
BRANCH   6  18
ATOM     18  O   UNL     1      10.647  26.222  22.149  0.00  0.00    -0.390 OA
ATOM     19  H   UNL     1      11.552  26.541  22.143  0.00  0.00    +0.210 HD
ENDBRANCH   6  18
ENDBRANCH   1   2
BRANCH   1  20
ATOM     20  O   UNL     1      12.670  22.546  25.691  0.00  0.00    -0.387 OA
ATOM     21  H   UNL     1      13.038  22.004  26.393  0.00  0.00    +0.210 HD
ENDBRANCH   1  20
BRANCH   1  22
ATOM     22  C   UNL     1      12.208  23.843  27.710  0.00  0.00    +0.163 C 
BRANCH  22  23
ATOM     23  O   UNL     1      11.201  24.789  28.105  0.00  0.00    -0.388 OA
ATOM     24  H   UNL     1      10.372  24.577  27.668  0.00  0.00    +0.210 HD
ENDBRANCH  22  23
BRANCH  22  25
ATOM     25  C   UNL     1      13.521  24.152  28.422  0.00  0.00    +0.141 C 
BRANCH  25  28
ATOM     26  C   UNL     1      15.843  24.511  27.656  0.00  0.00    +0.401 C 
ATOM     27  O   UNL     1      16.056  25.442  28.437  0.00  0.00    -0.226 OA
ATOM     28  N   UNL     1      14.684  23.855  27.577  0.00  0.00    -0.279 N 
ATOM     29  H   UNL     1      14.602  23.112  26.897  0.00  0.00    +0.152 HD
BRANCH  26  30
ATOM     30  O   UNL     1      16.885  24.096  26.769  0.00  0.00    -0.444 OA
BRANCH  30  31
ATOM     31  C   UNL     1      16.785  22.688  26.541  0.00  0.00    +0.292 C 
BRANCH  31  33
ATOM     32  N   UNL     1      15.470  21.572  24.763  0.00  0.00    -0.131 NA
ATOM     33  C   UNL     1      16.487  22.414  25.123  0.00  0.00    +0.120 A 
ATOM     34  C   UNL     1      17.099  22.891  23.986  0.00  0.00    +0.137 A 
ATOM     35  N   UNL     1      16.454  22.255  22.969  0.00  0.00    -0.241 N 
ATOM     36  N   UNL     1      15.444  21.498  23.440  0.00  0.00    -0.065 NA
BRANCH  35  37
ATOM     37  C   UNL     1      16.594  22.400  21.534  0.00  0.00    +0.265 C 
BRANCH  37  38
ATOM     38  C   UNL     1      15.771  21.449  20.707  0.00  0.00    +0.326 C 
ATOM     39  O   UNL     1      14.832  21.737  19.980  0.00  0.00    -0.249 OA
BRANCH  38  40
ATOM     40  O   UNL     1      16.168  20.157  20.851  0.00  0.00    -0.479 OA
ATOM     41  H   UNL     1      16.741  19.806  20.142  0.00  0.00    +0.295 HD
ENDBRANCH  38  40
ENDBRANCH  37  38
ENDBRANCH  35  37
ENDBRANCH  31  33
ENDBRANCH  30  31
ENDBRANCH  26  30
ENDBRANCH  25  28
ENDBRANCH  22  25
ENDBRANCH   1  22
TORSDOF 16
