REMARK VINA RESULT:    -6.051      6.550     11.584
REMARK INTER + INTRA:         -12.885
REMARK INTER:                 -11.528
REMARK INTRA:                  -1.358
REMARK UNBOUND:                -2.413
REMARK  Name = lig_assembled_8.pdb
REMARK  16 active torsions:
REMARK  status: ('A' for Active; 'I' for Inactive)
REMARK    1  A    between atoms: _2  and  _9
REMARK    2  A    between atoms: _4  and  _18
REMARK    3  A    between atoms: _6  and  _7
REMARK    4  A    between atoms: _6  and  _18
REMARK    5  A    between atoms: _14  and  _34
REMARK    6  A    between atoms: _16  and  _22
REMARK    7  A    between atoms: _17  and  _21
REMARK    8  A    between atoms: _21  and  _22
REMARK    9  A    between atoms: _24  and  _25
REMARK   10  A    between atoms: _26  and  _27
REMARK   11  A    between atoms: _28  and  _30
REMARK   12  A    between atoms: _30  and  _31
REMARK   13  A    between atoms: _30  and  _32
REMARK   14  A    between atoms: _32  and  _33
REMARK   15  A    between atoms: _32  and  _34
REMARK   16  A    between atoms: _35  and  _37
REMARK                            x       y       z     vdW  Elec       q    Type
REMARK                         _______ _______ _______ _____ _____    ______ ____
ROOT
ATOM      1  C   UNL     1       7.294   2.394  34.483  0.00  0.00    +0.163 C 
ENDROOT
BRANCH   1   2
ATOM      2  O   UNL     1       7.230   2.466  35.917  0.00  0.00    -0.388 OA
ATOM      3  H   UNL     1       8.006   2.045  36.294  0.00  0.00    +0.210 HD
ENDBRANCH   1   2
BRANCH   1   4
ATOM      4  C   UNL     1       8.256   1.289  34.059  0.00  0.00    +0.141 C 
BRANCH   4   7
ATOM      5  C   UNL     1      10.472   1.939  34.938  0.00  0.00    +0.401 C 
ATOM      6  O   UNL     1      10.183   1.693  36.111  0.00  0.00    -0.226 OA
ATOM      7  N   UNL     1       9.631   1.785  33.915  0.00  0.00    -0.279 N 
ATOM      8  H   UNL     1       9.957   2.023  32.989  0.00  0.00    +0.152 HD
BRANCH   5   9
ATOM      9  O   UNL     1      11.782   2.424  34.632  0.00  0.00    -0.444 OA
BRANCH   9  10
ATOM     10  C   UNL     1      12.393   2.931  35.821  0.00  0.00    +0.292 C 
BRANCH  10  12
ATOM     11  N   UNL     1      14.090   3.894  34.309  0.00  0.00    -0.131 NA
ATOM     12  C   UNL     1      13.405   3.949  35.482  0.00  0.00    +0.121 A 
ATOM     13  C   UNL     1      13.822   5.053  36.189  0.00  0.00    +0.143 A 
ATOM     14  N   UNL     1      14.767   5.671  35.388  0.00  0.00    -0.219 N 
ATOM     15  N   UNL     1      14.912   4.932  34.266  0.00  0.00    -0.060 NA
BRANCH  14  16
ATOM     16  C   UNL     1      15.480   6.883  35.642  0.00  0.00    +0.081 A 
ATOM     17  C   UNL     1      15.637   7.797  34.576  0.00  0.00    +0.029 A 
ATOM     18  C   UNL     1      16.341   8.994  34.736  0.00  0.00    +0.002 A 
ATOM     19  C   UNL     1      16.904   9.309  35.963  0.00  0.00    +0.001 A 
ATOM     20  C   UNL     1      16.757   8.428  37.030  0.00  0.00    +0.017 A 
ATOM     21  C   UNL     1      16.049   7.218  36.887  0.00  0.00    +0.043 A 
ATOM     22 BR   UNL     1      15.978   6.185  38.487  0.00  0.00    -0.048 Br
ENDBRANCH  14  16
ENDBRANCH  10  12
ENDBRANCH   9  10
ENDBRANCH   5   9
ENDBRANCH   4   7
ENDBRANCH   1   4
BRANCH   1  23
ATOM     23  C   UNL     1       7.756   3.734  33.885  0.00  0.00    +0.175 C 
BRANCH  23  24
ATOM     24  C   UNL     1       7.134   4.936  34.612  0.00  0.00    +0.176 C 
ATOM     25  O   UNL     1       7.816   5.087  35.888  0.00  0.00    -0.332 OA
ATOM     26  C   UNL     1       7.424   6.256  36.681  0.00  0.00    +0.277 C 
ATOM     27  C   UNL     1       5.892   6.273  36.901  0.00  0.00    +0.110 C 
ATOM     28  C   UNL     1       5.124   6.084  35.575  0.00  0.00    +0.143 C 
ATOM     29  C   UNL     1       5.613   4.840  34.831  0.00  0.00    +0.133 C 
BRANCH  29  30
ATOM     30  N   UNL     1       4.936   4.719  33.531  0.00  0.00    -0.308 N 
ATOM     31  H   UNL     1       5.165   5.395  32.815  0.00  0.00    +0.149 HD
ATOM     32  C   UNL     1       4.039   3.775  33.234  0.00  0.00    +0.210 C 
ATOM     33  C   UNL     1       3.693   2.776  34.354  0.00  0.00    +0.109 C 
ATOM     34  O   UNL     1       3.499   3.689  32.131  0.00  0.00    -0.276 OA
ENDBRANCH  29  30
BRANCH  26  35
ATOM     35  C   UNL     1       7.859   7.561  35.982  0.00  0.00    +0.414 C 
ATOM     36  O   UNL     1       7.860   7.636  34.754  0.00  0.00    -0.240 OA
ATOM     37  O   UNL     1       8.209   8.538  36.646  0.00  0.00    -0.240 OA
ENDBRANCH  26  35
BRANCH  28  38
ATOM     38  O   UNL     1       3.727   5.954  35.842  0.00  0.00    -0.390 OA
ATOM     39  H   UNL     1       3.357   5.267  35.282  0.00  0.00    +0.210 HD
ENDBRANCH  28  38
BRANCH  26  40
ATOM     40  O   UNL     1       8.071   6.157  37.976  0.00  0.00    -0.343 OA
ATOM     41  C   UNL     1       9.225   5.280  38.019  0.00  0.00    +0.198 C 
ENDBRANCH  26  40
ENDBRANCH  23  24
BRANCH  23  42
ATOM     42  O   UNL     1       7.439   3.786  32.480  0.00  0.00    -0.387 OA
ATOM     43  H   UNL     1       6.494   3.665  32.360  0.00  0.00    +0.210 HD
ENDBRANCH  23  42
ENDBRANCH   1  23
TORSDOF 14
