REMARK VINA RESULT:    -6.812     13.616     17.987
REMARK INTER + INTRA:         -14.124
REMARK INTER:                 -12.344
REMARK INTRA:                  -1.780
REMARK UNBOUND:                -1.736
REMARK  Name = lig_assembled_59.pdb
REMARK  18 active torsions:
REMARK  status: ('A' for Active; 'I' for Inactive)
REMARK    1  A    between atoms: _2  and  _10
REMARK    2  A    between atoms: _5  and  _20
REMARK    3  A    between atoms: _7  and  _8
REMARK    4  A    between atoms: _7  and  _20
REMARK    5  A    between atoms: _13  and  _14
REMARK    6  A    between atoms: _14  and  _15
REMARK    7  A    between atoms: _16  and  _36
REMARK    8  A    between atoms: _18  and  _24
REMARK    9  A    between atoms: _19  and  _23
REMARK   10  A    between atoms: _23  and  _24
REMARK   11  A    between atoms: _26  and  _27
REMARK   12  A    between atoms: _28  and  _29
REMARK   13  A    between atoms: _30  and  _32
REMARK   14  A    between atoms: _32  and  _33
REMARK   15  A    between atoms: _32  and  _34
REMARK   16  A    between atoms: _34  and  _35
REMARK   17  A    between atoms: _34  and  _36
REMARK   18  A    between atoms: _37  and  _39
REMARK                            x       y       z     vdW  Elec       q    Type
REMARK                         _______ _______ _______ _____ _____    ______ ____
ROOT
ATOM      1  C   UNL     1      16.890   1.720  26.268  0.00  0.00    +0.163 C 
ENDROOT
BRANCH   1   2
ATOM      2  O   UNL     1      16.041   2.686  26.908  0.00  0.00    -0.388 OA
ATOM      3  H   UNL     1      16.500   3.068  27.661  0.00  0.00    +0.210 HD
ENDBRANCH   1   2
BRANCH   1   4
ATOM      4  C   UNL     1      16.396   1.412  24.844  0.00  0.00    +0.175 C 
BRANCH   4   5
ATOM      5  C   UNL     1      17.513   0.845  23.955  0.00  0.00    +0.176 C 
ATOM      6  O   UNL     1      17.512   1.589  22.705  0.00  0.00    -0.332 OA
ATOM      7  C   UNL     1      18.587   1.254  21.767  0.00  0.00    +0.277 C 
ATOM      8  C   UNL     1      18.593  -0.266  21.471  0.00  0.00    +0.110 C 
ATOM      9  C   UNL     1      18.563  -1.099  22.770  0.00  0.00    +0.143 C 
ATOM     10  C   UNL     1      17.408  -0.665  23.673  0.00  0.00    +0.133 C 
BRANCH  10  11
ATOM     11  N   UNL     1      17.441  -1.406  24.944  0.00  0.00    -0.308 N 
ATOM     12  H   UNL     1      18.187  -1.196  25.593  0.00  0.00    +0.149 HD
ATOM     13  C   UNL     1      16.551  -2.337  25.297  0.00  0.00    +0.210 C 
ATOM     14  C   UNL     1      15.441  -2.652  24.276  0.00  0.00    +0.109 C 
ATOM     15  O   UNL     1      16.596  -2.931  26.375  0.00  0.00    -0.276 OA
ENDBRANCH  10  11
BRANCH   7  16
ATOM     16  C   UNL     1      19.959   1.674  22.334  0.00  0.00    +0.414 C 
ATOM     17  O   UNL     1      20.994   1.210  21.860  0.00  0.00    -0.240 OA
ATOM     18  O   UNL     1      20.030   2.477  23.266  0.00  0.00    -0.240 OA
ENDBRANCH   7  16
BRANCH   7  19
ATOM     19  O   UNL     1      18.335   1.961  20.525  0.00  0.00    -0.343 OA
ATOM     20  C   UNL     1      17.006   1.776  19.974  0.00  0.00    +0.198 C 
ENDBRANCH   7  19
BRANCH   9  21
ATOM     21  O   UNL     1      18.416  -2.483  22.451  0.00  0.00    -0.390 OA
ATOM     22  H   UNL     1      19.249  -2.825  22.116  0.00  0.00    +0.210 HD
ENDBRANCH   9  21
ENDBRANCH   4   5
BRANCH   4  23
ATOM     23  O   UNL     1      15.839   2.599  24.244  0.00  0.00    -0.387 OA
ATOM     24  H   UNL     1      15.075   2.885  24.750  0.00  0.00    +0.210 HD
ENDBRANCH   4  23
ENDBRANCH   1   4
BRANCH   1  25
ATOM     25  C   UNL     1      18.322   2.241  26.209  0.00  0.00    +0.141 C 
BRANCH  25  28
ATOM     26  C   UNL     1      19.402   4.463  26.268  0.00  0.00    +0.401 C 
ATOM     27  O   UNL     1      20.419   4.058  26.835  0.00  0.00    -0.226 OA
ATOM     28  N   UNL     1      18.369   3.684  25.943  0.00  0.00    -0.279 N 
ATOM     29  H   UNL     1      17.574   4.111  25.488  0.00  0.00    +0.152 HD
BRANCH  26  30
ATOM     30  O   UNL     1      19.299   5.849  25.932  0.00  0.00    -0.444 OA
BRANCH  30  31
ATOM     31  C   UNL     1      20.342   6.577  26.585  0.00  0.00    +0.292 C 
BRANCH  31  33
ATOM     32  N   UNL     1      19.873   8.898  27.296  0.00  0.00    -0.131 NA
ATOM     33  C   UNL     1      19.770   7.555  27.530  0.00  0.00    +0.121 A 
ATOM     34  C   UNL     1      19.094   7.354  28.711  0.00  0.00    +0.145 A 
ATOM     35  N   UNL     1      18.799   8.619  29.167  0.00  0.00    -0.202 N 
ATOM     36  N   UNL     1      19.278   9.539  28.292  0.00  0.00    -0.059 NA
BRANCH  35  37
ATOM     37  C   UNL     1      18.119   8.967  30.365  0.00  0.00    +0.156 A 
ATOM     38  C   UNL     1      17.676   7.953  31.213  0.00  0.00    +0.048 A 
ATOM     39  C   UNL     1      16.973   8.301  32.365  0.00  0.00    +0.011 A 
ATOM     40  C   UNL     1      16.729   9.645  32.655  0.00  0.00    -0.004 A 
ATOM     41  C   UNL     1      17.210  10.588  31.751  0.00  0.00    +0.119 A 
ATOM     42  N   UNL     1      17.902  10.285  30.626  0.00  0.00    -0.236 NA
BRANCH  40  43
ATOM     43  C   UNL     1      15.895  10.036  33.839  0.00  0.00    +0.192 C 
BRANCH  43  44
ATOM     44  O   UNL     1      14.670  10.628  33.436  0.00  0.00    -0.390 OA
ATOM     45  H   UNL     1      14.032  10.478  34.157  0.00  0.00    +0.210 HD
ENDBRANCH  43  44
ENDBRANCH  40  43
ENDBRANCH  35  37
ENDBRANCH  31  33
ENDBRANCH  30  31
ENDBRANCH  26  30
ENDBRANCH  25  28
ENDBRANCH   1  25
TORSDOF 16
