REMARK VINA RESULT:    -5.400      5.396      7.175
REMARK INTER + INTRA:         -13.734
REMARK INTER:                 -10.863
REMARK INTRA:                  -2.871
REMARK UNBOUND:                -3.914
REMARK  Name = lig_assembled_73.pdb
REMARK  18 active torsions:
REMARK  status: ('A' for Active; 'I' for Inactive)
REMARK    1  A    between atoms: _2  and  _10
REMARK    2  A    between atoms: _3  and  _14
REMARK    3  A    between atoms: _5  and  _22
REMARK    4  A    between atoms: _7  and  _8
REMARK    5  A    between atoms: _7  and  _22
REMARK    6  A    between atoms: _13  and  _16
REMARK    7  A    between atoms: _18  and  _38
REMARK    8  A    between atoms: _20  and  _26
REMARK    9  A    between atoms: _21  and  _25
REMARK   10  A    between atoms: _25  and  _26
REMARK   11  A    between atoms: _28  and  _29
REMARK   12  A    between atoms: _30  and  _31
REMARK   13  A    between atoms: _32  and  _34
REMARK   14  A    between atoms: _34  and  _35
REMARK   15  A    between atoms: _34  and  _36
REMARK   16  A    between atoms: _36  and  _37
REMARK   17  A    between atoms: _36  and  _38
REMARK   18  A    between atoms: _39  and  _41
REMARK                            x       y       z     vdW  Elec       q    Type
REMARK                         _______ _______ _______ _____ _____    ______ ____
ROOT
ATOM      1  C   UNL     1       8.032   2.125  35.932  0.00  0.00    +0.163 C 
ENDROOT
BRANCH   1   2
ATOM      2  O   UNL     1       7.940   2.357  37.347  0.00  0.00    -0.388 OA
ATOM      3  H   UNL     1       7.023   2.509  37.588  0.00  0.00    +0.210 HD
ENDBRANCH   1   2
BRANCH   1   4
ATOM      4  C   UNL     1       8.676   3.326  35.218  0.00  0.00    +0.175 C 
BRANCH   4   5
ATOM      5  C   UNL     1       7.683   4.481  35.021  0.00  0.00    +0.176 C 
ATOM      6  O   UNL     1       7.530   5.163  36.296  0.00  0.00    -0.332 OA
ATOM      7  C   UNL     1       6.694   6.366  36.275  0.00  0.00    +0.277 C 
ATOM      8  C   UNL     1       5.300   6.047  35.683  0.00  0.00    +0.110 C 
ATOM      9  C   UNL     1       5.411   5.293  34.341  0.00  0.00    +0.143 C 
ATOM     10  C   UNL     1       6.305   4.060  34.476  0.00  0.00    +0.133 C 
BRANCH  10  11
ATOM     11  N   UNL     1       6.473   3.400  33.172  0.00  0.00    -0.308 N 
ATOM     12  H   UNL     1       7.031   3.871  32.473  0.00  0.00    +0.149 HD
ATOM     13  C   UNL     1       5.937   2.220  32.851  0.00  0.00    +0.210 C 
ATOM     14  C   UNL     1       5.071   1.540  33.928  0.00  0.00    +0.109 C 
ATOM     15  O   UNL     1       6.107   1.684  31.755  0.00  0.00    -0.276 OA
ENDBRANCH  10  11
BRANCH   7  16
ATOM     16  C   UNL     1       7.363   7.483  35.447  0.00  0.00    +0.414 C 
ATOM     17  O   UNL     1       6.714   8.107  34.608  0.00  0.00    -0.240 OA
ATOM     18  O   UNL     1       8.551   7.759  35.616  0.00  0.00    -0.240 OA
ENDBRANCH   7  16
BRANCH   9  19
ATOM     19  O   UNL     1       4.112   4.887  33.908  0.00  0.00    -0.390 OA
ATOM     20  H   UNL     1       3.997   3.949  34.075  0.00  0.00    +0.210 HD
ENDBRANCH   9  19
BRANCH   7  21
ATOM     21  O   UNL     1       6.518   6.814  37.644  0.00  0.00    -0.343 OA
ATOM     22  C   UNL     1       7.307   6.100  38.629  0.00  0.00    +0.198 C 
ENDBRANCH   7  21
ENDBRANCH   4   5
BRANCH   4  23
ATOM     23  O   UNL     1       9.219   2.915  33.948  0.00  0.00    -0.387 OA
ATOM     24  H   UNL     1       8.520   2.898  33.291  0.00  0.00    +0.210 HD
ENDBRANCH   4  23
ENDBRANCH   1   4
BRANCH   1  25
ATOM     25  C   UNL     1       8.855   0.870  35.662  0.00  0.00    +0.141 C 
BRANCH  25  28
ATOM     26  C   UNL     1       7.836  -0.906  34.280  0.00  0.00    +0.401 C 
ATOM     27  O   UNL     1       7.463  -1.575  35.247  0.00  0.00    -0.226 OA
ATOM     28  N   UNL     1       8.499   0.246  34.382  0.00  0.00    -0.279 N 
ATOM     29  H   UNL     1       8.771   0.717  33.530  0.00  0.00    +0.152 HD
BRANCH  26  30
ATOM     30  O   UNL     1       7.556  -1.378  32.959  0.00  0.00    -0.444 OA
BRANCH  30  31
ATOM     31  C   UNL     1       6.245  -1.948  32.924  0.00  0.00    +0.292 C 
BRANCH  31  33
ATOM     32  N   UNL     1       4.369  -1.201  31.493  0.00  0.00    -0.131 NA
ATOM     33  C   UNL     1       5.624  -1.726  31.604  0.00  0.00    +0.121 A 
ATOM     34  C   UNL     1       6.122  -1.971  30.346  0.00  0.00    +0.143 A 
ATOM     35  N   UNL     1       5.127  -1.568  29.486  0.00  0.00    -0.220 N 
ATOM     36  N   UNL     1       4.075  -1.107  30.203  0.00  0.00    -0.060 NA
BRANCH  35  37
ATOM     37  C   UNL     1       5.112  -1.597  28.067  0.00  0.00    +0.074 A 
ATOM     38  C   UNL     1       3.967  -1.166  27.373  0.00  0.00    +0.032 A 
ATOM     39  C   UNL     1       3.926  -1.195  25.972  0.00  0.00    +0.054 A 
ATOM     40  C   UNL     1       5.025  -1.657  25.252  0.00  0.00    +0.195 A 
ATOM     41  C   UNL     1       6.157  -2.082  25.945  0.00  0.00    +0.316 A 
ATOM     42  C   UNL     1       6.222  -2.053  27.346  0.00  0.00    +0.116 A 
BRANCH  41  43
ATOM     43  N   UNL     1       7.314  -2.577  25.225  0.00  0.00    +0.083 N 
ATOM     44  O   UNL     1       7.109  -3.310  24.248  0.00  0.00    +0.042 OA
ATOM     45  O   UNL     1       8.424  -2.303  25.702  0.00  0.00    -0.576 OA
ENDBRANCH  41  43
BRANCH  40  46
ATOM     46  O   UNL     1       4.992  -1.665  23.890  0.00  0.00    -0.501 OA
ATOM     47  H   UNL     1       5.803  -1.262  23.534  0.00  0.00    +0.292 HD
ENDBRANCH  40  46
ENDBRANCH  35  37
ENDBRANCH  31  33
ENDBRANCH  30  31
ENDBRANCH  26  30
ENDBRANCH  25  28
ENDBRANCH   1  25
TORSDOF 16
