REMARK VINA RESULT:    -5.757      5.538      7.080
REMARK INTER + INTRA:         -14.383
REMARK INTER:                 -12.049
REMARK INTRA:                  -2.334
REMARK UNBOUND:                -3.914
REMARK  Name = lig_assembled_73.pdb
REMARK  18 active torsions:
REMARK  status: ('A' for Active; 'I' for Inactive)
REMARK    1  A    between atoms: _2  and  _10
REMARK    2  A    between atoms: _3  and  _14
REMARK    3  A    between atoms: _5  and  _22
REMARK    4  A    between atoms: _7  and  _8
REMARK    5  A    between atoms: _7  and  _22
REMARK    6  A    between atoms: _13  and  _16
REMARK    7  A    between atoms: _18  and  _38
REMARK    8  A    between atoms: _20  and  _26
REMARK    9  A    between atoms: _21  and  _25
REMARK   10  A    between atoms: _25  and  _26
REMARK   11  A    between atoms: _28  and  _29
REMARK   12  A    between atoms: _30  and  _31
REMARK   13  A    between atoms: _32  and  _34
REMARK   14  A    between atoms: _34  and  _35
REMARK   15  A    between atoms: _34  and  _36
REMARK   16  A    between atoms: _36  and  _37
REMARK   17  A    between atoms: _36  and  _38
REMARK   18  A    between atoms: _39  and  _41
REMARK                            x       y       z     vdW  Elec       q    Type
REMARK                         _______ _______ _______ _____ _____    ______ ____
ROOT
ATOM      1  C   UNL     1       7.680   2.614  34.499  0.00  0.00    +0.163 C 
ENDROOT
BRANCH   1   2
ATOM      2  O   UNL     1       8.405   2.516  35.736  0.00  0.00    -0.388 OA
ATOM      3  H   UNL     1       9.155   1.928  35.622  0.00  0.00    +0.210 HD
ENDBRANCH   1   2
BRANCH   1   4
ATOM      4  C   UNL     1       7.914   3.979  33.830  0.00  0.00    +0.175 C 
BRANCH   4   5
ATOM      5  C   UNL     1       7.283   5.129  34.629  0.00  0.00    +0.176 C 
ATOM      6  O   UNL     1       8.038   5.286  35.861  0.00  0.00    -0.332 OA
ATOM      7  C   UNL     1       7.643   6.414  36.709  0.00  0.00    +0.277 C 
ATOM      8  C   UNL     1       6.129   6.346  37.028  0.00  0.00    +0.110 C 
ATOM      9  C   UNL     1       5.286   6.149  35.751  0.00  0.00    +0.143 C 
ATOM     10  C   UNL     1       5.786   4.950  34.944  0.00  0.00    +0.133 C 
BRANCH  10  11
ATOM     11  N   UNL     1       5.031   4.825  33.687  0.00  0.00    -0.308 N 
ATOM     12  H   UNL     1       5.188   5.520  32.971  0.00  0.00    +0.149 HD
ATOM     13  C   UNL     1       4.152   3.852  33.431  0.00  0.00    +0.210 C 
ATOM     14  C   UNL     1       3.916   2.823  34.552  0.00  0.00    +0.109 C 
ATOM     15  O   UNL     1       3.545   3.763  32.363  0.00  0.00    -0.276 OA
ENDBRANCH  10  11
BRANCH   7  16
ATOM     16  C   UNL     1       7.964   7.756  36.019  0.00  0.00    +0.414 C 
ATOM     17  O   UNL     1       8.077   7.812  34.795  0.00  0.00    -0.240 OA
ATOM     18  O   UNL     1       8.111   8.781  36.685  0.00  0.00    -0.240 OA
ENDBRANCH   7  16
BRANCH   9  19
ATOM     19  O   UNL     1       3.918   5.940  36.104  0.00  0.00    -0.390 OA
ATOM     20  H   UNL     1       3.742   4.998  36.164  0.00  0.00    +0.210 HD
ENDBRANCH   9  19
BRANCH   7  21
ATOM     21  O   UNL     1       8.378   6.318  37.956  0.00  0.00    -0.343 OA
ATOM     22  C   UNL     1       9.710   5.756  37.840  0.00  0.00    +0.198 C 
ENDBRANCH   7  21
ENDBRANCH   4   5
BRANCH   4  23
ATOM     23  O   UNL     1       7.398   3.968  32.484  0.00  0.00    -0.387 OA
ATOM     24  H   UNL     1       6.459   4.168  32.499  0.00  0.00    +0.210 HD
ENDBRANCH   4  23
ENDBRANCH   1   4
BRANCH   1  25
ATOM     25  C   UNL     1       8.114   1.501  33.551  0.00  0.00    +0.141 C 
BRANCH  25  28
ATOM     26  C   UNL     1       6.073   0.570  32.514  0.00  0.00    +0.401 C 
ATOM     27  O   UNL     1       5.912   1.525  31.751  0.00  0.00    -0.226 OA
ATOM     28  N   UNL     1       7.072   0.479  33.393  0.00  0.00    -0.279 N 
ATOM     29  H   UNL     1       7.114  -0.340  33.983  0.00  0.00    +0.152 HD
BRANCH  26  30
ATOM     30  O   UNL     1       5.142  -0.515  32.475  0.00  0.00    -0.444 OA
BRANCH  30  31
ATOM     31  C   UNL     1       5.840  -1.734  32.208  0.00  0.00    +0.292 C 
BRANCH  31  33
ATOM     32  N   UNL     1       7.447  -1.904  30.334  0.00  0.00    -0.131 NA
ATOM     33  C   UNL     1       6.156  -1.840  30.771  0.00  0.00    +0.121 A 
ATOM     34  C   UNL     1       5.312  -1.893  29.687  0.00  0.00    +0.143 A 
ATOM     35  N   UNL     1       6.141  -1.998  28.595  0.00  0.00    -0.220 N 
ATOM     36  N   UNL     1       7.430  -2.000  29.011  0.00  0.00    -0.060 NA
BRANCH  35  37
ATOM     37  C   UNL     1       5.798  -2.088  27.221  0.00  0.00    +0.074 A 
ATOM     38  C   UNL     1       4.651  -1.427  26.744  0.00  0.00    +0.032 A 
ATOM     39  C   UNL     1       4.287  -1.509  25.393  0.00  0.00    +0.054 A 
ATOM     40  C   UNL     1       5.062  -2.254  24.507  0.00  0.00    +0.195 A 
ATOM     41  C   UNL     1       6.197  -2.906  24.985  0.00  0.00    +0.316 A 
ATOM     42  C   UNL     1       6.583  -2.830  26.331  0.00  0.00    +0.116 A 
BRANCH  41  43
ATOM     43  N   UNL     1       7.018  -3.697  24.090  0.00  0.00    +0.083 N 
ATOM     44  O   UNL     1       8.236  -3.475  24.083  0.00  0.00    +0.042 OA
ATOM     45  O   UNL     1       6.422  -4.475  23.331  0.00  0.00    -0.576 OA
ENDBRANCH  41  43
BRANCH  40  46
ATOM     46  O   UNL     1       4.719  -2.316  23.190  0.00  0.00    -0.501 OA
ATOM     47  H   UNL     1       4.266  -1.497  22.924  0.00  0.00    +0.292 HD
ENDBRANCH  40  46
ENDBRANCH  35  37
ENDBRANCH  31  33
ENDBRANCH  30  31
ENDBRANCH  26  30
ENDBRANCH  25  28
ENDBRANCH   1  25
TORSDOF 16
