REMARK VINA RESULT:    -6.387      2.052      3.694
REMARK INTER + INTRA:         -16.241
REMARK INTER:                 -12.937
REMARK INTRA:                  -3.304
REMARK UNBOUND:                -3.133
REMARK  Name = lig_assembled_90.pdb
REMARK  22 active torsions:
REMARK  status: ('A' for Active; 'I' for Inactive)
REMARK    1  A    between atoms: _2  and  _13
REMARK    2  A    between atoms: _3  and  _15
REMARK    3  A    between atoms: _4  and  _17
REMARK    4  A    between atoms: _8  and  _28
REMARK    5  A    between atoms: _10  and  _11
REMARK    6  A    between atoms: _10  and  _28
REMARK    7  A    between atoms: _13  and  _14
REMARK    8  A    between atoms: _15  and  _16
REMARK    9  A    between atoms: _16  and  _17
REMARK   10  A    between atoms: _16  and  _22
REMARK   11  A    between atoms: _24  and  _44
REMARK   12  A    between atoms: _26  and  _32
REMARK   13  A    between atoms: _27  and  _31
REMARK   14  A    between atoms: _31  and  _32
REMARK   15  A    between atoms: _34  and  _35
REMARK   16  A    between atoms: _36  and  _37
REMARK   17  A    between atoms: _38  and  _40
REMARK   18  A    between atoms: _40  and  _41
REMARK   19  A    between atoms: _40  and  _42
REMARK   20  A    between atoms: _42  and  _43
REMARK   21  A    between atoms: _42  and  _44
REMARK   22  A    between atoms: _45  and  _47
REMARK                            x       y       z     vdW  Elec       q    Type
REMARK                         _______ _______ _______ _____ _____    ______ ____
ROOT
ATOM      1  C   UNL     1      17.588   5.276  22.932  0.00  0.00    +0.401 C 
ATOM      2  O   UNL     1      16.547   5.597  22.354  0.00  0.00    -0.226 OA
ATOM      3  N   UNL     1      17.827   4.055  23.413  0.00  0.00    -0.279 N 
ATOM      4  H   UNL     1      18.716   3.886  23.863  0.00  0.00    +0.152 HD
ENDROOT
BRANCH   3   5
ATOM      5  C   UNL     1      16.872   2.944  23.326  0.00  0.00    +0.141 C 
BRANCH   5   6
ATOM      6  C   UNL     1      17.457   1.748  22.583  0.00  0.00    +0.163 C 
BRANCH   6   7
ATOM      7  O   UNL     1      18.054   2.179  21.349  0.00  0.00    -0.388 OA
ATOM      8  H   UNL     1      17.366   2.332  20.697  0.00  0.00    +0.210 HD
ENDBRANCH   6   7
BRANCH   6   9
ATOM      9  C   UNL     1      18.492   1.044  23.477  0.00  0.00    +0.175 C 
BRANCH   9  10
ATOM     10  C   UNL     1      18.128   1.136  24.966  0.00  0.00    +0.176 C 
ATOM     11  O   UNL     1      19.296   1.622  25.683  0.00  0.00    -0.332 OA
ATOM     12  C   UNL     1      19.102   1.876  27.114  0.00  0.00    +0.277 C 
ATOM     13  C   UNL     1      18.545   0.614  27.816  0.00  0.00    +0.110 C 
ATOM     14  C   UNL     1      17.320   0.041  27.072  0.00  0.00    +0.143 C 
ATOM     15  C   UNL     1      17.632  -0.181  25.592  0.00  0.00    +0.133 C 
BRANCH  15  16
ATOM     16  N   UNL     1      16.433  -0.644  24.876  0.00  0.00    -0.308 N 
ATOM     17  H   UNL     1      15.668   0.008  24.766  0.00  0.00    +0.149 HD
ATOM     18  C   UNL     1      16.288  -1.868  24.362  0.00  0.00    +0.210 C 
ATOM     19  C   UNL     1      17.461  -2.845  24.569  0.00  0.00    +0.109 C 
ATOM     20  O   UNL     1      15.278  -2.223  23.755  0.00  0.00    -0.276 OA
ENDBRANCH  15  16
BRANCH  12  21
ATOM     21  C   UNL     1      18.135   3.058  27.334  0.00  0.00    +0.414 C 
ATOM     22  O   UNL     1      18.006   3.923  26.468  0.00  0.00    -0.240 OA
ATOM     23  O   UNL     1      17.483   3.146  28.375  0.00  0.00    -0.240 OA
ENDBRANCH  12  21
BRANCH  14  24
ATOM     24  O   UNL     1      16.934  -1.200  27.663  0.00  0.00    -0.390 OA
ATOM     25  H   UNL     1      17.485  -1.906  27.316  0.00  0.00    +0.210 HD
ENDBRANCH  14  24
BRANCH  12  26
ATOM     26  O   UNL     1      20.395   2.189  27.694  0.00  0.00    -0.343 OA
ATOM     27  C   UNL     1      21.163   3.186  26.974  0.00  0.00    +0.198 C 
ENDBRANCH  12  26
ENDBRANCH   9  10
BRANCH   9  28
ATOM     28  O   UNL     1      19.803   1.599  23.251  0.00  0.00    -0.387 OA
ATOM     29  H   UNL     1      19.974   2.290  23.896  0.00  0.00    +0.210 HD
ENDBRANCH   9  28
ENDBRANCH   6   9
ENDBRANCH   5   6
ENDBRANCH   3   5
BRANCH   1  30
ATOM     30  O   UNL     1      18.617   6.254  23.104  0.00  0.00    -0.444 OA
BRANCH  30  31
ATOM     31  C   UNL     1      19.587   5.768  24.034  0.00  0.00    +0.292 C 
BRANCH  31  33
ATOM     32  N   UNL     1      18.628   7.312  25.721  0.00  0.00    -0.131 NA
ATOM     33  C   UNL     1      19.724   6.700  25.170  0.00  0.00    +0.120 A 
ATOM     34  C   UNL     1      20.853   7.110  25.844  0.00  0.00    +0.137 A 
ATOM     35  N   UNL     1      20.377   7.952  26.804  0.00  0.00    -0.242 N 
ATOM     36  N   UNL     1      19.042   8.087  26.716  0.00  0.00    -0.065 NA
BRANCH  35  37
ATOM     37  C   UNL     1      21.126   8.736  27.755  0.00  0.00    +0.240 C 
BRANCH  37  38
ATOM     38  C   UNL     1      20.300   9.881  28.295  0.00  0.00    +0.235 C 
ATOM     39  O   UNL     1      20.432  11.038  27.899  0.00  0.00    -0.274 OA
ATOM     40  N   UNL     1      19.343   9.529  29.229  0.00  0.00    -0.311 N 
ATOM     41  H   UNL     1      19.446   8.645  29.722  0.00  0.00    +0.149 HD
BRANCH  40  42
ATOM     42  C   UNL     1      18.542  10.551  29.887  0.00  0.00    +0.137 C 
BRANCH  42  43
ATOM     43  C   UNL     1      17.957  10.033  31.209  0.00  0.00    +0.151 C 
BRANCH  43  44
ATOM     44  O   UNL     1      16.787  10.798  31.524  0.00  0.00    -0.388 OA
ATOM     45  H   UNL     1      16.940  11.281  32.361  0.00  0.00    +0.210 HD
ENDBRANCH  43  44
BRANCH  43  46
ATOM     46  C   UNL     1      17.642   8.534  31.142  0.00  0.00    +0.162 C 
BRANCH  46  47
ATOM     47  N   UNL     1      17.864   7.861  32.414  0.00  0.00    -0.269 N 
ATOM     48  C   UNL     1      19.104   7.425  32.827  0.00  0.00    +0.113 A 
ATOM     49  C   UNL     1      18.900   6.810  34.039  0.00  0.00    +0.137 A 
ATOM     50  N   UNL     1      17.573   6.851  34.384  0.00  0.00    -0.172 NA
ATOM     51  C   UNL     1      16.975   7.499  33.397  0.00  0.00    +0.450 A 
ATOM     52  N   UNL     1      15.556   7.760  33.394  0.00  0.00    +0.120 N 
ATOM     53  O   UNL     1      15.103   8.466  32.482  0.00  0.00    +0.045 OA
ATOM     54  O   UNL     1      14.884   7.249  34.298  0.00  0.00    -0.573 OA
ENDBRANCH  46  47
ENDBRANCH  43  46
ENDBRANCH  42  43
ENDBRANCH  40  42
ENDBRANCH  37  38
ENDBRANCH  35  37
ENDBRANCH  31  33
ENDBRANCH  30  31
ENDBRANCH   1  30
TORSDOF 20
