REMARK VINA RESULT:    -7.033      0.000      0.000
REMARK INTER + INTRA:         -16.461
REMARK INTER:                 -14.714
REMARK INTRA:                  -1.747
REMARK UNBOUND:                -2.643
REMARK  Name = lig_assembled_37.pdb
REMARK  21 active torsions:
REMARK  status: ('A' for Active; 'I' for Inactive)
REMARK    1  A    between atoms: _2  and  _9
REMARK    2  A    between atoms: _4  and  _24
REMARK    3  A    between atoms: _6  and  _7
REMARK    4  A    between atoms: _6  and  _24
REMARK    5  A    between atoms: _9  and  _10
REMARK    6  A    between atoms: _9  and  _11
REMARK    7  A    between atoms: _11  and  _18
REMARK    8  A    between atoms: _12  and  _13
REMARK    9  A    between atoms: _12  and  _18
REMARK   10  A    between atoms: _20  and  _40
REMARK   11  A    between atoms: _22  and  _28
REMARK   12  A    between atoms: _23  and  _27
REMARK   13  A    between atoms: _27  and  _28
REMARK   14  A    between atoms: _30  and  _31
REMARK   15  A    between atoms: _32  and  _33
REMARK   16  A    between atoms: _34  and  _36
REMARK   17  A    between atoms: _36  and  _37
REMARK   18  A    between atoms: _36  and  _38
REMARK   19  A    between atoms: _38  and  _39
REMARK   20  A    between atoms: _38  and  _40
REMARK   21  A    between atoms: _41  and  _43
REMARK                            x       y       z     vdW  Elec       q    Type
REMARK                         _______ _______ _______ _____ _____    ______ ____
ROOT
ATOM      1  C   UNL     1       4.890   3.509  33.435  0.00  0.00    +0.141 C 
ENDROOT
BRANCH   1   4
ATOM      2  C   UNL     1       2.578   3.947  32.681  0.00  0.00    +0.401 C 
ATOM      3  O   UNL     1       2.058   3.460  33.687  0.00  0.00    -0.226 OA
ATOM      4  N   UNL     1       3.895   4.006  32.477  0.00  0.00    -0.279 N 
ATOM      5  H   UNL     1       4.226   4.416  31.615  0.00  0.00    +0.152 HD
BRANCH   2   6
ATOM      6  O   UNL     1       1.739   4.483  31.655  0.00  0.00    -0.444 OA
BRANCH   6   7
ATOM      7  C   UNL     1       0.959   3.433  31.078  0.00  0.00    +0.292 C 
BRANCH   7   9
ATOM      8  N   UNL     1       2.272   3.643  28.986  0.00  0.00    -0.131 NA
ATOM      9  C   UNL     1       1.064   3.461  29.607  0.00  0.00    +0.120 A 
ATOM     10  C   UNL     1       0.084   3.322  28.651  0.00  0.00    +0.138 A 
ATOM     11  N   UNL     1       0.749   3.457  27.469  0.00  0.00    -0.238 N 
ATOM     12  N   UNL     1       2.068   3.631  27.676  0.00  0.00    -0.065 NA
BRANCH  11  13
ATOM     13  C   UNL     1       0.243   3.369  26.113  0.00  0.00    +0.214 C 
ATOM     14  C   UNL     1      -1.031   2.528  26.046  0.00  0.00    +0.045 C 
BRANCH  13  15
ATOM     15  C   UNL     1      -0.005   4.743  25.532  0.00  0.00    +0.332 C 
ATOM     16  O   UNL     1      -0.941   5.466  25.856  0.00  0.00    -0.248 OA
BRANCH  15  17
ATOM     17  O   UNL     1       0.940   5.063  24.608  0.00  0.00    -0.458 OA
BRANCH  17  18
ATOM     18  C   UNL     1       1.932   4.059  24.345  0.00  0.00    +0.267 C 
BRANCH  18  19
ATOM     19  C   UNL     1       1.841   3.609  22.910  0.00  0.00    -0.010 A 
ATOM     20  C   UNL     1       1.762   4.550  21.874  0.00  0.00    +0.007 A 
ATOM     21  C   UNL     1       1.706   4.135  20.542  0.00  0.00    +0.000 A 
ATOM     22  C   UNL     1       1.724   2.776  20.233  0.00  0.00    +0.000 A 
ATOM     23  C   UNL     1       1.794   1.831  21.254  0.00  0.00    +0.000 A 
ATOM     24  C   UNL     1       1.849   2.244  22.587  0.00  0.00    +0.007 A 
ENDBRANCH  18  19
ENDBRANCH  17  18
ENDBRANCH  15  17
ENDBRANCH  13  15
ENDBRANCH  11  13
ENDBRANCH   7   9
ENDBRANCH   6   7
ENDBRANCH   2   6
ENDBRANCH   1   4
BRANCH   1  25
ATOM     25  C   UNL     1       6.128   2.959  32.735  0.00  0.00    +0.163 C 
BRANCH  25  26
ATOM     26  O   UNL     1       6.042   3.202  31.321  0.00  0.00    -0.388 OA
ATOM     27  H   UNL     1       5.193   3.602  31.115  0.00  0.00    +0.210 HD
ENDBRANCH  25  26
BRANCH  25  28
ATOM     28  C   UNL     1       7.388   3.613  33.329  0.00  0.00    +0.175 C 
BRANCH  28  29
ATOM     29  C   UNL     1       7.150   4.137  34.753  0.00  0.00    +0.176 C 
ATOM     30  O   UNL     1       7.329   5.580  34.734  0.00  0.00    -0.332 OA
ATOM     31  C   UNL     1       7.037   6.272  35.992  0.00  0.00    +0.277 C 
ATOM     32  C   UNL     1       7.859   5.658  37.152  0.00  0.00    +0.110 C 
ATOM     33  C   UNL     1       7.725   4.121  37.193  0.00  0.00    +0.143 C 
ATOM     34  C   UNL     1       8.049   3.505  35.832  0.00  0.00    +0.133 C 
BRANCH  34  35
ATOM     35  N   UNL     1       7.833   2.050  35.860  0.00  0.00    -0.308 N 
ATOM     36  H   UNL     1       6.931   1.713  36.166  0.00  0.00    +0.149 HD
ATOM     37  C   UNL     1       8.751   1.146  35.508  0.00  0.00    +0.210 C 
ATOM     38  C   UNL     1      10.124   1.691  35.070  0.00  0.00    +0.109 C 
ATOM     39  O   UNL     1       8.538  -0.067  35.527  0.00  0.00    -0.276 OA
ENDBRANCH  34  35
BRANCH  31  40
ATOM     40  C   UNL     1       5.533   6.188  36.326  0.00  0.00    +0.414 C 
ATOM     41  O   UNL     1       5.159   6.153  37.498  0.00  0.00    -0.240 OA
ATOM     42  O   UNL     1       4.694   6.156  35.425  0.00  0.00    -0.240 OA
ENDBRANCH  31  40
BRANCH  31  43
ATOM     43  O   UNL     1       7.426   7.662  35.842  0.00  0.00    -0.343 OA
ATOM     44  C   UNL     1       7.509   8.129  34.471  0.00  0.00    +0.198 C 
ENDBRANCH  31  43
BRANCH  33  45
ATOM     45  O   UNL     1       8.613   3.586  38.175  0.00  0.00    -0.390 OA
ATOM     46  H   UNL     1       8.921   2.722  37.892  0.00  0.00    +0.210 HD
ENDBRANCH  33  45
ENDBRANCH  28  29
BRANCH  28  47
ATOM     47  O   UNL     1       7.843   4.681  32.476  0.00  0.00    -0.387 OA
ATOM     48  H   UNL     1       7.260   4.755  31.716  0.00  0.00    +0.210 HD
ENDBRANCH  28  47
ENDBRANCH  25  28
ENDBRANCH   1  25
TORSDOF 18
