REMARK VINA RESULT:    -5.964      2.364      3.430
REMARK INTER + INTRA:         -13.937
REMARK INTER:                 -11.285
REMARK INTRA:                  -2.652
REMARK UNBOUND:                -2.569
REMARK  Name = lig_assembled_18.pdb
REMARK  19 active torsions:
REMARK  status: ('A' for Active; 'I' for Inactive)
REMARK    1  A    between atoms: _2  and  _10
REMARK    2  A    between atoms: _3  and  _12
REMARK    3  A    between atoms: _5  and  _21
REMARK    4  A    between atoms: _7  and  _8
REMARK    5  A    between atoms: _7  and  _21
REMARK    6  A    between atoms: _10  and  _11
REMARK    7  A    between atoms: _12  and  _13
REMARK    8  A    between atoms: _17  and  _37
REMARK    9  A    between atoms: _19  and  _25
REMARK   10  A    between atoms: _20  and  _24
REMARK   11  A    between atoms: _24  and  _25
REMARK   12  A    between atoms: _27  and  _28
REMARK   13  A    between atoms: _29  and  _30
REMARK   14  A    between atoms: _31  and  _33
REMARK   15  A    between atoms: _33  and  _34
REMARK   16  A    between atoms: _33  and  _35
REMARK   17  A    between atoms: _35  and  _36
REMARK   18  A    between atoms: _35  and  _37
REMARK   19  A    between atoms: _38  and  _40
REMARK                            x       y       z     vdW  Elec       q    Type
REMARK                         _______ _______ _______ _____ _____    ______ ____
ROOT
ATOM      1  C   UNL     1       3.003   2.701  36.035  0.00  0.00    +0.163 C 
ENDROOT
BRANCH   1   2
ATOM      2  O   UNL     1       3.092   1.283  35.819  0.00  0.00    -0.388 OA
ATOM      3  H   UNL     1       3.642   0.889  36.501  0.00  0.00    +0.210 HD
ENDBRANCH   1   2
BRANCH   1   4
ATOM      4  C   UNL     1       4.396   3.353  35.984  0.00  0.00    +0.175 C 
BRANCH   4   5
ATOM      5  C   UNL     1       5.185   2.934  34.735  0.00  0.00    +0.176 C 
ATOM      6  O   UNL     1       5.865   1.684  35.035  0.00  0.00    -0.332 OA
ATOM      7  C   UNL     1       6.589   1.072  33.917  0.00  0.00    +0.277 C 
ATOM      8  C   UNL     1       7.593   2.080  33.306  0.00  0.00    +0.110 C 
ATOM      9  C   UNL     1       6.922   3.436  32.999  0.00  0.00    +0.143 C 
ATOM     10  C   UNL     1       6.196   3.980  34.230  0.00  0.00    +0.133 C 
BRANCH  10  11
ATOM     11  N   UNL     1       5.489   5.227  33.901  0.00  0.00    -0.308 N 
ATOM     12  H   UNL     1       4.704   5.172  33.267  0.00  0.00    +0.149 HD
ATOM     13  C   UNL     1       5.817   6.428  34.385  0.00  0.00    +0.210 C 
ATOM     14  C   UNL     1       7.034   6.483  35.327  0.00  0.00    +0.109 C 
ATOM     15  O   UNL     1       5.197   7.455  34.104  0.00  0.00    -0.276 OA
ENDBRANCH  10  11
BRANCH   7  16
ATOM     16  C   UNL     1       5.609   0.594  32.826  0.00  0.00    +0.414 C 
ATOM     17  O   UNL     1       5.998   0.433  31.670  0.00  0.00    -0.240 OA
ATOM     18  O   UNL     1       4.429   0.371  33.101  0.00  0.00    -0.240 OA
ENDBRANCH   7  16
BRANCH   7  19
ATOM     19  O   UNL     1       7.336  -0.061  34.432  0.00  0.00    -0.343 OA
ATOM     20  C   UNL     1       8.160   0.225  35.591  0.00  0.00    +0.198 C 
ENDBRANCH   7  19
BRANCH   9  21
ATOM     21  O   UNL     1       7.911   4.378  32.581  0.00  0.00    -0.390 OA
ATOM     22  H   UNL     1       8.121   4.967  33.310  0.00  0.00    +0.210 HD
ENDBRANCH   9  21
ENDBRANCH   4   5
BRANCH   4  23
ATOM     23  O   UNL     1       5.141   3.029  37.174  0.00  0.00    -0.387 OA
ATOM     24  H   UNL     1       5.134   3.782  37.771  0.00  0.00    +0.210 HD
ENDBRANCH   4  23
ENDBRANCH   1   4
BRANCH   1  25
ATOM     25  C   UNL     1       2.104   3.334  34.979  0.00  0.00    +0.141 C 
BRANCH  25  28
ATOM     26  C   UNL     1       2.124   2.943  32.539  0.00  0.00    +0.401 C 
ATOM     27  O   UNL     1       2.359   4.120  32.257  0.00  0.00    -0.226 OA
ATOM     28  N   UNL     1       1.983   2.488  33.785  0.00  0.00    -0.279 N 
ATOM     29  H   UNL     1       1.782   1.507  33.915  0.00  0.00    +0.152 HD
BRANCH  26  30
ATOM     30  O   UNL     1       1.986   1.990  31.482  0.00  0.00    -0.444 OA
BRANCH  30  31
ATOM     31  C   UNL     1       0.847   2.324  30.683  0.00  0.00    +0.292 C 
BRANCH  31  33
ATOM     32  N   UNL     1       1.829   3.738  28.899  0.00  0.00    -0.131 NA
ATOM     33  C   UNL     1       1.252   2.556  29.284  0.00  0.00    +0.120 A 
ATOM     34  C   UNL     1       1.149   1.731  28.189  0.00  0.00    +0.137 A 
ATOM     35  N   UNL     1       1.705   2.453  27.174  0.00  0.00    -0.242 N 
ATOM     36  N   UNL     1       2.093   3.669  27.601  0.00  0.00    -0.065 NA
BRANCH  35  37
ATOM     37  C   UNL     1       1.795   2.118  25.773  0.00  0.00    +0.240 C 
BRANCH  37  38
ATOM     38  C   UNL     1       0.919   3.002  24.915  0.00  0.00    +0.235 C 
ATOM     39  O   UNL     1      -0.212   2.665  24.572  0.00  0.00    -0.274 OA
ATOM     40  N   UNL     1       1.459   4.232  24.597  0.00  0.00    -0.309 N 
ATOM     41  H   UNL     1       2.441   4.411  24.750  0.00  0.00    +0.149 HD
BRANCH  40  42
ATOM     42  C   UNL     1       0.729   5.192  23.794  0.00  0.00    +0.146 C 
BRANCH  42  43
ATOM     43  C   UNL     1       0.801   4.800  22.354  0.00  0.00    +0.007 A 
ATOM     44  S   UNL     1      -0.603   4.817  21.371  0.00  0.00    -0.100 S 
ATOM     45  C   UNL     1       0.258   4.224  20.018  0.00  0.00    +0.045 A 
ATOM     46  C   UNL     1       1.593   4.029  20.297  0.00  0.00    +0.008 A 
ATOM     47  C   UNL     1       1.907   4.370  21.645  0.00  0.00    +0.013 A 
ENDBRANCH  42  43
ENDBRANCH  40  42
ENDBRANCH  37  38
ENDBRANCH  35  37
ENDBRANCH  31  33
ENDBRANCH  30  31
ENDBRANCH  26  30
ENDBRANCH  25  28
ENDBRANCH   1  25
TORSDOF 17
