REMARK VINA RESULT:    -6.374      6.222      9.121
REMARK INTER + INTRA:         -14.121
REMARK INTER:                 -10.133
REMARK INTRA:                  -3.988
REMARK UNBOUND:                -3.089
REMARK  Name = lig_assembled_91.pdb
REMARK  16 active torsions:
REMARK  status: ('A' for Active; 'I' for Inactive)
REMARK    1  A    between atoms: _2  and  _10
REMARK    2  A    between atoms: _5  and  _26
REMARK    3  A    between atoms: _7  and  _8
REMARK    4  A    between atoms: _7  and  _26
REMARK    5  A    between atoms: _22  and  _42
REMARK    6  A    between atoms: _24  and  _30
REMARK    7  A    between atoms: _25  and  _29
REMARK    8  A    between atoms: _29  and  _30
REMARK    9  A    between atoms: _32  and  _33
REMARK   10  A    between atoms: _34  and  _35
REMARK   11  A    between atoms: _36  and  _38
REMARK   12  A    between atoms: _38  and  _39
REMARK   13  A    between atoms: _38  and  _40
REMARK   14  A    between atoms: _40  and  _41
REMARK   15  A    between atoms: _40  and  _42
REMARK   16  A    between atoms: _43  and  _45
REMARK                            x       y       z     vdW  Elec       q    Type
REMARK                         _______ _______ _______ _____ _____    ______ ____
ROOT
ATOM      1  C   UNL     1       0.478  -4.323  25.223  0.00  0.00    +0.401 C 
ATOM      2  O   UNL     1       0.937  -5.416  24.885  0.00  0.00    -0.226 OA
ATOM      3  N   UNL     1       0.634  -3.792  26.436  0.00  0.00    -0.279 N 
ATOM      4  H   UNL     1       0.228  -2.884  26.616  0.00  0.00    +0.152 HD
ENDROOT
BRANCH   3   5
ATOM      5  C   UNL     1       1.365  -4.451  27.526  0.00  0.00    +0.141 C 
BRANCH   5   6
ATOM      6  C   UNL     1       2.504  -3.584  28.053  0.00  0.00    +0.163 C 
BRANCH   6   7
ATOM      7  O   UNL     1       3.009  -4.131  29.282  0.00  0.00    -0.388 OA
ATOM      8  H   UNL     1       3.321  -3.419  29.846  0.00  0.00    +0.210 HD
ENDBRANCH   6   7
BRANCH   6   9
ATOM      9  C   UNL     1       3.614  -3.494  26.992  0.00  0.00    +0.175 C 
BRANCH   9  10
ATOM     10  C   UNL     1       5.015  -3.477  27.622  0.00  0.00    +0.176 C 
ATOM     11  O   UNL     1       5.045  -2.416  28.616  0.00  0.00    -0.332 OA
ATOM     12  C   UNL     1       6.279  -2.317  29.401  0.00  0.00    +0.277 C 
ATOM     13  C   UNL     1       7.507  -2.193  28.465  0.00  0.00    +0.110 C 
ATOM     14  C   UNL     1       7.502  -3.282  27.371  0.00  0.00    +0.143 C 
ATOM     15  C   UNL     1       6.170  -3.298  26.620  0.00  0.00    +0.133 C 
BRANCH  15  16
ATOM     16  N   UNL     1       6.145  -4.395  25.640  0.00  0.00    -0.308 N 
ATOM     17  H   UNL     1       6.181  -5.342  25.991  0.00  0.00    +0.149 HD
ATOM     18  C   UNL     1       6.077  -4.222  24.317  0.00  0.00    +0.210 C 
ATOM     19  C   UNL     1       6.050  -2.767  23.813  0.00  0.00    +0.109 C 
ATOM     20  O   UNL     1       6.043  -5.161  23.521  0.00  0.00    -0.276 OA
ENDBRANCH  15  16
BRANCH  12  21
ATOM     21  C   UNL     1       6.449  -3.551  30.312  0.00  0.00    +0.414 C 
ATOM     22  O   UNL     1       5.467  -4.068  30.843  0.00  0.00    -0.240 OA
ATOM     23  O   UNL     1       7.566  -4.028  30.516  0.00  0.00    -0.240 OA
ENDBRANCH  12  21
BRANCH  14  24
ATOM     24  O   UNL     1       8.562  -3.039  26.445  0.00  0.00    -0.390 OA
ATOM     25  H   UNL     1       8.363  -3.470  25.610  0.00  0.00    +0.210 HD
ENDBRANCH  14  24
BRANCH  12  26
ATOM     26  O   UNL     1       6.200  -1.117  30.213  0.00  0.00    -0.343 OA
ATOM     27  C   UNL     1       4.857  -0.625  30.448  0.00  0.00    +0.198 C 
ENDBRANCH  12  26
ENDBRANCH   9  10
BRANCH   9  28
ATOM     28  O   UNL     1       3.424  -2.325  26.172  0.00  0.00    -0.387 OA
ATOM     29  H   UNL     1       4.006  -2.370  25.409  0.00  0.00    +0.210 HD
ENDBRANCH   9  28
ENDBRANCH   6   9
ENDBRANCH   5   6
ENDBRANCH   3   5
BRANCH   1  30
ATOM     30  O   UNL     1      -0.269  -3.559  24.272  0.00  0.00    -0.444 OA
BRANCH  30  31
ATOM     31  C   UNL     1       0.601  -3.117  23.227  0.00  0.00    +0.292 C 
BRANCH  31  33
ATOM     32  N   UNL     1       2.605  -1.700  23.493  0.00  0.00    -0.131 NA
ATOM     33  C   UNL     1       1.257  -1.848  23.600  0.00  0.00    +0.121 A 
ATOM     34  C   UNL     1       0.715  -0.671  24.064  0.00  0.00    +0.143 A 
ATOM     35  N   UNL     1       1.787   0.172  24.275  0.00  0.00    -0.218 N 
ATOM     36  N   UNL     1       2.918  -0.478  23.898  0.00  0.00    -0.060 NA
BRANCH  35  37
ATOM     37  C   UNL     1       1.812   1.501  24.799  0.00  0.00    +0.085 A 
ATOM     38  C   UNL     1       1.791   2.633  23.906  0.00  0.00    +0.026 A 
ATOM     39  C   UNL     1       1.844   3.897  24.525  0.00  0.00    +0.074 A 
ATOM     40  C   UNL     1       1.831   5.060  23.769  0.00  0.00    +0.028 A 
ATOM     41  C   UNL     1       1.760   5.042  22.380  0.00  0.00    +0.002 A 
ATOM     42  C   UNL     1       1.671   3.826  21.732  0.00  0.00    +0.001 A 
ATOM     43  N   UNL     1       1.885   4.077  25.843  0.00  0.00    -0.247 NA
ATOM     44  C   UNL     1       1.875   3.029  26.666  0.00  0.00    +0.074 A 
ATOM     45  C   UNL     1       1.924   3.332  28.023  0.00  0.00    +0.028 A 
ATOM     46  C   UNL     1       1.957   2.346  29.003  0.00  0.00    +0.002 A 
ATOM     47  C   UNL     1       1.955   1.020  28.619  0.00  0.00    +0.001 A 
ATOM     48  C   UNL     1       1.912   0.699  27.258  0.00  0.00    +0.012 A 
ATOM     49  C   UNL     1       1.664   2.644  22.481  0.00  0.00    +0.012 A 
ATOM     50  C   UNL     1       1.850   1.695  26.230  0.00  0.00    +0.026 A 
ENDBRANCH  35  37
ENDBRANCH  31  33
ENDBRANCH  30  31
ENDBRANCH   1  30
TORSDOF 14
