REMARK VINA RESULT:    -6.848     14.773     17.090
REMARK INTER + INTRA:         -13.969
REMARK INTER:                 -11.035
REMARK INTRA:                  -2.934
REMARK UNBOUND:                -2.118
REMARK  Name = lig_assembled_7.pdb
REMARK  19 active torsions:
REMARK  status: ('A' for Active; 'I' for Inactive)
REMARK    1  A    between atoms: _2  and  _9
REMARK    2  A    between atoms: _4  and  _21
REMARK    3  A    between atoms: _5  and  _16
REMARK    4  A    between atoms: _6  and  _7
REMARK    5  A    between atoms: _6  and  _21
REMARK    6  A    between atoms: _10  and  _11
REMARK    7  A    between atoms: _13  and  _14
REMARK    8  A    between atoms: _17  and  _37
REMARK    9  A    between atoms: _19  and  _25
REMARK   10  A    between atoms: _20  and  _24
REMARK   11  A    between atoms: _24  and  _25
REMARK   12  A    between atoms: _27  and  _28
REMARK   13  A    between atoms: _29  and  _30
REMARK   14  A    between atoms: _31  and  _33
REMARK   15  A    between atoms: _33  and  _34
REMARK   16  A    between atoms: _33  and  _35
REMARK   17  A    between atoms: _35  and  _36
REMARK   18  A    between atoms: _35  and  _37
REMARK   19  A    between atoms: _38  and  _40
REMARK                            x       y       z     vdW  Elec       q    Type
REMARK                         _______ _______ _______ _____ _____    ______ ____
ROOT
ATOM      1  C   UNL     1      16.903   3.807  23.000  0.00  0.00    +0.163 C 
ENDROOT
BRANCH   1   2
ATOM      2  O   UNL     1      16.029   2.889  23.677  0.00  0.00    -0.388 OA
ATOM      3  H   UNL     1      15.157   3.281  23.764  0.00  0.00    +0.210 HD
ENDBRANCH   1   2
BRANCH   1   4
ATOM      4  C   UNL     1      17.016   3.429  21.527  0.00  0.00    +0.141 C 
BRANCH   4   7
ATOM      5  C   UNL     1      17.422   1.371  20.221  0.00  0.00    +0.401 C 
ATOM      6  O   UNL     1      16.839   1.781  19.215  0.00  0.00    -0.226 OA
ATOM      7  N   UNL     1      17.547   2.072  21.349  0.00  0.00    -0.279 N 
ATOM      8  H   UNL     1      18.035   1.646  22.124  0.00  0.00    +0.152 HD
BRANCH   5   9
ATOM      9  O   UNL     1      18.004   0.064  20.203  0.00  0.00    -0.444 OA
BRANCH   9  10
ATOM     10  C   UNL     1      18.969  -0.044  21.252  0.00  0.00    +0.292 C 
BRANCH  10  12
ATOM     11  N   UNL     1      19.432  -2.356  21.972  0.00  0.00    -0.131 NA
ATOM     12  C   UNL     1      18.685  -1.224  22.088  0.00  0.00    +0.121 A 
ATOM     13  C   UNL     1      17.726  -1.423  23.062  0.00  0.00    +0.143 A 
ATOM     14  N   UNL     1      17.897  -2.725  23.484  0.00  0.00    -0.219 N 
ATOM     15  N   UNL     1      18.969  -3.245  22.835  0.00  0.00    -0.060 NA
BRANCH  14  16
ATOM     16  C   UNL     1      17.144  -3.482  24.440  0.00  0.00    +0.073 A 
ATOM     17  C   UNL     1      17.613  -3.576  25.785  0.00  0.00    -0.024 A 
ATOM     18  C   UNL     1      16.877  -4.319  26.733  0.00  0.00    +0.008 A 
ATOM     19  C   UNL     1      15.689  -4.961  26.393  0.00  0.00    -0.050 A 
ATOM     20  C   UNL     1      14.931  -5.739  27.425  0.00  0.00    +0.044 C 
ATOM     21  C   UNL     1      15.234  -4.864  25.080  0.00  0.00    +0.008 A 
ATOM     22  C   UNL     1      18.850  -2.882  26.313  0.00  0.00    +0.046 C 
ATOM     23  C   UNL     1      15.947  -4.155  24.085  0.00  0.00    -0.024 A 
ATOM     24  C   UNL     1      15.348  -4.281  22.707  0.00  0.00    +0.046 C 
ENDBRANCH  14  16
ENDBRANCH  10  12
ENDBRANCH   9  10
ENDBRANCH   5   9
ENDBRANCH   4   7
ENDBRANCH   1   4
BRANCH   1  25
ATOM     25  C   UNL     1      18.302   3.807  23.639  0.00  0.00    +0.175 C 
BRANCH  25  26
ATOM     26  C   UNL     1      18.455   2.704  24.697  0.00  0.00    +0.176 C 
ATOM     27  O   UNL     1      17.889   3.197  25.942  0.00  0.00    -0.332 OA
ATOM     28  C   UNL     1      17.850   2.233  27.046  0.00  0.00    +0.277 C 
ATOM     29  C   UNL     1      19.262   1.652  27.307  0.00  0.00    +0.110 C 
ATOM     30  C   UNL     1      19.917   1.143  26.005  0.00  0.00    +0.143 C 
ATOM     31  C   UNL     1      19.901   2.225  24.924  0.00  0.00    +0.133 C 
BRANCH  31  32
ATOM     32  N   UNL     1      20.449   1.701  23.663  0.00  0.00    -0.308 N 
ATOM     33  H   UNL     1      19.980   0.914  23.236  0.00  0.00    +0.149 HD
ATOM     34  C   UNL     1      21.525   2.196  23.046  0.00  0.00    +0.210 C 
ATOM     35  C   UNL     1      22.232   3.378  23.736  0.00  0.00    +0.109 C 
ATOM     36  O   UNL     1      21.953   1.746  21.983  0.00  0.00    -0.276 OA
ENDBRANCH  31  32
BRANCH  28  37
ATOM     37  C   UNL     1      16.869   1.084  26.735  0.00  0.00    +0.414 C 
ATOM     38  O   UNL     1      15.843   1.302  26.092  0.00  0.00    -0.240 OA
ATOM     39  O   UNL     1      17.103  -0.060  27.127  0.00  0.00    -0.240 OA
ENDBRANCH  28  37
BRANCH  30  40
ATOM     40  O   UNL     1      21.268   0.758  26.265  0.00  0.00    -0.390 OA
ATOM     41  H   UNL     1      21.552   0.121  25.605  0.00  0.00    +0.210 HD
ENDBRANCH  30  40
BRANCH  28  42
ATOM     42  O   UNL     1      17.418   2.935  28.240  0.00  0.00    -0.343 OA
ATOM     43  C   UNL     1      18.437   3.746  28.877  0.00  0.00    +0.198 C 
ENDBRANCH  28  42
ENDBRANCH  25  26
BRANCH  25  44
ATOM     44  O   UNL     1      18.581   5.096  24.222  0.00  0.00    -0.387 OA
ATOM     45  H   UNL     1      17.882   5.327  24.839  0.00  0.00    +0.210 HD
ENDBRANCH  25  44
ENDBRANCH   1  25
TORSDOF 14
