REMARK VINA RESULT:    -6.093      5.548      7.789
REMARK INTER + INTRA:         -14.257
REMARK INTER:                 -11.547
REMARK INTRA:                  -2.709
REMARK UNBOUND:                -2.643
REMARK  Name = lig_assembled_21.pdb
REMARK  20 active torsions:
REMARK  status: ('A' for Active; 'I' for Inactive)
REMARK    1  A    between atoms: _2  and  _9
REMARK    2  A    between atoms: _4  and  _23
REMARK    3  A    between atoms: _6  and  _7
REMARK    4  A    between atoms: _6  and  _23
REMARK    5  A    between atoms: _9  and  _10
REMARK    6  A    between atoms: _11  and  _18
REMARK    7  A    between atoms: _12  and  _13
REMARK    8  A    between atoms: _12  and  _18
REMARK    9  A    between atoms: _19  and  _39
REMARK   10  A    between atoms: _21  and  _27
REMARK   11  A    between atoms: _22  and  _26
REMARK   12  A    between atoms: _26  and  _27
REMARK   13  A    between atoms: _29  and  _30
REMARK   14  A    between atoms: _31  and  _32
REMARK   15  A    between atoms: _33  and  _35
REMARK   16  A    between atoms: _35  and  _36
REMARK   17  A    between atoms: _35  and  _37
REMARK   18  A    between atoms: _37  and  _38
REMARK   19  A    between atoms: _37  and  _39
REMARK   20  A    between atoms: _40  and  _42
REMARK                            x       y       z     vdW  Elec       q    Type
REMARK                         _______ _______ _______ _____ _____    ______ ____
ROOT
ATOM      1  C   UNL     1       8.090   2.518  34.326  0.00  0.00    +0.163 C 
ENDROOT
BRANCH   1   2
ATOM      2  O   UNL     1       8.900   2.864  35.462  0.00  0.00    -0.388 OA
ATOM      3  H   UNL     1       9.629   3.422  35.178  0.00  0.00    +0.210 HD
ENDBRANCH   1   2
BRANCH   1   4
ATOM      4  C   UNL     1       7.937   3.716  33.374  0.00  0.00    +0.175 C 
BRANCH   4   5
ATOM      5  C   UNL     1       7.066   4.827  33.978  0.00  0.00    +0.176 C 
ATOM      6  O   UNL     1       7.813   5.442  35.063  0.00  0.00    -0.332 OA
ATOM      7  C   UNL     1       7.176   6.602  35.695  0.00  0.00    +0.277 C 
ATOM      8  C   UNL     1       5.752   6.238  36.181  0.00  0.00    +0.110 C 
ATOM      9  C   UNL     1       4.929   5.552  35.071  0.00  0.00    +0.143 C 
ATOM     10  C   UNL     1       5.686   4.362  34.482  0.00  0.00    +0.133 C 
BRANCH  10  11
ATOM     11  N   UNL     1       4.930   3.770  33.366  0.00  0.00    -0.308 N 
ATOM     12  H   UNL     1       4.833   4.315  32.521  0.00  0.00    +0.149 HD
ATOM     13  C   UNL     1       4.364   2.561  33.399  0.00  0.00    +0.210 C 
ATOM     14  C   UNL     1       4.508   1.767  34.710  0.00  0.00    +0.109 C 
ATOM     15  O   UNL     1       3.749   2.085  32.444  0.00  0.00    -0.276 OA
ENDBRANCH  10  11
BRANCH   7  16
ATOM     16  C   UNL     1       7.098   7.787  34.710  0.00  0.00    +0.414 C 
ATOM     17  O   UNL     1       6.006   8.203  34.326  0.00  0.00    -0.240 OA
ATOM     18  O   UNL     1       8.127   8.326  34.299  0.00  0.00    -0.240 OA
ENDBRANCH   7  16
BRANCH   9  19
ATOM     19  O   UNL     1       3.683   5.100  35.603  0.00  0.00    -0.390 OA
ATOM     20  H   UNL     1       3.249   5.824  36.062  0.00  0.00    +0.210 HD
ENDBRANCH   9  19
BRANCH   7  21
ATOM     21  O   UNL     1       7.971   6.977  36.849  0.00  0.00    -0.343 OA
ATOM     22  C   UNL     1       9.043   6.058  37.180  0.00  0.00    +0.198 C 
ENDBRANCH   7  21
ENDBRANCH   4   5
BRANCH   4  23
ATOM     23  O   UNL     1       7.387   3.283  32.114  0.00  0.00    -0.387 OA
ATOM     24  H   UNL     1       7.587   3.932  31.436  0.00  0.00    +0.210 HD
ENDBRANCH   4  23
ENDBRANCH   1   4
BRANCH   1  25
ATOM     25  C   UNL     1       8.716   1.347  33.576  0.00  0.00    +0.141 C 
BRANCH  25  28
ATOM     26  C   UNL     1       7.297  -0.648  33.905  0.00  0.00    +0.401 C 
ATOM     27  O   UNL     1       7.726  -0.882  35.038  0.00  0.00    -0.226 OA
ATOM     28  N   UNL     1       7.708   0.369  33.148  0.00  0.00    -0.279 N 
ATOM     29  H   UNL     1       7.304   0.473  32.228  0.00  0.00    +0.152 HD
BRANCH  26  30
ATOM     30  O   UNL     1       6.300  -1.509  33.349  0.00  0.00    -0.444 OA
BRANCH  30  31
ATOM     31  C   UNL     1       5.661  -0.853  32.251  0.00  0.00    +0.292 C 
BRANCH  31  33
ATOM     32  N   UNL     1       7.414  -1.461  30.619  0.00  0.00    -0.131 NA
ATOM     33  C   UNL     1       6.093  -1.453  30.976  0.00  0.00    +0.120 A 
ATOM     34  C   UNL     1       5.360  -2.090  30.000  0.00  0.00    +0.137 A 
ATOM     35  N   UNL     1       6.304  -2.546  29.119  0.00  0.00    -0.247 N 
ATOM     36  N   UNL     1       7.531  -2.130  29.481  0.00  0.00    -0.065 NA
BRANCH  35  37
ATOM     37  C   UNL     1       6.063  -3.436  27.988  0.00  0.00    +0.184 C 
BRANCH  37  38
ATOM     38  C   UNL     1       6.032  -2.776  26.630  0.00  0.00    +0.016 A 
ATOM     39  C   UNL     1       4.853  -2.220  26.101  0.00  0.00    +0.137 A 
ATOM     40  C   UNL     1       4.847  -1.611  24.845  0.00  0.00    +0.047 A 
ATOM     41  C   UNL     1       6.028  -1.536  24.107  0.00  0.00    +0.004 A 
ATOM     42  C   UNL     1       7.202  -2.094  24.608  0.00  0.00    +0.001 A 
ATOM     43  C   UNL     1       7.206  -2.707  25.862  0.00  0.00    +0.009 A 
BRANCH  39  44
ATOM     44  O   UNL     1       3.672  -2.384  26.862  0.00  0.00    -0.426 OA
BRANCH  44  45
ATOM     45  C   UNL     1       2.568  -1.539  26.728  0.00  0.00    +0.309 C 
ATOM     46  O   UNL     1       1.577  -1.720  26.033  0.00  0.00    -0.251 OA
ATOM     47  C   UNL     1       2.739  -0.367  27.648  0.00  0.00    +0.136 C 
ENDBRANCH  44  45
ENDBRANCH  39  44
ENDBRANCH  37  38
ENDBRANCH  35  37
ENDBRANCH  31  33
ENDBRANCH  30  31
ENDBRANCH  26  30
ENDBRANCH  25  28
ENDBRANCH   1  25
TORSDOF 17
