REMARK VINA RESULT:    -6.707      1.932      3.465
REMARK INTER + INTRA:         -13.744
REMARK INTER:                 -11.752
REMARK INTRA:                  -1.992
REMARK UNBOUND:                -2.135
REMARK  Name = lig_assembled_51.pdb
REMARK  16 active torsions:
REMARK  status: ('A' for Active; 'I' for Inactive)
REMARK    1  A    between atoms: _2  and  _9
REMARK    2  A    between atoms: _4  and  _22
REMARK    3  A    between atoms: _6  and  _7
REMARK    4  A    between atoms: _6  and  _22
REMARK    5  A    between atoms: _18  and  _38
REMARK    6  A    between atoms: _20  and  _26
REMARK    7  A    between atoms: _21  and  _25
REMARK    8  A    between atoms: _25  and  _26
REMARK    9  A    between atoms: _28  and  _29
REMARK   10  A    between atoms: _30  and  _31
REMARK   11  A    between atoms: _32  and  _34
REMARK   12  A    between atoms: _34  and  _35
REMARK   13  A    between atoms: _34  and  _36
REMARK   14  A    between atoms: _36  and  _37
REMARK   15  A    between atoms: _36  and  _38
REMARK   16  A    between atoms: _39  and  _41
REMARK                            x       y       z     vdW  Elec       q    Type
REMARK                         _______ _______ _______ _____ _____    ______ ____
ROOT
ATOM      1  C   UNL     1       7.419   3.102  33.192  0.00  0.00    +0.163 C 
ENDROOT
BRANCH   1   2
ATOM      2  O   UNL     1       7.751   4.435  32.773  0.00  0.00    -0.388 OA
ATOM      3  H   UNL     1       7.326   4.623  31.933  0.00  0.00    +0.210 HD
ENDBRANCH   1   2
BRANCH   1   4
ATOM      4  C   UNL     1       6.470   2.460  32.186  0.00  0.00    +0.141 C 
BRANCH   4   7
ATOM      5  C   UNL     1       4.055   2.698  31.719  0.00  0.00    +0.401 C 
ATOM      6  O   UNL     1       3.877   1.493  31.530  0.00  0.00    -0.226 OA
ATOM      7  N   UNL     1       5.236   3.238  32.024  0.00  0.00    -0.279 N 
ATOM      8  H   UNL     1       5.284   4.240  32.150  0.00  0.00    +0.152 HD
BRANCH   5   9
ATOM      9  O   UNL     1       2.944   3.591  31.605  0.00  0.00    -0.444 OA
BRANCH   9  10
ATOM     10  C   UNL     1       1.761   2.846  31.303  0.00  0.00    +0.292 C 
BRANCH  10  12
ATOM     11  N   UNL     1       0.137   3.953  29.798  0.00  0.00    -0.131 NA
ATOM     12  C   UNL     1       1.263   3.195  29.959  0.00  0.00    +0.120 A 
ATOM     13  C   UNL     1       1.765   2.869  28.720  0.00  0.00    +0.137 A 
ATOM     14  N   UNL     1       0.897   3.453  27.839  0.00  0.00    -0.245 N 
ATOM     15  N   UNL     1      -0.078   4.105  28.499  0.00  0.00    -0.065 NA
BRANCH  14  16
ATOM     16  C   UNL     1       0.945   3.415  26.376  0.00  0.00    +0.066 C 
ATOM     17  C   UNL     1      -0.021   4.478  25.783  0.00  0.00    +0.034 C 
ATOM     18  C   UNL     1       0.049   4.486  24.246  0.00  0.00    -0.008 C 
ATOM     19  C   UNL     1       1.488   4.801  23.807  0.00  0.00    +0.007 C 
ATOM     20  C   UNL     1       2.452   3.732  24.347  0.00  0.00    -0.008 C 
ATOM     21  C   UNL     1       2.034   2.354  23.813  0.00  0.00    +0.007 C 
ATOM     22  C   UNL     1       0.600   2.031  24.258  0.00  0.00    -0.008 C 
ATOM     23  C   UNL     1      -0.355   3.104  23.712  0.00  0.00    +0.007 C 
ATOM     24  C   UNL     1       2.387   3.722  25.884  0.00  0.00    +0.034 C 
ATOM     25  C   UNL     1       0.534   2.028  25.796  0.00  0.00    +0.034 C 
ENDBRANCH  14  16
ENDBRANCH  10  12
ENDBRANCH   9  10
ENDBRANCH   5   9
ENDBRANCH   4   7
ENDBRANCH   1   4
BRANCH   1  26
ATOM     26  C   UNL     1       6.763   3.110  34.584  0.00  0.00    +0.175 C 
BRANCH  26  27
ATOM     27  C   UNL     1       6.435   4.533  35.060  0.00  0.00    +0.176 C 
ATOM     28  O   UNL     1       7.600   5.050  35.760  0.00  0.00    -0.332 OA
ATOM     29  C   UNL     1       7.508   6.446  36.197  0.00  0.00    +0.277 C 
ATOM     30  C   UNL     1       6.241   6.661  37.060  0.00  0.00    +0.110 C 
ATOM     31  C   UNL     1       4.980   6.098  36.371  0.00  0.00    +0.143 C 
ATOM     32  C   UNL     1       5.187   4.641  35.955  0.00  0.00    +0.133 C 
BRANCH  32  33
ATOM     33  N   UNL     1       4.012   4.143  35.223  0.00  0.00    -0.308 N 
ATOM     34  H   UNL     1       3.747   4.622  34.374  0.00  0.00    +0.149 HD
ATOM     35  C   UNL     1       3.272   3.099  35.607  0.00  0.00    +0.210 C 
ATOM     36  C   UNL     1       3.686   2.407  36.919  0.00  0.00    +0.109 C 
ATOM     37  O   UNL     1       2.302   2.695  34.966  0.00  0.00    -0.276 OA
ENDBRANCH  32  33
BRANCH  29  38
ATOM     38  C   UNL     1       7.473   7.399  34.984  0.00  0.00    +0.414 C 
ATOM     39  O   UNL     1       7.618   8.610  35.141  0.00  0.00    -0.240 OA
ATOM     40  O   UNL     1       7.299   6.956  33.848  0.00  0.00    -0.240 OA
ENDBRANCH  29  38
BRANCH  31  41
ATOM     41  O   UNL     1       3.867   6.180  37.262  0.00  0.00    -0.390 OA
ATOM     42  H   UNL     1       3.161   5.611  36.946  0.00  0.00    +0.210 HD
ENDBRANCH  31  41
BRANCH  29  43
ATOM     43  O   UNL     1       8.672   6.738  37.013  0.00  0.00    -0.343 OA
ATOM     44  C   UNL     1       8.379   7.222  38.348  0.00  0.00    +0.198 C 
ENDBRANCH  29  43
ENDBRANCH  26  27
BRANCH  26  45
ATOM     45  O   UNL     1       7.618   2.452  35.540  0.00  0.00    -0.387 OA
ATOM     46  H   UNL     1       8.202   1.842  35.081  0.00  0.00    +0.210 HD
ENDBRANCH  26  45
ENDBRANCH   1  26
TORSDOF 14
