REMARK VINA RESULT:    -6.346      2.029      3.654
REMARK INTER + INTRA:         -15.111
REMARK INTER:                 -11.946
REMARK INTRA:                  -3.165
REMARK UNBOUND:                -2.643
REMARK  Name = lig_assembled_37.pdb
REMARK  21 active torsions:
REMARK  status: ('A' for Active; 'I' for Inactive)
REMARK    1  A    between atoms: _2  and  _9
REMARK    2  A    between atoms: _4  and  _24
REMARK    3  A    between atoms: _6  and  _7
REMARK    4  A    between atoms: _6  and  _24
REMARK    5  A    between atoms: _9  and  _10
REMARK    6  A    between atoms: _9  and  _11
REMARK    7  A    between atoms: _11  and  _18
REMARK    8  A    between atoms: _12  and  _13
REMARK    9  A    between atoms: _12  and  _18
REMARK   10  A    between atoms: _20  and  _40
REMARK   11  A    between atoms: _22  and  _28
REMARK   12  A    between atoms: _23  and  _27
REMARK   13  A    between atoms: _27  and  _28
REMARK   14  A    between atoms: _30  and  _31
REMARK   15  A    between atoms: _32  and  _33
REMARK   16  A    between atoms: _34  and  _36
REMARK   17  A    between atoms: _36  and  _37
REMARK   18  A    between atoms: _36  and  _38
REMARK   19  A    between atoms: _38  and  _39
REMARK   20  A    between atoms: _38  and  _40
REMARK   21  A    between atoms: _41  and  _43
REMARK                            x       y       z     vdW  Elec       q    Type
REMARK                         _______ _______ _______ _____ _____    ______ ____
ROOT
ATOM      1  C   UNL     1       2.477   2.693  31.584  0.00  0.00    +0.141 C 
ENDROOT
BRANCH   1   4
ATOM      2  C   UNL     1       1.836   3.593  29.373  0.00  0.00    +0.401 C 
ATOM      3  O   UNL     1       0.738   4.005  29.755  0.00  0.00    -0.226 OA
ATOM      4  N   UNL     1       2.710   2.962  30.159  0.00  0.00    -0.279 N 
ATOM      5  H   UNL     1       3.581   2.652  29.752  0.00  0.00    +0.152 HD
BRANCH   2   6
ATOM      6  O   UNL     1       2.214   3.787  28.008  0.00  0.00    -0.444 OA
BRANCH   6   7
ATOM      7  C   UNL     1       1.350   3.026  27.160  0.00  0.00    +0.292 C 
BRANCH   7   9
ATOM      8  N   UNL     1       0.031   4.856  26.131  0.00  0.00    -0.131 NA
ATOM      9  C   UNL     1       0.930   3.831  25.997  0.00  0.00    +0.120 A 
ATOM     10  C   UNL     1       1.313   3.739  24.678  0.00  0.00    +0.138 A 
ATOM     11  N   UNL     1       0.592   4.713  24.054  0.00  0.00    -0.238 N 
ATOM     12  N   UNL     1      -0.164   5.394  24.936  0.00  0.00    -0.065 NA
BRANCH  11  13
ATOM     13  C   UNL     1       0.602   5.114  22.660  0.00  0.00    +0.214 C 
ATOM     14  C   UNL     1       1.818   4.552  21.926  0.00  0.00    +0.045 C 
BRANCH  13  15
ATOM     15  C   UNL     1      -0.672   4.693  21.962  0.00  0.00    +0.332 C 
ATOM     16  O   UNL     1      -1.484   5.477  21.484  0.00  0.00    -0.248 OA
BRANCH  15  17
ATOM     17  O   UNL     1      -0.795   3.339  21.939  0.00  0.00    -0.458 OA
BRANCH  17  18
ATOM     18  C   UNL     1      -2.101   2.818  22.228  0.00  0.00    +0.267 C 
BRANCH  18  19
ATOM     19  C   UNL     1      -2.242   2.572  23.708  0.00  0.00    -0.010 A 
ATOM     20  C   UNL     1      -3.063   3.396  24.491  0.00  0.00    +0.007 A 
ATOM     21  C   UNL     1      -3.216   3.153  25.856  0.00  0.00    +0.000 A 
ATOM     22  C   UNL     1      -2.548   2.086  26.455  0.00  0.00    +0.000 A 
ATOM     23  C   UNL     1      -1.725   1.264  25.689  0.00  0.00    +0.000 A 
ATOM     24  C   UNL     1      -1.569   1.506  24.323  0.00  0.00    +0.007 A 
ENDBRANCH  18  19
ENDBRANCH  17  18
ENDBRANCH  15  17
ENDBRANCH  13  15
ENDBRANCH  11  13
ENDBRANCH   7   9
ENDBRANCH   6   7
ENDBRANCH   2   6
ENDBRANCH   1   4
BRANCH   1  25
ATOM     25  C   UNL     1       3.272   3.639  32.478  0.00  0.00    +0.163 C 
BRANCH  25  26
ATOM     26  O   UNL     1       2.488   4.005  33.625  0.00  0.00    -0.388 OA
ATOM     27  H   UNL     1       2.493   3.285  34.260  0.00  0.00    +0.210 HD
ENDBRANCH  25  26
BRANCH  25  28
ATOM     28  C   UNL     1       4.586   2.961  32.903  0.00  0.00    +0.175 C 
BRANCH  28  29
ATOM     29  C   UNL     1       5.232   3.659  34.109  0.00  0.00    +0.176 C 
ATOM     30  O   UNL     1       5.274   5.086  33.831  0.00  0.00    -0.332 OA
ATOM     31  C   UNL     1       5.767   5.930  34.923  0.00  0.00    +0.277 C 
ATOM     32  C   UNL     1       7.160   5.447  35.394  0.00  0.00    +0.110 C 
ATOM     33  C   UNL     1       7.173   3.930  35.672  0.00  0.00    +0.143 C 
ATOM     34  C   UNL     1       6.638   3.147  34.472  0.00  0.00    +0.133 C 
BRANCH  34  35
ATOM     35  N   UNL     1       6.574   1.710  34.781  0.00  0.00    -0.308 N 
ATOM     36  H   UNL     1       5.902   1.406  35.471  0.00  0.00    +0.149 HD
ATOM     37  C   UNL     1       7.346   0.782  34.209  0.00  0.00    +0.210 C 
ATOM     38  C   UNL     1       8.379   1.282  33.181  0.00  0.00    +0.109 C 
ATOM     39  O   UNL     1       7.260  -0.417  34.477  0.00  0.00    -0.276 OA
ENDBRANCH  34  35
BRANCH  31  40
ATOM     40  C   UNL     1       4.785   5.913  36.113  0.00  0.00    +0.414 C 
ATOM     41  O   UNL     1       3.620   5.552  35.951  0.00  0.00    -0.240 OA
ATOM     42  O   UNL     1       5.158   6.259  37.235  0.00  0.00    -0.240 OA
ENDBRANCH  31  40
BRANCH  31  43
ATOM     43  O   UNL     1       5.898   7.284  34.419  0.00  0.00    -0.343 OA
ATOM     44  C   UNL     1       7.208   7.881  34.600  0.00  0.00    +0.198 C 
ENDBRANCH  31  43
BRANCH  33  45
ATOM     45  O   UNL     1       8.506   3.503  35.956  0.00  0.00    -0.390 OA
ATOM     46  H   UNL     1       8.831   3.962  36.734  0.00  0.00    +0.210 HD
ENDBRANCH  33  45
ENDBRANCH  28  29
BRANCH  28  47
ATOM     47  O   UNL     1       5.508   2.928  31.796  0.00  0.00    -0.387 OA
ATOM     48  H   UNL     1       6.389   2.726  32.119  0.00  0.00    +0.210 HD
ENDBRANCH  28  47
ENDBRANCH  25  28
ENDBRANCH   1  25
TORSDOF 18
