REMARK VINA RESULT:    -6.646      6.828     12.216
REMARK INTER + INTRA:         -13.574
REMARK INTER:                 -10.556
REMARK INTRA:                  -3.018
REMARK UNBOUND:                -1.294
REMARK  Name = lig_assembled_24.pdb
REMARK  19 active torsions:
REMARK  status: ('A' for Active; 'I' for Inactive)
REMARK    1  A    between atoms: _2  and  _9
REMARK    2  A    between atoms: _4  and  _21
REMARK    3  A    between atoms: _6  and  _7
REMARK    4  A    between atoms: _6  and  _21
REMARK    5  A    between atoms: _9  and  _10
REMARK    6  A    between atoms: _13  and  _16
REMARK    7  A    between atoms: _14  and  _16
REMARK    8  A    between atoms: _17  and  _37
REMARK    9  A    between atoms: _19  and  _25
REMARK   10  A    between atoms: _20  and  _24
REMARK   11  A    between atoms: _24  and  _25
REMARK   12  A    between atoms: _27  and  _28
REMARK   13  A    between atoms: _29  and  _30
REMARK   14  A    between atoms: _31  and  _33
REMARK   15  A    between atoms: _33  and  _34
REMARK   16  A    between atoms: _33  and  _35
REMARK   17  A    between atoms: _35  and  _36
REMARK   18  A    between atoms: _35  and  _37
REMARK   19  A    between atoms: _38  and  _40
REMARK                            x       y       z     vdW  Elec       q    Type
REMARK                         _______ _______ _______ _____ _____    ______ ____
ROOT
ATOM      1  C   UNL     1      -2.061   3.604  22.692  0.00  0.00    +0.163 C 
ENDROOT
BRANCH   1   2
ATOM      2  O   UNL     1      -3.037   2.724  22.111  0.00  0.00    -0.388 OA
ATOM      3  H   UNL     1      -2.715   1.820  22.146  0.00  0.00    +0.210 HD
ENDBRANCH   1   2
BRANCH   1   4
ATOM      4  C   UNL     1      -1.635   4.691  21.690  0.00  0.00    +0.175 C 
BRANCH   4   5
ATOM      5  C   UNL     1      -0.611   4.169  20.672  0.00  0.00    +0.176 C 
ATOM      6  O   UNL     1      -1.326   3.382  19.681  0.00  0.00    -0.332 OA
ATOM      7  C   UNL     1      -0.519   2.886  18.562  0.00  0.00    +0.277 C 
ATOM      8  C   UNL     1       0.699   2.086  19.086  0.00  0.00    +0.110 C 
ATOM      9  C   UNL     1       1.473   2.870  20.166  0.00  0.00    +0.143 C 
ATOM     10  C   UNL     1       0.537   3.341  21.280  0.00  0.00    +0.133 C 
BRANCH  10  11
ATOM     11  N   UNL     1       1.270   4.160  22.257  0.00  0.00    -0.308 N 
ATOM     12  H   UNL     1       1.568   5.082  21.971  0.00  0.00    +0.149 HD
ATOM     13  C   UNL     1       1.568   3.765  23.498  0.00  0.00    +0.210 C 
ATOM     14  C   UNL     1       1.123   2.345  23.895  0.00  0.00    +0.109 C 
ATOM     15  O   UNL     1       2.170   4.478  24.301  0.00  0.00    -0.276 OA
ENDBRANCH  10  11
BRANCH   7  16
ATOM     16  C   UNL     1      -0.028   4.055  17.682  0.00  0.00    +0.414 C 
ATOM     17  O   UNL     1       0.940   3.906  16.938  0.00  0.00    -0.240 OA
ATOM     18  O   UNL     1      -0.601   5.145  17.715  0.00  0.00    -0.240 OA
ENDBRANCH   7  16
BRANCH   7  19
ATOM     19  O   UNL     1      -1.347   1.994  17.772  0.00  0.00    -0.343 OA
ATOM     20  C   UNL     1      -2.773   2.119  18.001  0.00  0.00    +0.198 C 
ENDBRANCH   7  19
BRANCH   9  21
ATOM     21  O   UNL     1       2.491   2.040  20.727  0.00  0.00    -0.390 OA
ATOM     22  H   UNL     1       2.903   1.523  20.030  0.00  0.00    +0.210 HD
ENDBRANCH   9  21
ENDBRANCH   4   5
BRANCH   4  23
ATOM     23  O   UNL     1      -1.102   5.832  22.392  0.00  0.00    -0.387 OA
ATOM     24  H   UNL     1      -0.783   5.557  23.255  0.00  0.00    +0.210 HD
ENDBRANCH   4  23
ENDBRANCH   1   4
BRANCH   1  25
ATOM     25  C   UNL     1      -2.632   4.261  23.945  0.00  0.00    +0.141 C 
BRANCH  25  28
ATOM     26  C   UNL     1      -1.088   5.074  25.694  0.00  0.00    +0.401 C 
ATOM     27  O   UNL     1      -1.130   6.248  25.319  0.00  0.00    -0.226 OA
ATOM     28  N   UNL     1      -1.753   4.079  25.107  0.00  0.00    -0.279 N 
ATOM     29  H   UNL     1      -1.647   3.147  25.482  0.00  0.00    +0.152 HD
BRANCH  26  30
ATOM     30  O   UNL     1      -0.279   4.735  26.824  0.00  0.00    -0.444 OA
BRANCH  30  31
ATOM     31  C   UNL     1      -0.770   3.531  27.419  0.00  0.00    +0.292 C 
BRANCH  31  33
ATOM     32  N   UNL     1       1.489   3.072  28.321  0.00  0.00    -0.131 NA
ATOM     33  C   UNL     1       0.346   2.616  27.722  0.00  0.00    +0.120 A 
ATOM     34  C   UNL     1       0.459   1.260  27.512  0.00  0.00    +0.137 A 
ATOM     35  N   UNL     1       1.661   0.934  28.067  0.00  0.00    -0.247 N 
ATOM     36  N   UNL     1       2.292   2.038  28.520  0.00  0.00    -0.065 NA
BRANCH  35  37
ATOM     37  C   UNL     1       2.291  -0.359  28.279  0.00  0.00    +0.180 C 
BRANCH  37  38
ATOM     38  C   UNL     1       3.260  -0.776  27.199  0.00  0.00    -0.026 A 
ATOM     39  C   UNL     1       2.987  -0.498  25.853  0.00  0.00    +0.009 A 
ATOM     40  C   UNL     1       3.890  -0.886  24.859  0.00  0.00    +0.046 A 
ATOM     41  C   UNL     1       5.079  -1.537  25.192  0.00  0.00    +0.120 A 
ATOM     42  C   UNL     1       5.344  -1.838  26.526  0.00  0.00    +0.046 A 
ATOM     43  C   UNL     1       4.441  -1.460  27.526  0.00  0.00    +0.009 A 
BRANCH  41  44
ATOM     44  O   UNL     1       5.873  -1.885  24.135  0.00  0.00    -0.495 OA
ATOM     45  C   UNL     1       7.211  -2.243  24.465  0.00  0.00    +0.277 C 
ENDBRANCH  41  44
ENDBRANCH  37  38
ENDBRANCH  35  37
ENDBRANCH  31  33
ENDBRANCH  30  31
ENDBRANCH  26  30
ENDBRANCH  25  28
ENDBRANCH   1  25
TORSDOF 16
