REMARK VINA RESULT:    -6.179     14.776     17.698
REMARK INTER + INTRA:         -13.065
REMARK INTER:                 -10.852
REMARK INTRA:                  -2.212
REMARK UNBOUND:                -2.370
REMARK  Name = lig_assembled_87.pdb
REMARK  17 active torsions:
REMARK  status: ('A' for Active; 'I' for Inactive)
REMARK    1  A    between atoms: _2  and  _10
REMARK    2  A    between atoms: _3  and  _13
REMARK    3  A    between atoms: _5  and  _21
REMARK    4  A    between atoms: _7  and  _8
REMARK    5  A    between atoms: _7  and  _21
REMARK    6  A    between atoms: _17  and  _37
REMARK    7  A    between atoms: _19  and  _25
REMARK    8  A    between atoms: _20  and  _24
REMARK    9  A    between atoms: _24  and  _25
REMARK   10  A    between atoms: _27  and  _28
REMARK   11  A    between atoms: _29  and  _30
REMARK   12  A    between atoms: _31  and  _33
REMARK   13  A    between atoms: _33  and  _34
REMARK   14  A    between atoms: _33  and  _35
REMARK   15  A    between atoms: _35  and  _36
REMARK   16  A    between atoms: _35  and  _37
REMARK   17  A    between atoms: _38  and  _40
REMARK                            x       y       z     vdW  Elec       q    Type
REMARK                         _______ _______ _______ _____ _____    ______ ____
ROOT
ATOM      1  C   UNL     1      19.399  -1.134  23.295  0.00  0.00    +0.163 C 
ENDROOT
BRANCH   1   2
ATOM      2  O   UNL     1      19.753  -0.607  24.584  0.00  0.00    -0.388 OA
ATOM      3  H   UNL     1      19.739   0.353  24.553  0.00  0.00    +0.210 HD
ENDBRANCH   1   2
BRANCH   1   4
ATOM      4  C   UNL     1      19.825  -0.162  22.199  0.00  0.00    +0.141 C 
BRANCH   4   7
ATOM      5  C   UNL     1      18.116   1.280  21.148  0.00  0.00    +0.401 C 
ATOM      6  O   UNL     1      17.985   0.561  20.154  0.00  0.00    -0.226 OA
ATOM      7  N   UNL     1      18.957   1.021  22.149  0.00  0.00    -0.279 N 
ATOM      8  H   UNL     1      19.000   1.676  22.917  0.00  0.00    +0.152 HD
BRANCH   5   9
ATOM      9  O   UNL     1      17.331   2.470  21.251  0.00  0.00    -0.444 OA
BRANCH   9  10
ATOM     10  C   UNL     1      17.080   2.759  22.630  0.00  0.00    +0.292 C 
BRANCH  10  12
ATOM     11  N   UNL     1      17.072   5.228  22.534  0.00  0.00    -0.131 NA
ATOM     12  C   UNL     1      17.648   4.072  22.983  0.00  0.00    +0.120 A 
ATOM     13  C   UNL     1      18.738   4.386  23.763  0.00  0.00    +0.137 A 
ATOM     14  N   UNL     1      18.706   5.752  23.856  0.00  0.00    -0.248 N 
ATOM     15  N   UNL     1      17.769   6.241  23.017  0.00  0.00    -0.065 NA
BRANCH  14  16
ATOM     16  C   UNL     1      19.501   6.686  24.674  0.00  0.00    +0.112 C 
ATOM     17  C   UNL     1      20.796   6.080  25.283  0.00  0.00    +0.045 C 
ATOM     18  C   UNL     1      20.886   6.105  26.818  0.00  0.00    +0.059 C 
ATOM     19  C   UNL     1      21.273   7.492  27.350  0.00  0.00    +0.020 C 
ATOM     20  C   UNL     1      19.943   8.155  27.705  0.00  0.00    +0.020 C 
ATOM     21  C   UNL     1      18.892   7.174  27.184  0.00  0.00    +0.059 C 
ATOM     22  N   UNL     1      19.590   5.922  27.459  0.00  0.00    -0.299 NA
ATOM     23  C   UNL     1      18.882   4.687  27.197  0.00  0.00    +0.105 C 
ATOM     24  C   UNL     1      18.602   7.435  25.705  0.00  0.00    +0.045 C 
ENDBRANCH  14  16
ENDBRANCH  10  12
ENDBRANCH   9  10
ENDBRANCH   5   9
ENDBRANCH   4   7
ENDBRANCH   1   4
BRANCH   1  25
ATOM     25  C   UNL     1      17.884  -1.383  23.200  0.00  0.00    +0.175 C 
BRANCH  25  26
ATOM     26  C   UNL     1      17.389  -2.352  24.284  0.00  0.00    +0.176 C 
ATOM     27  O   UNL     1      16.610  -3.393  23.633  0.00  0.00    -0.332 OA
ATOM     28  C   UNL     1      16.140  -4.473  24.505  0.00  0.00    +0.277 C 
ATOM     29  C   UNL     1      15.345  -3.896  25.701  0.00  0.00    +0.110 C 
ATOM     30  C   UNL     1      16.119  -2.763  26.407  0.00  0.00    +0.143 C 
ATOM     31  C   UNL     1      16.563  -1.695  25.406  0.00  0.00    +0.133 C 
BRANCH  31  32
ATOM     32  N   UNL     1      17.374  -0.666  26.076  0.00  0.00    -0.308 N 
ATOM     33  H   UNL     1      18.264  -0.946  26.463  0.00  0.00    +0.149 HD
ATOM     34  C   UNL     1      17.011   0.613  26.205  0.00  0.00    +0.210 C 
ATOM     35  C   UNL     1      15.637   1.001  25.627  0.00  0.00    +0.109 C 
ATOM     36  O   UNL     1      17.717   1.456  26.758  0.00  0.00    -0.276 OA
ENDBRANCH  31  32
BRANCH  28  37
ATOM     37  C   UNL     1      17.327  -5.307  25.030  0.00  0.00    +0.414 C 
ATOM     38  O   UNL     1      17.300  -5.778  26.167  0.00  0.00    -0.240 OA
ATOM     39  O   UNL     1      18.312  -5.510  24.318  0.00  0.00    -0.240 OA
ENDBRANCH  28  37
BRANCH  30  40
ATOM     40  O   UNL     1      15.291  -2.160  27.402  0.00  0.00    -0.390 OA
ATOM     41  H   UNL     1      15.217  -1.218  27.230  0.00  0.00    +0.210 HD
ENDBRANCH  30  40
BRANCH  28  42
ATOM     42  O   UNL     1      15.252  -5.321  23.731  0.00  0.00    -0.343 OA
ATOM     43  C   UNL     1      14.985  -4.858  22.383  0.00  0.00    +0.198 C 
ENDBRANCH  28  42
ENDBRANCH  25  26
BRANCH  25  44
ATOM     44  O   UNL     1      17.545  -1.886  21.892  0.00  0.00    -0.387 OA
ATOM     45  H   UNL     1      16.593  -1.991  21.827  0.00  0.00    +0.210 HD
ENDBRANCH  25  44
ENDBRANCH   1  25
TORSDOF 14
