REMARK VINA RESULT:    -6.751      5.019     10.474
REMARK INTER + INTRA:         -14.613
REMARK INTER:                 -12.233
REMARK INTRA:                  -2.380
REMARK UNBOUND:                -2.138
REMARK  Name = lig_assembled_92.pdb
REMARK  18 active torsions:
REMARK  status: ('A' for Active; 'I' for Inactive)
REMARK    1  A    between atoms: _2  and  _11
REMARK    2  A    between atoms: _3  and  _46
REMARK    3  A    between atoms: _6  and  _25
REMARK    4  A    between atoms: _8  and  _9
REMARK    5  A    between atoms: _8  and  _25
REMARK    6  A    between atoms: _14  and  _46
REMARK    7  A    between atoms: _21  and  _41
REMARK    8  A    between atoms: _23  and  _29
REMARK    9  A    between atoms: _24  and  _28
REMARK   10  A    between atoms: _28  and  _29
REMARK   11  A    between atoms: _31  and  _32
REMARK   12  A    between atoms: _33  and  _34
REMARK   13  A    between atoms: _35  and  _37
REMARK   14  A    between atoms: _37  and  _38
REMARK   15  A    between atoms: _37  and  _39
REMARK   16  A    between atoms: _39  and  _40
REMARK   17  A    between atoms: _39  and  _41
REMARK   18  A    between atoms: _42  and  _44
REMARK                            x       y       z     vdW  Elec       q    Type
REMARK                         _______ _______ _______ _____ _____    ______ ____
ROOT
ATOM      1  C   UNL     1      17.552   1.418  20.962  0.00  0.00    +0.401 C 
ATOM      2  O   UNL     1      17.514   1.291  19.735  0.00  0.00    -0.226 OA
ATOM      3  N   UNL     1      18.041   0.495  21.791  0.00  0.00    -0.279 N 
ATOM      4  H   UNL     1      18.038   0.695  22.782  0.00  0.00    +0.152 HD
ENDROOT
BRANCH   3   5
ATOM      5  C   UNL     1      18.584  -0.795  21.347  0.00  0.00    +0.141 C 
BRANCH   5   6
ATOM      6  C   UNL     1      19.455  -1.444  22.417  0.00  0.00    +0.163 C 
BRANCH   6   7
ATOM      7  O   UNL     1      19.918  -0.449  23.345  0.00  0.00    -0.388 OA
ATOM      8  H   UNL     1      19.470   0.383  23.173  0.00  0.00    +0.210 HD
ENDBRANCH   6   7
BRANCH   6   9
ATOM      9  C   UNL     1      18.650  -2.538  23.141  0.00  0.00    +0.175 C 
BRANCH   9  10
ATOM     10  C   UNL     1      17.910  -1.993  24.371  0.00  0.00    +0.176 C 
ATOM     11  O   UNL     1      18.881  -1.832  25.442  0.00  0.00    -0.332 OA
ATOM     12  C   UNL     1      18.373  -1.218  26.672  0.00  0.00    +0.277 C 
ATOM     13  C   UNL     1      17.140  -1.996  27.196  0.00  0.00    +0.110 C 
ATOM     14  C   UNL     1      16.093  -2.218  26.084  0.00  0.00    +0.143 C 
ATOM     15  C   UNL     1      16.731  -2.859  24.850  0.00  0.00    +0.133 C 
BRANCH  15  16
ATOM     16  N   UNL     1      15.743  -2.986  23.767  0.00  0.00    -0.308 N 
ATOM     17  H   UNL     1      15.281  -2.146  23.449  0.00  0.00    +0.149 HD
ATOM     18  C   UNL     1      15.417  -4.139  23.178  0.00  0.00    +0.210 C 
ATOM     19  C   UNL     1      16.119  -5.406  23.703  0.00  0.00    +0.109 C 
ATOM     20  O   UNL     1      14.596  -4.214  22.262  0.00  0.00    -0.276 OA
ENDBRANCH  15  16
BRANCH  12  21
ATOM     21  C   UNL     1      17.988   0.256  26.429  0.00  0.00    +0.414 C 
ATOM     22  O   UNL     1      16.990   0.733  26.968  0.00  0.00    -0.240 OA
ATOM     23  O   UNL     1      18.674   0.967  25.695  0.00  0.00    -0.240 OA
ENDBRANCH  12  21
BRANCH  14  24
ATOM     24  O   UNL     1      15.050  -3.065  26.568  0.00  0.00    -0.390 OA
ATOM     25  H   UNL     1      15.378  -3.592  27.300  0.00  0.00    +0.210 HD
ENDBRANCH  14  24
BRANCH  12  26
ATOM     26  O   UNL     1      19.419  -1.291  27.675  0.00  0.00    -0.343 OA
ATOM     27  C   UNL     1      20.762  -1.445  27.150  0.00  0.00    +0.198 C 
ENDBRANCH  12  26
ENDBRANCH   9  10
BRANCH   9  28
ATOM     28  O   UNL     1      19.519  -3.622  23.524  0.00  0.00    -0.387 OA
ATOM     29  H   UNL     1      20.116  -3.326  24.214  0.00  0.00    +0.210 HD
ENDBRANCH   9  28
ENDBRANCH   6   9
ENDBRANCH   5   6
ENDBRANCH   3   5
BRANCH   1  30
ATOM     30  O   UNL     1      17.051   2.620  21.551  0.00  0.00    -0.444 OA
BRANCH  30  31
ATOM     31  C   UNL     1      17.524   2.725  22.897  0.00  0.00    +0.292 C 
BRANCH  31  33
ATOM     32  N   UNL     1      17.303   5.167  22.532  0.00  0.00    -0.131 NA
ATOM     33  C   UNL     1      17.862   4.125  23.215  0.00  0.00    +0.121 A 
ATOM     34  C   UNL     1      18.713   4.622  24.174  0.00  0.00    +0.143 A 
ATOM     35  N   UNL     1      18.620   5.990  24.059  0.00  0.00    -0.220 N 
ATOM     36  N   UNL     1      17.774   6.298  23.047  0.00  0.00    -0.060 NA
BRANCH  35  37
ATOM     37  C   UNL     1      19.243   6.984  24.855  0.00  0.00    +0.067 A 
ATOM     38  C   UNL     1      20.501   7.495  24.496  0.00  0.00    +0.030 A 
ATOM     39  C   UNL     1      21.137   8.429  25.313  0.00  0.00    +0.031 A 
ATOM     40  C   UNL     1      20.516   8.866  26.484  0.00  0.00    +0.109 A 
ATOM     41  C   UNL     1      19.259   8.375  26.850  0.00  0.00    +0.031 A 
ATOM     42  C   UNL     1      18.618   7.440  26.028  0.00  0.00    +0.030 A 
BRANCH  40  43
ATOM     43  S   UNL     1      21.419   9.935  27.572  0.00  0.00    +0.074 S 
ATOM     44  O   UNL     1      21.653   9.208  28.805  0.00  0.00    -0.150 OA
ATOM     45  O   UNL     1      22.529  10.503  26.844  0.00  0.00    -0.150 OA
BRANCH  43  46
ATOM     46  N   UNL     1      20.295  11.129  27.975  0.00  0.00    -0.194 N 
ATOM     47  H   UNL     1      19.472  10.947  27.406  0.00  0.00    +0.176 HD
ATOM     48  C   UNL     1      20.026  11.161  29.359  0.00  0.00    +0.177 A 
ATOM     49  S   UNL     1      18.668  10.391  30.053  0.00  0.00    -0.059 S 
ATOM     50  C   UNL     1      19.100  11.054  31.576  0.00  0.00    +0.068 A 
ATOM     51  C   UNL     1      20.199  11.873  31.425  0.00  0.00    +0.120 A 
ATOM     52  N   UNL     1      20.749  11.908  30.157  0.00  0.00    -0.232 NA
ENDBRANCH  43  46
ENDBRANCH  40  43
ENDBRANCH  35  37
ENDBRANCH  31  33
ENDBRANCH  30  31
ENDBRANCH   1  30
TORSDOF 16
