REMARK VINA RESULT:    -7.177      2.123      3.734
REMARK INTER + INTRA:         -16.945
REMARK INTER:                 -13.027
REMARK INTRA:                  -3.918
REMARK UNBOUND:                -3.474
REMARK  Name = lig_assembled_34.pdb
REMARK  19 active torsions:
REMARK  status: ('A' for Active; 'I' for Inactive)
REMARK    1  A    between atoms: _2  and  _9
REMARK    2  A    between atoms: _4  and  _37
REMARK    3  A    between atoms: _6  and  _7
REMARK    4  A    between atoms: _6  and  _37
REMARK    5  A    between atoms: _11  and  _12
REMARK    6  A    between atoms: _13  and  _14
REMARK    7  A    between atoms: _18  and  _31
REMARK    8  A    between atoms: _33  and  _53
REMARK    9  A    between atoms: _35  and  _41
REMARK   10  A    between atoms: _36  and  _40
REMARK   11  A    between atoms: _40  and  _41
REMARK   12  A    between atoms: _43  and  _44
REMARK   13  A    between atoms: _45  and  _46
REMARK   14  A    between atoms: _47  and  _49
REMARK   15  A    between atoms: _49  and  _50
REMARK   16  A    between atoms: _49  and  _51
REMARK   17  A    between atoms: _51  and  _52
REMARK   18  A    between atoms: _51  and  _53
REMARK   19  A    between atoms: _54  and  _56
REMARK                            x       y       z     vdW  Elec       q    Type
REMARK                         _______ _______ _______ _____ _____    ______ ____
ROOT
ATOM      1  N   UNL     1       0.959  22.346  13.094  0.00  0.00    -0.131 NA
ATOM      2  C   UNL     1       2.075  22.806  13.734  0.00  0.00    +0.121 A 
ATOM      3  C   UNL     1       1.849  22.788  15.088  0.00  0.00    +0.143 A 
ATOM      4  N   UNL     1       0.579  22.278  15.244  0.00  0.00    -0.220 N 
ATOM      5  N   UNL     1       0.048  22.041  14.014  0.00  0.00    -0.060 NA
ENDROOT
BRANCH   4   6
ATOM      6  C   UNL     1      -0.101  21.979  16.455  0.00  0.00    +0.068 A 
ATOM      7  C   UNL     1       0.444  22.392  17.675  0.00  0.00    +0.038 A 
ATOM      8  C   UNL     1      -0.109  22.020  18.925  0.00  0.00    +0.007 A 
ATOM      9  C   UNL     1      -1.301  21.267  18.936  0.00  0.00    -0.008 A 
ATOM     10  C   UNL     1      -1.875  20.895  17.695  0.00  0.00    +0.011 A 
ATOM     11  C   UNL     1      -1.278  21.230  16.467  0.00  0.00    +0.028 A 
BRANCH   9  12
ATOM     12  C   UNL     1      -1.974  20.754  20.173  0.00  0.00    +0.004 A 
ATOM     13  C   UNL     1      -2.903  21.483  20.854  0.00  0.00    +0.026 A 
ATOM     14  C   UNL     1      -3.277  22.850  20.470  0.00  0.00    +0.016 A 
ATOM     15  C   UNL     1      -4.047  23.615  21.258  0.00  0.00    +0.051 A 
ATOM     16  C   UNL     1      -4.581  23.085  22.536  0.00  0.00    +0.183 A 
ATOM     17  O   UNL     1      -5.234  23.795  23.297  0.00  0.00    -0.288 OA
ATOM     18  C   UNL     1      -4.362  21.654  22.824  0.00  0.00    +0.097 A 
ATOM     19  C   UNL     1      -3.605  20.903  22.015  0.00  0.00    +0.140 A 
ATOM     20  O   UNL     1      -3.544  19.537  22.250  0.00  0.00    -0.455 OA
ATOM     21  C   UNL     1      -2.589  18.802  21.600  0.00  0.00    +0.140 A 
ATOM     22  C   UNL     1      -2.510  17.452  21.942  0.00  0.00    +0.092 A 
ATOM     23  C   UNL     1      -1.527  16.662  21.365  0.00  0.00    +0.120 A 
ATOM     24  C   UNL     1      -0.579  17.223  20.517  0.00  0.00    +0.046 A 
ATOM     25  C   UNL     1      -0.679  18.575  20.175  0.00  0.00    +0.016 A 
ATOM     26  C   UNL     1      -1.727  19.369  20.664  0.00  0.00    +0.026 A 
BRANCH  23  27
ATOM     27  O   UNL     1      -1.525  15.327  21.644  0.00  0.00    -0.507 OA
ATOM     28  H   UNL     1      -0.625  14.997  21.491  0.00  0.00    +0.292 HD
ENDBRANCH  23  27
ENDBRANCH   9  12
BRANCH   8  29
ATOM     29  C   UNL     1       0.684  22.407  20.158  0.00  0.00    +0.072 C 
ATOM     30  O   UNL     1       1.671  21.656  20.446  0.00  0.00    -0.545 OA
ATOM     31  O   UNL     1       0.278  23.385  20.851  0.00  0.00    -0.545 OA
ENDBRANCH   8  29
ENDBRANCH   4   6
BRANCH   2  32
ATOM     32  C   UNL     1       3.287  23.231  13.007  0.00  0.00    +0.292 C 
BRANCH  32  33
ATOM     33  O   UNL     1       3.465  22.452  11.820  0.00  0.00    -0.444 OA
BRANCH  33  34
ATOM     34  C   UNL     1       3.935  21.148  12.171  0.00  0.00    +0.401 C 
ATOM     35  O   UNL     1       5.034  21.035  12.719  0.00  0.00    -0.226 OA
ATOM     36  N   UNL     1       3.138  20.120  11.879  0.00  0.00    -0.279 N 
ATOM     37  H   UNL     1       2.250  20.314  11.437  0.00  0.00    +0.152 HD
BRANCH  36  38
ATOM     38  C   UNL     1       3.477  18.720  12.164  0.00  0.00    +0.141 C 
BRANCH  38  39
ATOM     39  C   UNL     1       2.619  17.751  11.357  0.00  0.00    +0.163 C 
BRANCH  39  40
ATOM     40  O   UNL     1       2.947  16.396  11.706  0.00  0.00    -0.388 OA
ATOM     41  H   UNL     1       3.419  16.386  12.542  0.00  0.00    +0.210 HD
ENDBRANCH  39  40
BRANCH  39  42
ATOM     42  C   UNL     1       1.131  18.041  11.619  0.00  0.00    +0.175 C 
BRANCH  42  43
ATOM     43  C   UNL     1       0.250  16.808  11.372  0.00  0.00    +0.176 C 
ATOM     44  O   UNL     1       0.581  16.277  10.060  0.00  0.00    -0.332 OA
ATOM     45  C   UNL     1      -0.092  15.027   9.694  0.00  0.00    +0.277 C 
ATOM     46  C   UNL     1      -1.627  15.180   9.825  0.00  0.00    +0.110 C 
ATOM     47  C   UNL     1      -2.026  15.772  11.193  0.00  0.00    +0.143 C 
ATOM     48  C   UNL     1      -1.265  17.068  11.473  0.00  0.00    +0.133 C 
BRANCH  48  49
ATOM     49  N   UNL     1      -1.588  17.576  12.816  0.00  0.00    -0.308 N 
ATOM     50  H   UNL     1      -1.311  17.017  13.611  0.00  0.00    +0.149 HD
ATOM     51  C   UNL     1      -2.224  18.726  13.052  0.00  0.00    +0.210 C 
ATOM     52  C   UNL     1      -2.657  19.541  11.819  0.00  0.00    +0.109 C 
ATOM     53  O   UNL     1      -2.469  19.133  14.188  0.00  0.00    -0.276 OA
ENDBRANCH  48  49
BRANCH  45  54
ATOM     54  C   UNL     1       0.388  13.865  10.589  0.00  0.00    +0.414 C 
ATOM     55  O   UNL     1       1.572  13.781  10.914  0.00  0.00    -0.240 OA
ATOM     56  O   UNL     1      -0.407  13.013  10.985  0.00  0.00    -0.240 OA
ENDBRANCH  45  54
BRANCH  47  57
ATOM     57  O   UNL     1      -3.429  16.036  11.213  0.00  0.00    -0.390 OA
ATOM     58  H   UNL     1      -3.745  16.160  10.315  0.00  0.00    +0.210 HD
ENDBRANCH  47  57
BRANCH  45  59
ATOM     59  O   UNL     1       0.223  14.737   8.307  0.00  0.00    -0.343 OA
ATOM     60  C   UNL     1      -0.748  13.908   7.620  0.00  0.00    +0.198 C 
ENDBRANCH  45  59
ENDBRANCH  42  43
BRANCH  42  61
ATOM     61  O   UNL     1       0.688  19.141  10.798  0.00  0.00    -0.387 OA
ATOM     62  H   UNL     1       1.197  19.926  11.013  0.00  0.00    +0.210 HD
ENDBRANCH  42  61
ENDBRANCH  39  42
ENDBRANCH  38  39
ENDBRANCH  36  38
ENDBRANCH  33  34
ENDBRANCH  32  33
ENDBRANCH   2  32
TORSDOF 17
