REMARK VINA RESULT:    -7.137      0.000      0.000
REMARK INTER + INTRA:         -14.899
REMARK INTER:                 -13.339
REMARK INTRA:                  -1.560
REMARK UNBOUND:                -1.921
REMARK  Name = lig_assembled_23.pdb
REMARK  18 active torsions:
REMARK  status: ('A' for Active; 'I' for Inactive)
REMARK    1  A    between atoms: _2  and  _10
REMARK    2  A    between atoms: _3  and  _41
REMARK    3  A    between atoms: _5  and  _21
REMARK    4  A    between atoms: _7  and  _8
REMARK    5  A    between atoms: _7  and  _21
REMARK    6  A    between atoms: _12  and  _41
REMARK    7  A    between atoms: _17  and  _37
REMARK    8  A    between atoms: _19  and  _25
REMARK    9  A    between atoms: _20  and  _24
REMARK   10  A    between atoms: _24  and  _25
REMARK   11  A    between atoms: _27  and  _28
REMARK   12  A    between atoms: _29  and  _30
REMARK   13  A    between atoms: _31  and  _33
REMARK   14  A    between atoms: _33  and  _34
REMARK   15  A    between atoms: _33  and  _35
REMARK   16  A    between atoms: _35  and  _36
REMARK   17  A    between atoms: _35  and  _37
REMARK   18  A    between atoms: _38  and  _40
REMARK                            x       y       z     vdW  Elec       q    Type
REMARK                         _______ _______ _______ _____ _____    ______ ____
ROOT
ATOM      1  C   UNL     1      18.278   2.569  26.066  0.00  0.00    +0.141 C 
ENDROOT
BRANCH   1   4
ATOM      2  C   UNL     1      18.970   4.893  26.541  0.00  0.00    +0.401 C 
ATOM      3  O   UNL     1      20.004   4.565  27.128  0.00  0.00    -0.226 OA
ATOM      4  N   UNL     1      18.102   4.026  26.019  0.00  0.00    -0.279 N 
ATOM      5  H   UNL     1      17.277   4.392  25.565  0.00  0.00    +0.152 HD
BRANCH   2   6
ATOM      6  O   UNL     1      18.660   6.282  26.405  0.00  0.00    -0.444 OA
BRANCH   6   7
ATOM      7  C   UNL     1      19.858   7.054  26.528  0.00  0.00    +0.292 C 
BRANCH   7   9
ATOM      8  N   UNL     1      19.970   9.446  27.143  0.00  0.00    -0.131 NA
ATOM      9  C   UNL     1      19.659   8.160  27.481  0.00  0.00    +0.121 A 
ATOM     10  C   UNL     1      19.172   8.140  28.769  0.00  0.00    +0.143 A 
ATOM     11  N   UNL     1      19.194   9.453  29.178  0.00  0.00    -0.220 N 
ATOM     12  N   UNL     1      19.688  10.224  28.179  0.00  0.00    -0.060 NA
BRANCH  11  13
ATOM     13  C   UNL     1      18.799  10.005  30.424  0.00  0.00    +0.069 A 
ATOM     14  C   UNL     1      17.718   9.441  31.116  0.00  0.00    +0.056 A 
ATOM     15  C   UNL     1      17.303  10.005  32.328  0.00  0.00    +0.107 A 
ATOM     16  C   UNL     1      17.967  11.106  32.871  0.00  0.00    +0.028 A 
ATOM     17  C   UNL     1      19.051  11.657  32.188  0.00  0.00    +0.004 A 
ATOM     18  C   UNL     1      19.465  11.114  30.967  0.00  0.00    +0.028 A 
BRANCH  15  19
ATOM     19  S   UNL     1      15.903   9.317  33.158  0.00  0.00    +0.056 S 
ATOM     20  O   UNL     1      15.358   8.253  32.348  0.00  0.00    -0.153 OA
ATOM     21  O   UNL     1      16.213   9.151  34.559  0.00  0.00    -0.153 OA
BRANCH  19  22
ATOM     22  N   UNL     1      14.802  10.583  33.093  0.00  0.00    -0.204 NA
ATOM     23  H   UNL     1      13.857  10.218  32.973  0.00  0.00    +0.144 HD
ATOM     24  H   UNL     1      15.082  11.254  32.376  0.00  0.00    +0.144 HD
ENDBRANCH  19  22
ENDBRANCH  15  19
ENDBRANCH  11  13
ENDBRANCH   7   9
ENDBRANCH   6   7
ENDBRANCH   2   6
ENDBRANCH   1   4
BRANCH   1  25
ATOM     25  C   UNL     1      16.942   1.835  26.095  0.00  0.00    +0.163 C 
BRANCH  25  26
ATOM     26  O   UNL     1      15.964   2.622  26.795  0.00  0.00    -0.388 OA
ATOM     27  H   UNL     1      16.152   2.604  27.736  0.00  0.00    +0.210 HD
ENDBRANCH  25  26
BRANCH  25  28
ATOM     28  C   UNL     1      16.485   1.543  24.655  0.00  0.00    +0.175 C 
BRANCH  28  29
ATOM     29  C   UNL     1      17.595   0.894  23.816  0.00  0.00    +0.176 C 
ATOM     30  O   UNL     1      17.589   1.521  22.504  0.00  0.00    -0.332 OA
ATOM     31  C   UNL     1      18.659   1.099  21.595  0.00  0.00    +0.277 C 
ATOM     32  C   UNL     1      18.660  -0.441  21.439  0.00  0.00    +0.110 C 
ATOM     33  C   UNL     1      18.634  -1.152  22.808  0.00  0.00    +0.143 C 
ATOM     34  C   UNL     1      17.485  -0.635  23.674  0.00  0.00    +0.133 C 
BRANCH  34  35
ATOM     35  N   UNL     1      17.524  -1.257  25.007  0.00  0.00    -0.308 N 
ATOM     36  H   UNL     1      18.278  -0.997  25.627  0.00  0.00    +0.149 HD
ATOM     37  C   UNL     1      16.628  -2.142  25.451  0.00  0.00    +0.210 C 
ATOM     38  C   UNL     1      15.506  -2.538  24.472  0.00  0.00    +0.109 C 
ATOM     39  O   UNL     1      16.677  -2.636  26.578  0.00  0.00    -0.276 OA
ENDBRANCH  34  35
BRANCH  31  40
ATOM     40  C   UNL     1      20.034   1.566  22.115  0.00  0.00    +0.414 C 
ATOM     41  O   UNL     1      20.106   2.377  23.037  0.00  0.00    -0.240 OA
ATOM     42  O   UNL     1      21.072   1.131  21.613  0.00  0.00    -0.240 OA
ENDBRANCH  31  40
BRANCH  33  43
ATOM     43  O   UNL     1      18.483  -2.560  22.617  0.00  0.00    -0.390 OA
ATOM     44  H   UNL     1      18.088  -2.726  21.759  0.00  0.00    +0.210 HD
ENDBRANCH  33  43
BRANCH  31  45
ATOM     45  O   UNL     1      18.402   1.691  20.295  0.00  0.00    -0.343 OA
ATOM     46  C   UNL     1      17.000   1.852  19.962  0.00  0.00    +0.198 C 
ENDBRANCH  31  45
ENDBRANCH  28  29
BRANCH  28  47
ATOM     47  O   UNL     1      16.029   2.756  24.023  0.00  0.00    -0.387 OA
ATOM     48  H   UNL     1      15.070   2.757  23.984  0.00  0.00    +0.210 HD
ENDBRANCH  28  47
ENDBRANCH  25  28
ENDBRANCH   1  25
TORSDOF 16
