REMARK VINA RESULT:    -6.278      7.933     13.696
REMARK INTER + INTRA:         -13.236
REMARK INTER:                 -11.015
REMARK INTRA:                  -2.221
REMARK UNBOUND:                -2.370
REMARK  Name = lig_assembled_87.pdb
REMARK  17 active torsions:
REMARK  status: ('A' for Active; 'I' for Inactive)
REMARK    1  A    between atoms: _2  and  _10
REMARK    2  A    between atoms: _3  and  _13
REMARK    3  A    between atoms: _5  and  _21
REMARK    4  A    between atoms: _7  and  _8
REMARK    5  A    between atoms: _7  and  _21
REMARK    6  A    between atoms: _17  and  _37
REMARK    7  A    between atoms: _19  and  _25
REMARK    8  A    between atoms: _20  and  _24
REMARK    9  A    between atoms: _24  and  _25
REMARK   10  A    between atoms: _27  and  _28
REMARK   11  A    between atoms: _29  and  _30
REMARK   12  A    between atoms: _31  and  _33
REMARK   13  A    between atoms: _33  and  _34
REMARK   14  A    between atoms: _33  and  _35
REMARK   15  A    between atoms: _35  and  _36
REMARK   16  A    between atoms: _35  and  _37
REMARK   17  A    between atoms: _38  and  _40
REMARK                            x       y       z     vdW  Elec       q    Type
REMARK                         _______ _______ _______ _____ _____    ______ ____
ROOT
ATOM      1  C   UNL     1       9.988   3.097  35.026  0.00  0.00    +0.163 C 
ENDROOT
BRANCH   1   2
ATOM      2  O   UNL     1       9.826   2.153  33.955  0.00  0.00    -0.388 OA
ATOM      3  H   UNL     1      10.626   2.131  33.424  0.00  0.00    +0.210 HD
ENDBRANCH   1   2
BRANCH   1   4
ATOM      4  C   UNL     1      11.104   2.640  35.960  0.00  0.00    +0.141 C 
BRANCH   4   7
ATOM      5  C   UNL     1      12.241   4.420  37.243  0.00  0.00    +0.401 C 
ATOM      6  O   UNL     1      11.496   4.321  38.221  0.00  0.00    -0.226 OA
ATOM      7  N   UNL     1      12.126   3.678  36.140  0.00  0.00    -0.279 N 
ATOM      8  H   UNL     1      12.780   3.839  35.387  0.00  0.00    +0.152 HD
BRANCH   5   9
ATOM      9  O   UNL     1      13.296   5.384  37.268  0.00  0.00    -0.444 OA
BRANCH   9  10
ATOM     10  C   UNL     1      14.483   4.809  36.716  0.00  0.00    +0.292 C 
BRANCH  10  12
ATOM     11  N   UNL     1      14.825   4.932  34.272  0.00  0.00    -0.131 NA
ATOM     12  C   UNL     1      14.879   5.537  35.497  0.00  0.00    +0.120 A 
ATOM     13  C   UNL     1      15.318   6.832  35.341  0.00  0.00    +0.137 A 
ATOM     14  N   UNL     1      15.398   7.001  33.984  0.00  0.00    -0.248 N 
ATOM     15  N   UNL     1      15.212   5.815  33.368  0.00  0.00    -0.065 NA
BRANCH  14  16
ATOM     16  C   UNL     1      15.654   8.205  33.171  0.00  0.00    +0.112 C 
ATOM     17  C   UNL     1      16.785   8.051  32.117  0.00  0.00    +0.045 C 
ATOM     18  C   UNL     1      17.970   9.020  32.264  0.00  0.00    +0.059 C 
ATOM     19  C   UNL     1      17.641  10.419  31.723  0.00  0.00    +0.020 C 
ATOM     20  C   UNL     1      17.208  11.217  32.951  0.00  0.00    +0.020 C 
ATOM     21  C   UNL     1      17.149  10.173  34.067  0.00  0.00    +0.059 C 
ATOM     22  N   UNL     1      18.269   9.333  33.656  0.00  0.00    -0.299 NA
ATOM     23  C   UNL     1      18.640   8.236  34.524  0.00  0.00    +0.105 C 
ATOM     24  C   UNL     1      15.790   9.470  34.072  0.00  0.00    +0.045 C 
ENDBRANCH  14  16
ENDBRANCH  10  12
ENDBRANCH   9  10
ENDBRANCH   5   9
ENDBRANCH   4   7
ENDBRANCH   1   4
BRANCH   1  25
ATOM     25  C   UNL     1       8.682   3.253  35.824  0.00  0.00    +0.175 C 
BRANCH  25  26
ATOM     26  C   UNL     1       7.863   4.467  35.362  0.00  0.00    +0.176 C 
ATOM     27  O   UNL     1       7.561   5.275  36.532  0.00  0.00    -0.332 OA
ATOM     28  C   UNL     1       6.870   6.540  36.268  0.00  0.00    +0.277 C 
ATOM     29  C   UNL     1       5.575   6.290  35.456  0.00  0.00    +0.110 C 
ATOM     30  C   UNL     1       5.841   5.409  34.218  0.00  0.00    +0.143 C 
ATOM     31  C   UNL     1       6.566   4.120  34.608  0.00  0.00    +0.133 C 
BRANCH  31  32
ATOM     32  N   UNL     1       6.891   3.329  33.410  0.00  0.00    -0.308 N 
ATOM     33  H   UNL     1       7.547   3.721  32.749  0.00  0.00    +0.149 HD
ATOM     34  C   UNL     1       6.375   2.128  33.139  0.00  0.00    +0.210 C 
ATOM     35  C   UNL     1       5.358   1.569  34.152  0.00  0.00    +0.109 C 
ATOM     36  O   UNL     1       6.676   1.481  32.135  0.00  0.00    -0.276 OA
ENDBRANCH  31  32
BRANCH  28  37
ATOM     37  C   UNL     1       7.785   7.512  35.493  0.00  0.00    +0.414 C 
ATOM     38  O   UNL     1       7.345   8.146  34.535  0.00  0.00    -0.240 OA
ATOM     39  O   UNL     1       8.961   7.662  35.827  0.00  0.00    -0.240 OA
ENDBRANCH  28  37
BRANCH  30  40
ATOM     40  O   UNL     1       4.603   5.079  33.587  0.00  0.00    -0.390 OA
ATOM     41  H   UNL     1       4.160   4.391  34.089  0.00  0.00    +0.210 HD
ENDBRANCH  30  40
BRANCH  28  42
ATOM     42  O   UNL     1       6.504   7.127  37.544  0.00  0.00    -0.343 OA
ATOM     43  C   UNL     1       7.190   6.570  38.693  0.00  0.00    +0.198 C 
ENDBRANCH  28  42
ENDBRANCH  25  26
BRANCH  25  44
ATOM     44  O   UNL     1       8.970   3.356  37.233  0.00  0.00    -0.387 OA
ATOM     45  H   UNL     1       8.961   2.480  37.627  0.00  0.00    +0.210 HD
ENDBRANCH  25  44
ENDBRANCH   1  25
TORSDOF 14
