REMARK VINA RESULT:    -6.362      2.813      4.903
REMARK INTER + INTRA:         -14.743
REMARK INTER:                 -12.306
REMARK INTRA:                  -2.436
REMARK UNBOUND:                -2.243
REMARK  Name = lig_assembled_31.pdb
REMARK  20 active torsions:
REMARK  status: ('A' for Active; 'I' for Inactive)
REMARK    1  A    between atoms: _2  and  _11
REMARK    2  A    between atoms: _3  and  _12
REMARK    3  A    between atoms: _4  and  _14
REMARK    4  A    between atoms: _6  and  _24
REMARK    5  A    between atoms: _8  and  _9
REMARK    6  A    between atoms: _8  and  _24
REMARK    7  A    between atoms: _11  and  _12
REMARK    8  A    between atoms: _14  and  _15
REMARK    9  A    between atoms: _20  and  _40
REMARK   10  A    between atoms: _22  and  _28
REMARK   11  A    between atoms: _23  and  _27
REMARK   12  A    between atoms: _27  and  _28
REMARK   13  A    between atoms: _30  and  _31
REMARK   14  A    between atoms: _32  and  _33
REMARK   15  A    between atoms: _34  and  _36
REMARK   16  A    between atoms: _36  and  _37
REMARK   17  A    between atoms: _36  and  _38
REMARK   18  A    between atoms: _38  and  _39
REMARK   19  A    between atoms: _38  and  _40
REMARK   20  A    between atoms: _41  and  _43
REMARK                            x       y       z     vdW  Elec       q    Type
REMARK                         _______ _______ _______ _____ _____    ______ ____
ROOT
ATOM      1  C   UNL     1      18.632   4.641  26.938  0.00  0.00    +0.401 C 
ATOM      2  O   UNL     1      19.617   4.439  27.653  0.00  0.00    -0.226 OA
ATOM      3  N   UNL     1      17.600   3.803  26.838  0.00  0.00    -0.279 N 
ATOM      4  H   UNL     1      16.833   4.061  26.233  0.00  0.00    +0.152 HD
ENDROOT
BRANCH   1   5
ATOM      5  O   UNL     1      18.570   5.841  26.164  0.00  0.00    -0.444 OA
BRANCH   5   6
ATOM      6  C   UNL     1      19.896   6.273  25.844  0.00  0.00    +0.292 C 
BRANCH   6   8
ATOM      7  N   UNL     1      20.975   8.432  25.293  0.00  0.00    -0.131 NA
ATOM      8  C   UNL     1      20.003   7.741  25.965  0.00  0.00    +0.120 A 
ATOM      9  C   UNL     1      19.241   8.629  26.691  0.00  0.00    +0.137 A 
ATOM     10  N   UNL     1      19.807   9.840  26.425  0.00  0.00    -0.250 N 
ATOM     11  N   UNL     1      20.845   9.720  25.581  0.00  0.00    -0.065 NA
BRANCH  10  12
ATOM     12  C   UNL     1      19.422  11.139  26.936  0.00  0.00    +0.164 C 
BRANCH  12  13
ATOM     13  C   UNL     1      19.683  11.247  28.431  0.00  0.00    +0.129 C 
BRANCH  13  14
ATOM     14  N   UNL     1      18.491  11.166  29.264  0.00  0.00    -0.298 N 
ATOM     15  H   UNL     1      17.640  11.638  28.995  0.00  0.00    +0.150 HD
ATOM     16  C   UNL     1      18.642  10.824  30.582  0.00  0.00    +0.300 C 
ATOM     17  O   UNL     1      19.722  10.488  31.062  0.00  0.00    -0.253 OA
ATOM     18  N   UNL     1      17.491  10.860  31.308  0.00  0.00    -0.292 N 
ATOM     19  H   UNL     1      16.612  11.176  30.923  0.00  0.00    +0.151 HD
BRANCH  18  20
ATOM     20  C   UNL     1      17.545  10.509  32.708  0.00  0.00    +0.180 C 
BRANCH  20  21
ATOM     21  C   UNL     1      16.710   9.331  33.052  0.00  0.00    +0.122 A 
ATOM     22  O   UNL     1      16.343   8.464  32.060  0.00  0.00    -0.466 OA
ATOM     23  C   UNL     1      15.594   7.491  32.648  0.00  0.00    +0.195 A 
ATOM     24  C   UNL     1      15.471   7.719  33.999  0.00  0.00    +0.041 A 
ATOM     25  C   UNL     1      16.190   8.908  34.261  0.00  0.00    +0.046 A 
ENDBRANCH  20  21
ENDBRANCH  18  20
ENDBRANCH  13  14
ENDBRANCH  12  13
ENDBRANCH  10  12
ENDBRANCH   6   8
ENDBRANCH   5   6
ENDBRANCH   1   5
BRANCH   3  26
ATOM     26  C   UNL     1      17.514   2.527  27.559  0.00  0.00    +0.141 C 
BRANCH  26  27
ATOM     27  C   UNL     1      17.850   1.342  26.659  0.00  0.00    +0.163 C 
BRANCH  27  28
ATOM     28  O   UNL     1      18.416   0.277  27.440  0.00  0.00    -0.388 OA
ATOM     29  H   UNL     1      18.480  -0.516  26.902  0.00  0.00    +0.210 HD
ENDBRANCH  27  28
BRANCH  27  30
ATOM     30  C   UNL     1      16.580   0.874  25.928  0.00  0.00    +0.175 C 
BRANCH  30  31
ATOM     31  C   UNL     1      16.904  -0.008  24.714  0.00  0.00    +0.176 C 
ATOM     32  O   UNL     1      17.457  -1.260  25.205  0.00  0.00    -0.332 OA
ATOM     33  C   UNL     1      17.730  -2.277  24.185  0.00  0.00    +0.277 C 
ATOM     34  C   UNL     1      18.645  -1.699  23.078  0.00  0.00    +0.110 C 
ATOM     35  C   UNL     1      18.115  -0.351  22.546  0.00  0.00    +0.143 C 
ATOM     36  C   UNL     1      17.863   0.630  23.691  0.00  0.00    +0.133 C 
BRANCH  36  37
ATOM     37  N   UNL     1      17.276   1.879  23.180  0.00  0.00    -0.308 N 
ATOM     38  H   UNL     1      16.334   1.844  22.819  0.00  0.00    +0.149 HD
ATOM     39  C   UNL     1      17.909   3.055  23.163  0.00  0.00    +0.210 C 
ATOM     40  C   UNL     1      19.353   3.070  23.697  0.00  0.00    +0.109 C 
ATOM     41  O   UNL     1      17.387   4.089  22.743  0.00  0.00    -0.276 OA
ENDBRANCH  36  37
BRANCH  33  42
ATOM     42  C   UNL     1      16.417  -2.786  23.555  0.00  0.00    +0.414 C 
ATOM     43  O   UNL     1      16.447  -3.536  22.580  0.00  0.00    -0.240 OA
ATOM     44  O   UNL     1      15.328  -2.446  24.020  0.00  0.00    -0.240 OA
ENDBRANCH  33  42
BRANCH  35  45
ATOM     45  O   UNL     1      19.063   0.216  21.641  0.00  0.00    -0.390 OA
ATOM     46  H   UNL     1      19.877  -0.293  21.669  0.00  0.00    +0.210 HD
ENDBRANCH  35  45
BRANCH  33  47
ATOM     47  O   UNL     1      18.424  -3.379  24.824  0.00  0.00    -0.343 OA
ATOM     48  C   UNL     1      19.703  -3.037  25.415  0.00  0.00    +0.198 C 
ENDBRANCH  33  47
ENDBRANCH  30  31
BRANCH  30  49
ATOM     49  O   UNL     1      15.795   2.012  25.520  0.00  0.00    -0.387 OA
ATOM     50  H   UNL     1      14.897   1.916  25.849  0.00  0.00    +0.210 HD
ENDBRANCH  30  49
ENDBRANCH  27  30
ENDBRANCH  26  27
ENDBRANCH   3  26
TORSDOF 18
