REMARK VINA RESULT:    -6.292      2.209      4.309
REMARK INTER + INTRA:         -14.027
REMARK INTER:                 -12.322
REMARK INTRA:                  -1.705
REMARK UNBOUND:                -1.667
REMARK  Name = lig_assembled_43.pdb
REMARK  20 active torsions:
REMARK  status: ('A' for Active; 'I' for Inactive)
REMARK    1  A    between atoms: _2  and  _9
REMARK    2  A    between atoms: _4  and  _18
REMARK    3  A    between atoms: _6  and  _7
REMARK    4  A    between atoms: _6  and  _18
REMARK    5  A    between atoms: _9  and  _10
REMARK    6  A    between atoms: _10  and  _11
REMARK    7  A    between atoms: _11  and  _12
REMARK    8  A    between atoms: _12  and  _13
REMARK    9  A    between atoms: _14  and  _34
REMARK   10  A    between atoms: _16  and  _22
REMARK   11  A    between atoms: _17  and  _21
REMARK   12  A    between atoms: _21  and  _22
REMARK   13  A    between atoms: _24  and  _25
REMARK   14  A    between atoms: _26  and  _27
REMARK   15  A    between atoms: _28  and  _30
REMARK   16  A    between atoms: _30  and  _31
REMARK   17  A    between atoms: _30  and  _32
REMARK   18  A    between atoms: _32  and  _33
REMARK   19  A    between atoms: _32  and  _34
REMARK   20  A    between atoms: _35  and  _37
REMARK                            x       y       z     vdW  Elec       q    Type
REMARK                         _______ _______ _______ _____ _____    ______ ____
ROOT
ATOM      1  C   UNL     1       2.806   3.831  32.589  0.00  0.00    +0.163 C 
ENDROOT
BRANCH   1   2
ATOM      2  O   UNL     1       2.054   3.942  33.808  0.00  0.00    -0.388 OA
ATOM      3  H   UNL     1       2.116   4.840  34.142  0.00  0.00    +0.210 HD
ENDBRANCH   1   2
BRANCH   1   4
ATOM      4  C   UNL     1       4.172   3.171  32.843  0.00  0.00    +0.175 C 
BRANCH   4   5
ATOM      5  C   UNL     1       4.879   3.762  34.072  0.00  0.00    +0.176 C 
ATOM      6  O   UNL     1       4.973   5.201  33.886  0.00  0.00    -0.332 OA
ATOM      7  C   UNL     1       5.529   5.952  35.015  0.00  0.00    +0.277 C 
ATOM      8  C   UNL     1       6.914   5.384  35.413  0.00  0.00    +0.110 C 
ATOM      9  C   UNL     1       6.871   3.852  35.592  0.00  0.00    +0.143 C 
ATOM     10  C   UNL     1       6.272   3.172  34.360  0.00  0.00    +0.133 C 
BRANCH  10  11
ATOM     11  N   UNL     1       6.157   1.722  34.577  0.00  0.00    -0.308 N 
ATOM     12  H   UNL     1       5.453   1.396  35.225  0.00  0.00    +0.149 HD
ATOM     13  C   UNL     1       6.921   0.807  33.974  0.00  0.00    +0.210 C 
ATOM     14  C   UNL     1       8.001   1.337  33.012  0.00  0.00    +0.109 C 
ATOM     15  O   UNL     1       6.792  -0.403  34.164  0.00  0.00    -0.276 OA
ENDBRANCH  10  11
BRANCH   7  16
ATOM     16  C   UNL     1       4.580   5.895  36.231  0.00  0.00    +0.414 C 
ATOM     17  O   UNL     1       4.996   6.170  37.355  0.00  0.00    -0.240 OA
ATOM     18  O   UNL     1       3.400   5.573  36.086  0.00  0.00    -0.240 OA
ENDBRANCH   7  16
BRANCH   9  19
ATOM     19  O   UNL     1       8.193   3.355  35.807  0.00  0.00    -0.390 OA
ATOM     20  H   UNL     1       8.146   2.480  36.199  0.00  0.00    +0.210 HD
ENDBRANCH   9  19
BRANCH   7  21
ATOM     21  O   UNL     1       5.703   7.330  34.596  0.00  0.00    -0.343 OA
ATOM     22  C   UNL     1       7.081   7.761  34.466  0.00  0.00    +0.198 C 
ENDBRANCH   7  21
ENDBRANCH   4   5
BRANCH   4  23
ATOM     23  O   UNL     1       5.011   3.300  31.678  0.00  0.00    -0.387 OA
ATOM     24  H   UNL     1       4.582   3.871  31.036  0.00  0.00    +0.210 HD
ENDBRANCH   4  23
ENDBRANCH   1   4
BRANCH   1  25
ATOM     25  C   UNL     1       2.026   3.009  31.567  0.00  0.00    +0.141 C 
BRANCH  25  28
ATOM     26  C   UNL     1       2.224   2.972  29.105  0.00  0.00    +0.401 C 
ATOM     27  O   UNL     1       2.438   1.759  29.046  0.00  0.00    -0.226 OA
ATOM     28  N   UNL     1       2.026   3.641  30.242  0.00  0.00    -0.279 N 
ATOM     29  H   UNL     1       1.868   4.637  30.188  0.00  0.00    +0.152 HD
BRANCH  26  30
ATOM     30  O   UNL     1       2.185   3.730  27.893  0.00  0.00    -0.444 OA
BRANCH  30  31
ATOM     31  C   UNL     1       1.061   3.320  27.109  0.00  0.00    +0.292 C 
BRANCH  31  33
ATOM     32  N   UNL     1       0.177   5.035  25.556  0.00  0.00    -0.131 NA
ATOM     33  C   UNL     1       1.060   4.017  25.810  0.00  0.00    +0.120 A 
ATOM     34  C   UNL     1       1.848   3.818  24.698  0.00  0.00    +0.137 A 
ATOM     35  N   UNL     1       1.390   4.739  23.805  0.00  0.00    -0.251 N 
ATOM     36  N   UNL     1       0.390   5.470  24.321  0.00  0.00    -0.065 NA
BRANCH  35  37
ATOM     37  C   UNL     1       1.831   4.958  22.443  0.00  0.00    +0.145 C 
BRANCH  37  38
ATOM     38  C   UNL     1       1.295   3.883  21.503  0.00  0.00    +0.024 C 
BRANCH  38  39
ATOM     39  C   UNL     1       1.557   4.222  20.034  0.00  0.00    +0.006 C 
BRANCH  39  40
ATOM     40  C   UNL     1       1.321   2.995  19.150  0.00  0.00    +0.026 C 
BRANCH  40  41
ATOM     41  C   UNL     1       2.547   2.137  19.039  0.00  0.00    -0.034 C 
ATOM     42  C   UNL     1       3.468   2.273  18.077  0.00  0.00    +0.004 C 
ENDBRANCH  40  41
ENDBRANCH  39  40
ENDBRANCH  38  39
ENDBRANCH  37  38
ENDBRANCH  35  37
ENDBRANCH  31  33
ENDBRANCH  30  31
ENDBRANCH  26  30
ENDBRANCH  25  28
ENDBRANCH   1  25
TORSDOF 18
