REMARK VINA RESULT:    -5.426      5.933      8.219
REMARK INTER + INTRA:         -12.327
REMARK INTER:                  -9.914
REMARK INTRA:                  -2.413
REMARK UNBOUND:                -2.936
REMARK  Name = lig_assembled_93.pdb
REMARK  16 active torsions:
REMARK  status: ('A' for Active; 'I' for Inactive)
REMARK    1  A    between atoms: _2  and  _9
REMARK    2  A    between atoms: _4  and  _18
REMARK    3  A    between atoms: _6  and  _7
REMARK    4  A    between atoms: _6  and  _18
REMARK    5  A    between atoms: _14  and  _34
REMARK    6  A    between atoms: _16  and  _22
REMARK    7  A    between atoms: _17  and  _21
REMARK    8  A    between atoms: _21  and  _22
REMARK    9  A    between atoms: _24  and  _25
REMARK   10  A    between atoms: _26  and  _27
REMARK   11  A    between atoms: _28  and  _30
REMARK   12  A    between atoms: _30  and  _31
REMARK   13  A    between atoms: _30  and  _32
REMARK   14  A    between atoms: _32  and  _33
REMARK   15  A    between atoms: _32  and  _34
REMARK   16  A    between atoms: _35  and  _37
REMARK                            x       y       z     vdW  Elec       q    Type
REMARK                         _______ _______ _______ _____ _____    ______ ____
ROOT
ATOM      1  C   UNL     1       1.705  -0.220  28.656  0.00  0.00    +0.163 C 
ENDROOT
BRANCH   1   2
ATOM      2  O   UNL     1       0.357  -0.560  29.019  0.00  0.00    -0.388 OA
ATOM      3  H   UNL     1       0.162  -1.454  28.727  0.00  0.00    +0.210 HD
ENDBRANCH   1   2
BRANCH   1   4
ATOM      4  C   UNL     1       2.057   1.163  29.194  0.00  0.00    +0.141 C 
BRANCH   4   7
ATOM      5  C   UNL     1       0.961   3.306  28.637  0.00  0.00    +0.401 C 
ATOM      6  O   UNL     1       1.980   3.810  28.158  0.00  0.00    -0.226 OA
ATOM      7  N   UNL     1       0.909   2.076  29.149  0.00  0.00    -0.279 N 
ATOM      8  H   UNL     1       0.029   1.755  29.529  0.00  0.00    +0.152 HD
BRANCH   5   9
ATOM      9  O   UNL     1      -0.247   4.070  28.659  0.00  0.00    -0.444 OA
BRANCH   9  10
ATOM     10  C   UNL     1      -1.154   3.559  27.679  0.00  0.00    +0.292 C 
BRANCH  10  12
ATOM     11  N   UNL     1      -0.712   5.434  26.138  0.00  0.00    -0.131 NA
ATOM     12  C   UNL     1      -0.824   4.096  26.346  0.00  0.00    +0.121 A 
ATOM     13  C   UNL     1      -0.577   3.440  25.163  0.00  0.00    +0.143 A 
ATOM     14  N   UNL     1      -0.295   4.432  24.239  0.00  0.00    -0.219 N 
ATOM     15  N   UNL     1      -0.400   5.625  24.865  0.00  0.00    -0.060 NA
BRANCH  14  16
ATOM     16  C   UNL     1       0.063   4.282  22.862  0.00  0.00    +0.080 A 
ATOM     17  C   UNL     1       1.440   4.311  22.537  0.00  0.00    +0.029 A 
ATOM     18  C   UNL     1       1.888   4.190  21.218  0.00  0.00    +0.002 A 
ATOM     19  C   UNL     1       0.976   4.036  20.188  0.00  0.00    +0.001 A 
ATOM     20  C   UNL     1      -0.386   3.997  20.479  0.00  0.00    +0.016 A 
ATOM     21  C   UNL     1      -0.857   4.115  21.805  0.00  0.00    +0.039 A 
ATOM     22  I   UNL     1      -2.967   4.013  21.922  0.00  0.00    -0.042 I 
ENDBRANCH  14  16
ENDBRANCH  10  12
ENDBRANCH   9  10
ENDBRANCH   5   9
ENDBRANCH   4   7
ENDBRANCH   1   4
BRANCH   1  23
ATOM     23  C   UNL     1       1.884  -0.238  27.128  0.00  0.00    +0.175 C 
BRANCH  23  24
ATOM     24  C   UNL     1       2.963  -1.236  26.684  0.00  0.00    +0.176 C 
ATOM     25  O   UNL     1       4.094  -1.104  27.589  0.00  0.00    -0.332 OA
ATOM     26  C   UNL     1       5.187  -2.059  27.382  0.00  0.00    +0.277 C 
ATOM     27  C   UNL     1       5.681  -2.006  25.915  0.00  0.00    +0.110 C 
ATOM     28  C   UNL     1       4.510  -2.111  24.916  0.00  0.00    +0.143 C 
ATOM     29  C   UNL     1       3.429  -1.075  25.225  0.00  0.00    +0.133 C 
BRANCH  29  30
ATOM     30  N   UNL     1       2.281  -1.242  24.321  0.00  0.00    -0.308 N 
ATOM     31  H   UNL     1       1.785  -2.122  24.345  0.00  0.00    +0.149 HD
ATOM     32  C   UNL     1       1.850  -0.306  23.470  0.00  0.00    +0.210 C 
ATOM     33  C   UNL     1       2.642   1.014  23.438  0.00  0.00    +0.109 C 
ATOM     34  O   UNL     1       0.876  -0.469  22.734  0.00  0.00    -0.276 OA
ENDBRANCH  29  30
BRANCH  26  35
ATOM     35  C   UNL     1       4.731  -3.493  27.721  0.00  0.00    +0.414 C 
ATOM     36  O   UNL     1       4.983  -4.422  26.954  0.00  0.00    -0.240 OA
ATOM     37  O   UNL     1       4.112  -3.722  28.761  0.00  0.00    -0.240 OA
ENDBRANCH  26  35
BRANCH  28  38
ATOM     38  O   UNL     1       4.991  -1.907  23.587  0.00  0.00    -0.390 OA
ATOM     39  H   UNL     1       4.489  -1.204  23.168  0.00  0.00    +0.210 HD
ENDBRANCH  28  38
BRANCH  26  40
ATOM     40  O   UNL     1       6.286  -1.678  28.249  0.00  0.00    -0.343 OA
ATOM     41  C   UNL     1       7.529  -2.385  28.008  0.00  0.00    +0.198 C 
ENDBRANCH  26  40
ENDBRANCH  23  24
BRANCH  23  42
ATOM     42  O   UNL     1       2.203   1.084  26.650  0.00  0.00    -0.387 OA
ATOM     43  H   UNL     1       2.739   1.540  27.303  0.00  0.00    +0.210 HD
ENDBRANCH  23  42
ENDBRANCH   1  23
TORSDOF 14
