REMARK VINA RESULT:    -6.124      1.494      1.917
REMARK INTER + INTRA:         -12.664
REMARK INTER:                 -10.950
REMARK INTRA:                  -1.714
REMARK UNBOUND:                -2.065
REMARK  Name = lig_assembled_49.pdb
REMARK  16 active torsions:
REMARK  status: ('A' for Active; 'I' for Inactive)
REMARK    1  A    between atoms: _2  and  _9
REMARK    2  A    between atoms: _4  and  _17
REMARK    3  A    between atoms: _6  and  _7
REMARK    4  A    between atoms: _6  and  _17
REMARK    5  A    between atoms: _13  and  _33
REMARK    6  A    between atoms: _15  and  _21
REMARK    7  A    between atoms: _16  and  _20
REMARK    8  A    between atoms: _20  and  _21
REMARK    9  A    between atoms: _23  and  _24
REMARK   10  A    between atoms: _25  and  _26
REMARK   11  A    between atoms: _27  and  _29
REMARK   12  A    between atoms: _29  and  _30
REMARK   13  A    between atoms: _29  and  _31
REMARK   14  A    between atoms: _31  and  _32
REMARK   15  A    between atoms: _31  and  _33
REMARK   16  A    between atoms: _34  and  _36
REMARK                            x       y       z     vdW  Elec       q    Type
REMARK                         _______ _______ _______ _____ _____    ______ ____
ROOT
ATOM      1  C   UNL     1       5.999   2.889  32.779  0.00  0.00    +0.175 C 
ENDROOT
BRANCH   1   2
ATOM      2  C   UNL     1       6.173   3.521  34.168  0.00  0.00    +0.176 C 
ATOM      3  O   UNL     1       6.686   4.870  33.984  0.00  0.00    -0.332 OA
ATOM      4  C   UNL     1       6.817   5.670  35.205  0.00  0.00    +0.277 C 
ATOM      5  C   UNL     1       7.676   4.921  36.254  0.00  0.00    +0.110 C 
ATOM      6  C   UNL     1       7.188   3.472  36.460  0.00  0.00    +0.143 C 
ATOM      7  C   UNL     1       7.085   2.732  35.125  0.00  0.00    +0.133 C 
BRANCH   7   8
ATOM      8  N   UNL     1       6.537   1.382  35.325  0.00  0.00    -0.308 N 
ATOM      9  H   UNL     1       5.619   1.302  35.739  0.00  0.00    +0.149 HD
ATOM     10  C   UNL     1       7.174   0.254  34.996  0.00  0.00    +0.210 C 
ATOM     11  C   UNL     1       8.582   0.409  34.392  0.00  0.00    +0.109 C 
ATOM     12  O   UNL     1       6.684  -0.863  35.162  0.00  0.00    -0.276 OA
ENDBRANCH   7   8
BRANCH   4  13
ATOM     13  C   UNL     1       5.430   5.984  35.805  0.00  0.00    +0.414 C 
ATOM     14  O   UNL     1       4.436   6.026  35.080  0.00  0.00    -0.240 OA
ATOM     15  O   UNL     1       5.305   6.194  37.012  0.00  0.00    -0.240 OA
ENDBRANCH   4  13
BRANCH   6  16
ATOM     16  O   UNL     1       8.095   2.775  37.315  0.00  0.00    -0.390 OA
ATOM     17  H   UNL     1       8.990   3.082  37.151  0.00  0.00    +0.210 HD
ENDBRANCH   6  16
BRANCH   4  18
ATOM     18  O   UNL     1       7.491   6.907  34.861  0.00  0.00    -0.343 OA
ATOM     19  C   UNL     1       8.260   7.505  35.935  0.00  0.00    +0.198 C 
ENDBRANCH   4  18
ENDBRANCH   1   2
BRANCH   1  20
ATOM     20  O   UNL     1       7.073   3.297  31.909  0.00  0.00    -0.387 OA
ATOM     21  H   UNL     1       7.682   3.859  32.394  0.00  0.00    +0.210 HD
ENDBRANCH   1  20
BRANCH   1  22
ATOM     22  C   UNL     1       4.642   3.244  32.148  0.00  0.00    +0.163 C 
BRANCH  22  23
ATOM     23  O   UNL     1       4.023   4.340  32.841  0.00  0.00    -0.388 OA
ATOM     24  H   UNL     1       3.085   4.362  32.634  0.00  0.00    +0.210 HD
ENDBRANCH  22  23
BRANCH  22  25
ATOM     25  C   UNL     1       3.729   2.022  32.182  0.00  0.00    +0.141 C 
BRANCH  25  28
ATOM     26  C   UNL     1       1.662   1.834  30.841  0.00  0.00    +0.401 C 
ATOM     27  O   UNL     1       0.910   1.946  31.812  0.00  0.00    -0.226 OA
ATOM     28  N   UNL     1       2.993   1.853  30.923  0.00  0.00    -0.279 N 
ATOM     29  H   UNL     1       3.525   1.745  30.071  0.00  0.00    +0.152 HD
BRANCH  26  30
ATOM     30  O   UNL     1       1.095   1.670  29.539  0.00  0.00    -0.444 OA
BRANCH  30  31
ATOM     31  C   UNL     1       0.460   2.887  29.137  0.00  0.00    +0.292 C 
BRANCH  31  33
ATOM     32  N   UNL     1       2.202   3.675  27.568  0.00  0.00    -0.131 NA
ATOM     33  C   UNL     1       0.910   3.281  27.789  0.00  0.00    +0.120 A 
ATOM     34  C   UNL     1       0.212   3.339  26.603  0.00  0.00    +0.137 A 
ATOM     35  N   UNL     1       1.134   3.783  25.701  0.00  0.00    -0.248 N 
ATOM     36  N   UNL     1       2.329   3.980  26.285  0.00  0.00    -0.065 NA
BRANCH  35  37
ATOM     37  C   UNL     1       0.936   4.054  24.297  0.00  0.00    +0.109 C 
ATOM     38  C   UNL     1       1.813   5.185  23.755  0.00  0.00    +0.027 C 
ATOM     39  C   UNL     1       1.751   4.971  22.253  0.00  0.00    +0.002 C 
ATOM     40  C   UNL     1       1.807   3.458  22.087  0.00  0.00    +0.002 C 
ATOM     41  C   UNL     1       1.225   2.864  23.372  0.00  0.00    +0.027 C 
ENDBRANCH  35  37
ENDBRANCH  31  33
ENDBRANCH  30  31
ENDBRANCH  26  30
ENDBRANCH  25  28
ENDBRANCH  22  25
ENDBRANCH   1  22
TORSDOF 14
