REMARK VINA RESULT:    -7.022     10.093     15.693
REMARK INTER + INTRA:         -14.146
REMARK INTER:                 -11.787
REMARK INTRA:                  -2.358
REMARK UNBOUND:                -1.992
REMARK  Name = lig_assembled_25.pdb
REMARK  16 active torsions:
REMARK  status: ('A' for Active; 'I' for Inactive)
REMARK    1  A    between atoms: _2  and  _9
REMARK    2  A    between atoms: _4  and  _25
REMARK    3  A    between atoms: _6  and  _7
REMARK    4  A    between atoms: _6  and  _25
REMARK    5  A    between atoms: _21  and  _41
REMARK    6  A    between atoms: _23  and  _29
REMARK    7  A    between atoms: _24  and  _28
REMARK    8  A    between atoms: _28  and  _29
REMARK    9  A    between atoms: _31  and  _32
REMARK   10  A    between atoms: _33  and  _34
REMARK   11  A    between atoms: _35  and  _37
REMARK   12  A    between atoms: _37  and  _38
REMARK   13  A    between atoms: _37  and  _39
REMARK   14  A    between atoms: _39  and  _40
REMARK   15  A    between atoms: _39  and  _41
REMARK   16  A    between atoms: _42  and  _44
REMARK                            x       y       z     vdW  Elec       q    Type
REMARK                         _______ _______ _______ _____ _____    ______ ____
ROOT
ATOM      1  C   UNL     1      -7.209   8.884  18.888  0.00  0.00    +0.141 C 
ENDROOT
BRANCH   1   4
ATOM      2  C   UNL     1      -6.081   7.486  20.585  0.00  0.00    +0.401 C 
ATOM      3  O   UNL     1      -5.301   8.374  20.935  0.00  0.00    -0.226 OA
ATOM      4  N   UNL     1      -7.002   7.635  19.632  0.00  0.00    -0.279 N 
ATOM      5  H   UNL     1      -7.590   6.844  19.409  0.00  0.00    +0.152 HD
BRANCH   2   6
ATOM      6  O   UNL     1      -6.010   6.208  21.224  0.00  0.00    -0.444 OA
BRANCH   6   7
ATOM      7  C   UNL     1      -5.445   6.357  22.529  0.00  0.00    +0.292 C 
BRANCH   7   9
ATOM      8  N   UNL     1      -2.991   6.630  22.600  0.00  0.00    -0.131 NA
ATOM      9  C   UNL     1      -4.079   5.801  22.565  0.00  0.00    +0.120 A 
ATOM     10  C   UNL     1      -3.648   4.493  22.551  0.00  0.00    +0.138 A 
ATOM     11  N   UNL     1      -2.285   4.589  22.559  0.00  0.00    -0.240 N 
ATOM     12  N   UNL     1      -1.897   5.882  22.600  0.00  0.00    -0.064 NA
BRANCH  11  13
ATOM     13  C   UNL     1      -1.275   3.550  22.449  0.00  0.00    +0.170 C 
ATOM     14  C   UNL     1      -0.239   3.624  23.564  0.00  0.00    -0.011 A 
ATOM     15  C   UNL     1       1.058   3.718  23.012  0.00  0.00    -0.012 A 
ATOM     16  C   UNL     1       0.954   3.731  21.566  0.00  0.00    -0.012 A 
ATOM     17  C   UNL     1       1.943   3.773  20.597  0.00  0.00    +0.009 A 
ATOM     18  C   UNL     1       1.559   3.742  19.254  0.00  0.00    +0.001 A 
ATOM     19  C   UNL     1       0.202   3.674  18.894  0.00  0.00    +0.000 A 
ATOM     20  C   UNL     1      -0.797   3.631  19.869  0.00  0.00    +0.006 A 
ATOM     21  C   UNL     1       2.168   3.774  23.836  0.00  0.00    +0.009 A 
ATOM     22  C   UNL     1       1.973   3.736  25.221  0.00  0.00    +0.001 A 
ATOM     23  C   UNL     1       0.682   3.639  25.764  0.00  0.00    +0.000 A 
ATOM     24  C   UNL     1      -0.440   3.578  24.937  0.00  0.00    +0.006 A 
ATOM     25  C   UNL     1      -0.410   3.662  21.200  0.00  0.00    -0.011 A 
ENDBRANCH  11  13
ENDBRANCH   7   9
ENDBRANCH   6   7
ENDBRANCH   2   6
ENDBRANCH   1   4
BRANCH   1  26
ATOM     26  C   UNL     1      -6.756   8.763  17.437  0.00  0.00    +0.163 C 
BRANCH  26  27
ATOM     27  O   UNL     1      -7.790   9.238  16.558  0.00  0.00    -0.388 OA
ATOM     28  H   UNL     1      -8.646   8.950  16.885  0.00  0.00    +0.210 HD
ENDBRANCH  26  27
BRANCH  26  29
ATOM     29  C   UNL     1      -5.455   9.559  17.236  0.00  0.00    +0.175 C 
BRANCH  29  30
ATOM     30  C   UNL     1      -4.562   8.941  16.149  0.00  0.00    +0.176 C 
ATOM     31  O   UNL     1      -3.685   7.973  16.788  0.00  0.00    -0.332 OA
ATOM     32  C   UNL     1      -2.827   7.202  15.884  0.00  0.00    +0.277 C 
ATOM     33  C   UNL     1      -1.994   8.150  14.988  0.00  0.00    +0.110 C 
ATOM     34  C   UNL     1      -2.880   9.218  14.312  0.00  0.00    +0.143 C 
ATOM     35  C   UNL     1      -3.732   9.958  15.343  0.00  0.00    +0.133 C 
BRANCH  35  36
ATOM     36  N   UNL     1      -4.634  10.911  14.678  0.00  0.00    -0.308 N 
ATOM     37  H   UNL     1      -5.195  10.573  13.909  0.00  0.00    +0.149 HD
ATOM     38  C   UNL     1      -4.760  12.195  15.025  0.00  0.00    +0.210 C 
ATOM     39  C   UNL     1      -3.872  12.687  16.184  0.00  0.00    +0.109 C 
ATOM     40  O   UNL     1      -5.534  12.968  14.459  0.00  0.00    -0.276 OA
ENDBRANCH  35  36
BRANCH  32  41
ATOM     41  C   UNL     1      -3.671   6.263  14.997  0.00  0.00    +0.414 C 
ATOM     42  O   UNL     1      -4.673   5.713  15.453  0.00  0.00    -0.240 OA
ATOM     43  O   UNL     1      -3.351   6.057  13.825  0.00  0.00    -0.240 OA
ENDBRANCH  32  41
BRANCH  34  44
ATOM     44  O   UNL     1      -2.057  10.159  13.620  0.00  0.00    -0.390 OA
ATOM     45  H   UNL     1      -2.563  10.954  13.437  0.00  0.00    +0.210 HD
ENDBRANCH  34  44
BRANCH  32  46
ATOM     46  O   UNL     1      -1.913   6.417  16.693  0.00  0.00    -0.343 OA
ATOM     47  C   UNL     1      -0.512   6.563  16.350  0.00  0.00    +0.198 C 
ENDBRANCH  32  46
ENDBRANCH  29  30
BRANCH  29  48
ATOM     48  O   UNL     1      -4.733   9.651  18.480  0.00  0.00    -0.387 OA
ATOM     49  H   UNL     1      -4.740  10.560  18.788  0.00  0.00    +0.210 HD
ENDBRANCH  29  48
ENDBRANCH  26  29
ENDBRANCH   1  26
TORSDOF 14
