REMARK VINA RESULT:    -6.509     12.600     14.898
REMARK INTER + INTRA:         -14.813
REMARK INTER:                 -12.216
REMARK INTRA:                  -2.597
REMARK UNBOUND:                -2.597
REMARK  Name = lig_assembled_77.pdb
REMARK  19 active torsions:
REMARK  status: ('A' for Active; 'I' for Inactive)
REMARK    1  A    between atoms: _2  and  _10
REMARK    2  A    between atoms: _3  and  _17
REMARK    3  A    between atoms: _5  and  _27
REMARK    4  A    between atoms: _7  and  _8
REMARK    5  A    between atoms: _7  and  _27
REMARK    6  A    between atoms: _13  and  _47
REMARK    7  A    between atoms: _14  and  _47
REMARK    8  A    between atoms: _23  and  _43
REMARK    9  A    between atoms: _25  and  _31
REMARK   10  A    between atoms: _26  and  _30
REMARK   11  A    between atoms: _30  and  _31
REMARK   12  A    between atoms: _33  and  _34
REMARK   13  A    between atoms: _35  and  _36
REMARK   14  A    between atoms: _37  and  _39
REMARK   15  A    between atoms: _39  and  _40
REMARK   16  A    between atoms: _39  and  _41
REMARK   17  A    between atoms: _41  and  _42
REMARK   18  A    between atoms: _41  and  _43
REMARK   19  A    between atoms: _44  and  _46
REMARK                            x       y       z     vdW  Elec       q    Type
REMARK                         _______ _______ _______ _____ _____    ______ ____
ROOT
ATOM      1  C   UNL     1      18.668  10.634  30.123  0.00  0.00    +0.401 C 
ATOM      2  O   UNL     1      17.530  10.461  29.680  0.00  0.00    -0.226 OA
ATOM      3  N   UNL     1      18.941  10.854  31.410  0.00  0.00    -0.279 N 
ATOM      4  H   UNL     1      19.907  10.975  31.679  0.00  0.00    +0.152 HD
ENDROOT
BRANCH   3   5
ATOM      5  C   UNL     1      17.916  10.931  32.459  0.00  0.00    +0.141 C 
BRANCH   5   6
ATOM      6  C   UNL     1      17.937   9.704  33.364  0.00  0.00    +0.163 C 
BRANCH   6   7
ATOM      7  O   UNL     1      18.048  10.109  34.739  0.00  0.00    -0.388 OA
ATOM      8  H   UNL     1      17.382  10.774  34.931  0.00  0.00    +0.210 HD
ENDBRANCH   6   7
BRANCH   6   9
ATOM      9  C   UNL     1      16.661   8.875  33.137  0.00  0.00    +0.175 C 
BRANCH   9  10
ATOM     10  C   UNL     1      16.766   7.472  33.750  0.00  0.00    +0.176 C 
ATOM     11  O   UNL     1      16.729   7.612  35.197  0.00  0.00    -0.332 OA
ATOM     12  C   UNL     1      16.712   6.357  35.956  0.00  0.00    +0.277 C 
ATOM     13  C   UNL     1      17.908   5.462  35.547  0.00  0.00    +0.110 C 
ATOM     14  C   UNL     1      18.007   5.309  34.014  0.00  0.00    +0.143 C 
ATOM     15  C   UNL     1      18.014   6.675  33.326  0.00  0.00    +0.133 C 
BRANCH  15  16
ATOM     16  N   UNL     1      18.021   6.515  31.864  0.00  0.00    -0.308 N 
ATOM     17  H   UNL     1      17.197   6.124  31.428  0.00  0.00    +0.149 HD
ATOM     18  C   UNL     1      19.045   6.852  31.074  0.00  0.00    +0.210 C 
ATOM     19  C   UNL     1      20.295   7.420  31.772  0.00  0.00    +0.109 C 
ATOM     20  O   UNL     1      19.017   6.720  29.850  0.00  0.00    -0.276 OA
ENDBRANCH  15  16
BRANCH  12  21
ATOM     21  C   UNL     1      15.392   5.594  35.721  0.00  0.00    +0.414 C 
ATOM     22  O   UNL     1      14.365   6.206  35.431  0.00  0.00    -0.240 OA
ATOM     23  O   UNL     1      15.355   4.367  35.821  0.00  0.00    -0.240 OA
ENDBRANCH  12  21
BRANCH  14  24
ATOM     24  O   UNL     1      19.204   4.607  33.677  0.00  0.00    -0.390 OA
ATOM     25  H   UNL     1      19.953   5.205  33.731  0.00  0.00    +0.210 HD
ENDBRANCH  14  24
BRANCH  12  26
ATOM     26  O   UNL     1      16.845   6.682  37.363  0.00  0.00    -0.343 OA
ATOM     27  C   UNL     1      17.786   5.858  38.096  0.00  0.00    +0.198 C 
ENDBRANCH  12  26
ENDBRANCH   9  10
BRANCH   9  28
ATOM     28  O   UNL     1      16.375   8.781  31.727  0.00  0.00    -0.387 OA
ATOM     29  H   UNL     1      15.584   9.287  31.526  0.00  0.00    +0.210 HD
ENDBRANCH   9  28
ENDBRANCH   6   9
ENDBRANCH   5   6
ENDBRANCH   3   5
BRANCH   1  30
ATOM     30  O   UNL     1      19.777  10.597  29.222  0.00  0.00    -0.444 OA
BRANCH  30  31
ATOM     31  C   UNL     1      19.317  10.829  27.888  0.00  0.00    +0.292 C 
BRANCH  31  33
ATOM     32  N   UNL     1      20.536   9.668  26.077  0.00  0.00    -0.131 NA
ATOM     33  C   UNL     1      19.571   9.647  27.042  0.00  0.00    +0.121 A 
ATOM     34  C   UNL     1      18.964   8.413  27.045  0.00  0.00    +0.143 A 
ATOM     35  N   UNL     1      19.606   7.698  26.059  0.00  0.00    -0.220 N 
ATOM     36  N   UNL     1      20.545   8.485  25.478  0.00  0.00    -0.060 NA
BRANCH  35  37
ATOM     37  C   UNL     1      19.432   6.339  25.686  0.00  0.00    +0.067 A 
ATOM     38  C   UNL     1      19.130   5.989  24.361  0.00  0.00    +0.030 A 
ATOM     39  C   UNL     1      18.842   4.659  24.036  0.00  0.00    +0.029 A 
ATOM     40  C   UNL     1      18.863   3.683  25.034  0.00  0.00    +0.094 A 
ATOM     41  C   UNL     1      19.252   4.005  26.337  0.00  0.00    +0.029 A 
ATOM     42  C   UNL     1      19.525   5.336  26.665  0.00  0.00    +0.030 A 
BRANCH  40  43
ATOM     43  S   UNL     1      18.428   2.002  24.632  0.00  0.00    +0.025 S 
ATOM     44  O   UNL     1      19.671   1.250  24.644  0.00  0.00    -0.164 OA
ATOM     45  O   UNL     1      17.325   1.622  25.493  0.00  0.00    -0.164 OA
BRANCH  43  46
ATOM     46  C   UNL     1      17.804   1.951  22.965  0.00  0.00    +0.094 A 
ATOM     47  C   UNL     1      18.341   1.074  22.022  0.00  0.00    +0.029 A 
ATOM     48  C   UNL     1      17.868   1.104  20.705  0.00  0.00    +0.024 A 
ATOM     49  C   UNL     1      16.832   1.969  20.329  0.00  0.00    +0.025 A 
ATOM     50  C   UNL     1      16.327   2.862  21.279  0.00  0.00    +0.024 A 
ATOM     51  C   UNL     1      16.791   2.843  22.597  0.00  0.00    +0.029 A 
BRANCH  49  52
ATOM     52  N   UNL     1      16.488   2.111  18.982  0.00  0.00    -0.358 N 
ATOM     53  H   UNL     1      15.550   1.802  18.747  0.00  0.00    +0.142 HD
ATOM     54  H   UNL     1      16.708   3.019  18.586  0.00  0.00    +0.142 HD
ENDBRANCH  49  52
ENDBRANCH  43  46
ENDBRANCH  40  43
ENDBRANCH  35  37
ENDBRANCH  31  33
ENDBRANCH  30  31
ENDBRANCH   1  30
TORSDOF 17
