REMARK VINA RESULT:    -4.999     18.377     20.792
REMARK INTER + INTRA:         -11.761
REMARK INTER:                  -9.090
REMARK INTRA:                  -2.671
REMARK UNBOUND:                -2.671
REMARK  Name = lig_assembled_1.pdb
REMARK  18 active torsions:
REMARK  status: ('A' for Active; 'I' for Inactive)
REMARK    1  A    between atoms: _2  and  _9
REMARK    2  A    between atoms: _4  and  _15
REMARK    3  A    between atoms: _5  and  _9
REMARK    4  A    between atoms: _5  and  _10
REMARK    5  A    between atoms: _6  and  _7
REMARK    6  A    between atoms: _6  and  _15
REMARK    7  A    between atoms: _11  and  _31
REMARK    8  A    between atoms: _13  and  _19
REMARK    9  A    between atoms: _14  and  _18
REMARK   10  A    between atoms: _18  and  _19
REMARK   11  A    between atoms: _21  and  _22
REMARK   12  A    between atoms: _23  and  _24
REMARK   13  A    between atoms: _25  and  _27
REMARK   14  A    between atoms: _27  and  _28
REMARK   15  A    between atoms: _27  and  _29
REMARK   16  A    between atoms: _29  and  _30
REMARK   17  A    between atoms: _29  and  _31
REMARK   18  A    between atoms: _32  and  _34
REMARK                            x       y       z     vdW  Elec       q    Type
REMARK                         _______ _______ _______ _____ _____    ______ ____
ROOT
ATOM      1  C   UNL     1       4.692   6.121  38.427  0.00  0.00    +0.175 C 
ENDROOT
BRANCH   1   2
ATOM      2  C   UNL     1       5.813   6.266  37.388  0.00  0.00    +0.176 C 
ATOM      3  O   UNL     1       5.673   5.186  36.424  0.00  0.00    -0.332 OA
ATOM      4  C   UNL     1       6.600   5.224  35.290  0.00  0.00    +0.277 C 
ATOM      5  C   UNL     1       8.064   5.293  35.789  0.00  0.00    +0.110 C 
ATOM      6  C   UNL     1       8.255   6.407  36.840  0.00  0.00    +0.143 C 
ATOM      7  C   UNL     1       7.237   6.274  37.973  0.00  0.00    +0.133 C 
BRANCH   7   8
ATOM      8  N   UNL     1       7.373   7.390  38.922  0.00  0.00    -0.308 N 
ATOM      9  H   UNL     1       7.077   8.307  38.617  0.00  0.00    +0.149 HD
ATOM     10  C   UNL     1       7.861   7.271  40.159  0.00  0.00    +0.210 C 
ATOM     11  C   UNL     1       8.326   5.866  40.585  0.00  0.00    +0.109 C 
ATOM     12  O   UNL     1       7.949   8.221  40.938  0.00  0.00    -0.276 OA
ENDBRANCH   7   8
BRANCH   4  13
ATOM     13  C   UNL     1       6.307   6.438  34.384  0.00  0.00    +0.414 C 
ATOM     14  O   UNL     1       5.150   6.706  34.061  0.00  0.00    -0.240 OA
ATOM     15  O   UNL     1       7.226   7.150  33.976  0.00  0.00    -0.240 OA
ENDBRANCH   4  13
BRANCH   4  16
ATOM     16  O   UNL     1       6.433   3.998  34.532  0.00  0.00    -0.343 OA
ATOM     17  C   UNL     1       7.503   3.704  33.599  0.00  0.00    +0.198 C 
ENDBRANCH   4  16
BRANCH   6  18
ATOM     18  O   UNL     1       9.575   6.337  37.382  0.00  0.00    -0.390 OA
ATOM     19  H   UNL     1      10.063   5.635  36.947  0.00  0.00    +0.210 HD
ENDBRANCH   6  18
ENDBRANCH   1   2
BRANCH   1  20
ATOM     20  O   UNL     1       5.116   5.253  39.497  0.00  0.00    -0.387 OA
ATOM     21  H   UNL     1       4.897   4.344  39.279  0.00  0.00    +0.210 HD
ENDBRANCH   1  20
BRANCH   1  22
ATOM     22  C   UNL     1       3.388   5.593  37.803  0.00  0.00    +0.163 C 
BRANCH  22  23
ATOM     23  O   UNL     1       3.168   6.173  36.506  0.00  0.00    -0.388 OA
ATOM     24  H   UNL     1       3.007   5.475  35.866  0.00  0.00    +0.210 HD
ENDBRANCH  22  23
BRANCH  22  25
ATOM     25  C   UNL     1       2.216   5.914  38.724  0.00  0.00    +0.141 C 
BRANCH  25  28
ATOM     26  C   UNL     1       2.326   7.073  40.903  0.00  0.00    +0.401 C 
ATOM     27  O   UNL     1       1.909   6.106  41.545  0.00  0.00    -0.226 OA
ATOM     28  N   UNL     1       2.494   7.073  39.580  0.00  0.00    -0.279 N 
ATOM     29  H   UNL     1       2.832   7.919  39.142  0.00  0.00    +0.152 HD
BRANCH  26  30
ATOM     30  O   UNL     1       2.651   8.280  41.598  0.00  0.00    -0.444 OA
BRANCH  30  31
ATOM     31  C   UNL     1       2.889   9.326  40.653  0.00  0.00    +0.292 C 
BRANCH  31  33
ATOM     32  N   UNL     1       4.372  11.297  40.423  0.00  0.00    -0.131 NA
ATOM     33  C   UNL     1       4.071  10.116  41.048  0.00  0.00    +0.120 A 
ATOM     34  C   UNL     1       5.019   9.864  42.016  0.00  0.00    +0.137 A 
ATOM     35  N   UNL     1       5.868  10.925  41.925  0.00  0.00    -0.249 N 
ATOM     36  N   UNL     1       5.481  11.782  40.965  0.00  0.00    -0.065 NA
BRANCH  35  37
ATOM     37  C   UNL     1       7.050  11.189  42.715  0.00  0.00    +0.173 C 
BRANCH  37  38
ATOM     38  C   UNL     1       7.061  12.595  43.303  0.00  0.00    +0.179 C 
BRANCH  38  39
ATOM     39  O   UNL     1       5.742  13.024  43.639  0.00  0.00    -0.393 OA
ATOM     40  H   UNL     1       5.168  12.792  42.884  0.00  0.00    +0.209 HD
ENDBRANCH  38  39
ENDBRANCH  37  38
ENDBRANCH  35  37
ENDBRANCH  31  33
ENDBRANCH  30  31
ENDBRANCH  26  30
ENDBRANCH  25  28
ENDBRANCH  22  25
ENDBRANCH   1  22
TORSDOF 16
