REMARK VINA RESULT:    -6.856      9.702     15.555
REMARK INTER + INTRA:         -15.465
REMARK INTER:                 -12.809
REMARK INTRA:                  -2.656
REMARK UNBOUND:                -2.597
REMARK  Name = lig_assembled_77.pdb
REMARK  19 active torsions:
REMARK  status: ('A' for Active; 'I' for Inactive)
REMARK    1  A    between atoms: _2  and  _10
REMARK    2  A    between atoms: _3  and  _17
REMARK    3  A    between atoms: _5  and  _27
REMARK    4  A    between atoms: _7  and  _8
REMARK    5  A    between atoms: _7  and  _27
REMARK    6  A    between atoms: _13  and  _47
REMARK    7  A    between atoms: _14  and  _47
REMARK    8  A    between atoms: _23  and  _43
REMARK    9  A    between atoms: _25  and  _31
REMARK   10  A    between atoms: _26  and  _30
REMARK   11  A    between atoms: _30  and  _31
REMARK   12  A    between atoms: _33  and  _34
REMARK   13  A    between atoms: _35  and  _36
REMARK   14  A    between atoms: _37  and  _39
REMARK   15  A    between atoms: _39  and  _40
REMARK   16  A    between atoms: _39  and  _41
REMARK   17  A    between atoms: _41  and  _42
REMARK   18  A    between atoms: _41  and  _43
REMARK   19  A    between atoms: _44  and  _46
REMARK                            x       y       z     vdW  Elec       q    Type
REMARK                         _______ _______ _______ _____ _____    ______ ____
ROOT
ATOM      1  C   UNL     1      -0.284   4.261  19.185  0.00  0.00    +0.401 C 
ATOM      2  O   UNL     1      -0.043   3.241  18.535  0.00  0.00    -0.226 OA
ATOM      3  N   UNL     1       0.457   4.686  20.209  0.00  0.00    -0.279 N 
ATOM      4  H   UNL     1       0.183   5.540  20.674  0.00  0.00    +0.152 HD
ENDROOT
BRANCH   3   5
ATOM      5  C   UNL     1       1.648   3.981  20.700  0.00  0.00    +0.141 C 
BRANCH   5   6
ATOM      6  C   UNL     1       1.397   3.311  22.047  0.00  0.00    +0.163 C 
BRANCH   6   7
ATOM      7  O   UNL     1       2.158   2.095  22.140  0.00  0.00    -0.388 OA
ATOM      8  H   UNL     1       1.832   1.568  22.874  0.00  0.00    +0.210 HD
ENDBRANCH   6   7
BRANCH   6   9
ATOM      9  C   UNL     1       1.770   4.281  23.181  0.00  0.00    +0.175 C 
BRANCH   9  10
ATOM     10  C   UNL     1       1.043   3.946  24.491  0.00  0.00    +0.176 C 
ATOM     11  O   UNL     1       1.661   2.755  25.053  0.00  0.00    -0.332 OA
ATOM     12  C   UNL     1       1.163   2.343  26.369  0.00  0.00    +0.277 C 
ATOM     13  C   UNL     1      -0.375   2.168  26.334  0.00  0.00    +0.110 C 
ATOM     14  C   UNL     1      -1.074   3.397  25.716  0.00  0.00    +0.143 C 
ATOM     15  C   UNL     1      -0.476   3.739  24.351  0.00  0.00    +0.133 C 
BRANCH  15  16
ATOM     16  N   UNL     1      -1.091   4.962  23.810  0.00  0.00    -0.308 N 
ATOM     17  H   UNL     1      -0.843   5.843  24.239  0.00  0.00    +0.149 HD
ATOM     18  C   UNL     1      -1.954   4.983  22.792  0.00  0.00    +0.210 C 
ATOM     19  C   UNL     1      -2.331   3.622  22.178  0.00  0.00    +0.109 C 
ATOM     20  O   UNL     1      -2.442   6.025  22.351  0.00  0.00    -0.276 OA
ENDBRANCH  15  16
BRANCH  12  21
ATOM     21  C   UNL     1       1.540   3.381  27.446  0.00  0.00    +0.414 C 
ATOM     22  O   UNL     1       2.611   3.983  27.379  0.00  0.00    -0.240 OA
ATOM     23  O   UNL     1       0.774   3.617  28.381  0.00  0.00    -0.240 OA
ENDBRANCH  12  21
BRANCH  14  24
ATOM     24  O   UNL     1      -2.470   3.131  25.565  0.00  0.00    -0.390 OA
ATOM     25  H   UNL     1      -2.976   3.813  26.014  0.00  0.00    +0.210 HD
ENDBRANCH  14  24
BRANCH  12  26
ATOM     26  O   UNL     1       1.762   1.062  26.694  0.00  0.00    -0.343 OA
ATOM     27  C   UNL     1       2.383   0.375  25.578  0.00  0.00    +0.198 C 
ENDBRANCH  12  26
ENDBRANCH   9  10
BRANCH   9  28
ATOM     28  O   UNL     1       1.483   5.638  22.787  0.00  0.00    -0.387 OA
ATOM     29  H   UNL     1       2.211   5.980  22.261  0.00  0.00    +0.210 HD
ENDBRANCH   9  28
ENDBRANCH   6   9
ENDBRANCH   5   6
ENDBRANCH   3   5
BRANCH   1  30
ATOM     30  O   UNL     1      -1.420   5.056  18.834  0.00  0.00    -0.444 OA
BRANCH  30  31
ATOM     31  C   UNL     1      -1.807   4.768  17.488  0.00  0.00    +0.292 C 
BRANCH  31  33
ATOM     32  N   UNL     1      -0.523   6.336  16.072  0.00  0.00    -0.131 NA
ATOM     33  C   UNL     1      -1.706   5.979  16.651  0.00  0.00    +0.121 A 
ATOM     34  C   UNL     1      -2.670   6.899  16.310  0.00  0.00    +0.143 A 
ATOM     35  N   UNL     1      -2.024   7.808  15.503  0.00  0.00    -0.220 N 
ATOM     36  N   UNL     1      -0.721   7.453  15.385  0.00  0.00    -0.060 NA
BRANCH  35  37
ATOM     37  C   UNL     1      -2.562   8.924  14.808  0.00  0.00    +0.067 A 
ATOM     38  C   UNL     1      -2.599   8.949  13.405  0.00  0.00    +0.030 A 
ATOM     39  C   UNL     1      -3.020  10.102  12.736  0.00  0.00    +0.029 A 
ATOM     40  C   UNL     1      -3.407  11.226  13.470  0.00  0.00    +0.094 A 
ATOM     41  C   UNL     1      -3.462  11.180  14.866  0.00  0.00    +0.029 A 
ATOM     42  C   UNL     1      -3.027  10.033  15.534  0.00  0.00    +0.030 A 
BRANCH  40  43
ATOM     43  S   UNL     1      -3.876  12.718  12.616  0.00  0.00    +0.025 S 
ATOM     44  O   UNL     1      -4.212  12.319  11.260  0.00  0.00    -0.164 OA
ATOM     45  O   UNL     1      -4.846  13.405  13.446  0.00  0.00    -0.164 OA
BRANCH  43  46
ATOM     46  C   UNL     1      -2.458  13.790  12.508  0.00  0.00    +0.094 A 
ATOM     47  C   UNL     1      -1.254  13.338  11.967  0.00  0.00    +0.029 A 
ATOM     48  C   UNL     1      -0.142  14.188  11.955  0.00  0.00    +0.024 A 
ATOM     49  C   UNL     1      -0.231  15.501  12.435  0.00  0.00    +0.025 A 
ATOM     50  C   UNL     1      -1.437  15.927  13.001  0.00  0.00    +0.024 A 
ATOM     51  C   UNL     1      -2.554  15.087  13.021  0.00  0.00    +0.029 A 
BRANCH  49  52
ATOM     52  N   UNL     1       0.922  16.279  12.576  0.00  0.00    -0.358 N 
ATOM     53  H   UNL     1       1.772  15.752  12.752  0.00  0.00    +0.142 HD
ATOM     54  H   UNL     1       1.044  16.983  11.855  0.00  0.00    +0.142 HD
ENDBRANCH  49  52
ENDBRANCH  43  46
ENDBRANCH  40  43
ENDBRANCH  35  37
ENDBRANCH  31  33
ENDBRANCH  30  31
ENDBRANCH   1  30
TORSDOF 17
