REMARK VINA RESULT:    -5.501      4.624     12.550
REMARK INTER + INTRA:         -13.157
REMARK INTER:                  -9.843
REMARK INTRA:                  -3.313
REMARK UNBOUND:                -3.313
REMARK  Name = lig_assembled_71.pdb
REMARK  17 active torsions:
REMARK  status: ('A' for Active; 'I' for Inactive)
REMARK    1  A    between atoms: _2  and  _12
REMARK    2  A    between atoms: _7  and  _22
REMARK    3  A    between atoms: _9  and  _10
REMARK    4  A    between atoms: _9  and  _22
REMARK    5  A    between atoms: _12  and  _13
REMARK    6  A    between atoms: _18  and  _38
REMARK    7  A    between atoms: _20  and  _26
REMARK    8  A    between atoms: _21  and  _25
REMARK    9  A    between atoms: _25  and  _26
REMARK   10  A    between atoms: _28  and  _29
REMARK   11  A    between atoms: _30  and  _31
REMARK   12  A    between atoms: _32  and  _34
REMARK   13  A    between atoms: _34  and  _35
REMARK   14  A    between atoms: _34  and  _36
REMARK   15  A    between atoms: _36  and  _37
REMARK   16  A    between atoms: _36  and  _38
REMARK   17  A    between atoms: _39  and  _41
REMARK                            x       y       z     vdW  Elec       q    Type
REMARK                         _______ _______ _______ _____ _____    ______ ____
ROOT
ATOM      1  C   UNL     1       1.199   2.333  20.423  0.00  0.00    +0.163 C 
ENDROOT
BRANCH   1   2
ATOM      2  O   UNL     1       2.014   1.423  21.179  0.00  0.00    -0.388 OA
ATOM      3  H   UNL     1       2.288   1.842  21.998  0.00  0.00    +0.210 HD
ENDBRANCH   1   2
BRANCH   1   4
ATOM      4  C   UNL     1       1.754   3.749  20.538  0.00  0.00    +0.141 C 
BRANCH   4   7
ATOM      5  C   UNL     1       1.419   5.157  22.540  0.00  0.00    +0.401 C 
ATOM      6  O   UNL     1       0.609   5.909  21.992  0.00  0.00    -0.226 OA
ATOM      7  N   UNL     1       2.008   4.126  21.934  0.00  0.00    -0.279 N 
ATOM      8  H   UNL     1       2.666   3.573  22.465  0.00  0.00    +0.152 HD
BRANCH   5   9
ATOM      9  O   UNL     1       1.765   5.389  23.908  0.00  0.00    -0.444 OA
BRANCH   9  10
ATOM     10  C   UNL     1       2.029   4.140  24.553  0.00  0.00    +0.292 C 
BRANCH  10  12
ATOM     11  N   UNL     1       0.069   4.711  25.966  0.00  0.00    -0.131 NA
ATOM     12  C   UNL     1       1.248   4.031  25.799  0.00  0.00    +0.120 A 
ATOM     13  C   UNL     1       1.505   3.298  26.934  0.00  0.00    +0.137 A 
ATOM     14  N   UNL     1       0.459   3.584  27.762  0.00  0.00    -0.242 N 
ATOM     15  N   UNL     1      -0.410   4.424  27.170  0.00  0.00    -0.065 NA
BRANCH  14  16
ATOM     16  C   UNL     1       0.154   3.023  29.062  0.00  0.00    +0.241 C 
BRANCH  16  17
ATOM     17  C   UNL     1       1.118   3.501  30.117  0.00  0.00    +0.241 C 
ATOM     18  O   UNL     1       1.026   4.644  30.563  0.00  0.00    -0.273 OA
ATOM     19  N   UNL     1       2.103   2.594  30.445  0.00  0.00    -0.253 N 
ATOM     20  H   UNL     1       2.259   1.753  29.912  0.00  0.00    +0.158 HD
ATOM     21  C   UNL     1       3.078   2.824  31.410  0.00  0.00    +0.221 A 
ATOM     22  N   UNL     1       4.114   1.972  31.394  0.00  0.00    -0.223 NA
ATOM     23  C   UNL     1       5.106   2.226  32.274  0.00  0.00    +0.116 A 
ATOM     24  C   UNL     1       5.084   3.265  33.173  0.00  0.00    +0.039 A 
ATOM     25  C   UNL     1       3.959   4.045  33.136  0.00  0.00    +0.116 A 
ATOM     26  N   UNL     1       2.956   3.841  32.268  0.00  0.00    -0.223 NA
ENDBRANCH  16  17
ENDBRANCH  14  16
ENDBRANCH  10  12
ENDBRANCH   9  10
ENDBRANCH   5   9
ENDBRANCH   4   7
ENDBRANCH   1   4
BRANCH   1  27
ATOM     27  C   UNL     1      -0.257   2.311  20.920  0.00  0.00    +0.175 C 
BRANCH  27  28
ATOM     28  C   UNL     1      -0.358   1.891  22.394  0.00  0.00    +0.176 C 
ATOM     29  O   UNL     1      -0.347   0.438  22.448  0.00  0.00    -0.332 OA
ATOM     30  C   UNL     1      -0.330  -0.147  23.792  0.00  0.00    +0.277 C 
ATOM     31  C   UNL     1      -1.509   0.400  24.634  0.00  0.00    +0.110 C 
ATOM     32  C   UNL     1      -1.580   1.940  24.583  0.00  0.00    +0.143 C 
ATOM     33  C   UNL     1      -1.589   2.441  23.138  0.00  0.00    +0.133 C 
BRANCH  33  34
ATOM     34  N   UNL     1      -1.570   3.912  23.102  0.00  0.00    -0.308 N 
ATOM     35  H   UNL     1      -0.754   4.381  23.469  0.00  0.00    +0.149 HD
ATOM     36  C   UNL     1      -2.559   4.666  22.616  0.00  0.00    +0.210 C 
ATOM     37  C   UNL     1      -3.799   3.921  22.089  0.00  0.00    +0.109 C 
ATOM     38  O   UNL     1      -2.509   5.896  22.586  0.00  0.00    -0.276 OA
ENDBRANCH  33  34
BRANCH  30  39
ATOM     39  C   UNL     1       1.001   0.163  24.506  0.00  0.00    +0.414 C 
ATOM     40  O   UNL     1       1.992   0.495  23.856  0.00  0.00    -0.240 OA
ATOM     41  O   UNL     1       1.086   0.082  25.732  0.00  0.00    -0.240 OA
ENDBRANCH  30  39
BRANCH  30  42
ATOM     42  O   UNL     1      -0.490  -1.583  23.658  0.00  0.00    -0.343 OA
ATOM     43  C   UNL     1      -0.136  -2.120  22.359  0.00  0.00    +0.198 C 
ENDBRANCH  30  42
BRANCH  32  44
ATOM     44  O   UNL     1      -2.763   2.390  25.244  0.00  0.00    -0.390 OA
ATOM     45  H   UNL     1      -2.721   2.153  26.174  0.00  0.00    +0.210 HD
ENDBRANCH  32  44
ENDBRANCH  27  28
BRANCH  27  46
ATOM     46  O   UNL     1      -1.049   1.430  20.098  0.00  0.00    -0.387 OA
ATOM     47  H   UNL     1      -0.662   1.377  19.221  0.00  0.00    +0.210 HD
ENDBRANCH  27  46
ENDBRANCH   1  27
TORSDOF 15
