REMARK VINA RESULT:    -5.984     18.574     23.831
REMARK INTER + INTRA:         -15.414
REMARK INTER:                 -11.302
REMARK INTRA:                  -4.111
REMARK UNBOUND:                -3.133
REMARK  Name = lig_assembled_90.pdb
REMARK  22 active torsions:
REMARK  status: ('A' for Active; 'I' for Inactive)
REMARK    1  A    between atoms: _2  and  _13
REMARK    2  A    between atoms: _3  and  _15
REMARK    3  A    between atoms: _4  and  _17
REMARK    4  A    between atoms: _8  and  _28
REMARK    5  A    between atoms: _10  and  _11
REMARK    6  A    between atoms: _10  and  _28
REMARK    7  A    between atoms: _13  and  _14
REMARK    8  A    between atoms: _15  and  _16
REMARK    9  A    between atoms: _16  and  _17
REMARK   10  A    between atoms: _16  and  _22
REMARK   11  A    between atoms: _24  and  _44
REMARK   12  A    between atoms: _26  and  _32
REMARK   13  A    between atoms: _27  and  _31
REMARK   14  A    between atoms: _31  and  _32
REMARK   15  A    between atoms: _34  and  _35
REMARK   16  A    between atoms: _36  and  _37
REMARK   17  A    between atoms: _38  and  _40
REMARK   18  A    between atoms: _40  and  _41
REMARK   19  A    between atoms: _40  and  _42
REMARK   20  A    between atoms: _42  and  _43
REMARK   21  A    between atoms: _42  and  _44
REMARK   22  A    between atoms: _45  and  _47
REMARK                            x       y       z     vdW  Elec       q    Type
REMARK                         _______ _______ _______ _____ _____    ______ ____
ROOT
ATOM      1  C   UNL     1      11.020  24.223  26.258  0.00  0.00    +0.401 C 
ATOM      2  O   UNL     1      10.358  24.525  27.254  0.00  0.00    -0.226 OA
ATOM      3  N   UNL     1      10.523  23.584  25.198  0.00  0.00    -0.279 N 
ATOM      4  H   UNL     1      11.142  23.389  24.425  0.00  0.00    +0.152 HD
ENDROOT
BRANCH   3   5
ATOM      5  C   UNL     1       9.125  23.148  25.092  0.00  0.00    +0.141 C 
BRANCH   5   6
ATOM      6  C   UNL     1       8.372  23.909  24.005  0.00  0.00    +0.163 C 
BRANCH   6   7
ATOM      7  O   UNL     1       7.794  22.985  23.069  0.00  0.00    -0.388 OA
ATOM      8  H   UNL     1       7.126  23.435  22.546  0.00  0.00    +0.210 HD
ENDBRANCH   6   7
BRANCH   6   9
ATOM      9  C   UNL     1       7.288  24.789  24.651  0.00  0.00    +0.175 C 
BRANCH   9  10
ATOM     10  C   UNL     1       6.821  25.911  23.713  0.00  0.00    +0.176 C 
ATOM     11  O   UNL     1       6.056  25.304  22.635  0.00  0.00    -0.332 OA
ATOM     12  C   UNL     1       5.436  26.240  21.692  0.00  0.00    +0.277 C 
ATOM     13  C   UNL     1       6.499  27.199  21.104  0.00  0.00    +0.110 C 
ATOM     14  C   UNL     1       7.359  27.845  22.210  0.00  0.00    +0.143 C 
ATOM     15  C   UNL     1       7.953  26.781  23.135  0.00  0.00    +0.133 C 
BRANCH  15  16
ATOM     16  N   UNL     1       8.698  27.413  24.236  0.00  0.00    -0.308 N 
ATOM     17  H   UNL     1       8.172  27.938  24.921  0.00  0.00    +0.149 HD
ATOM     18  C   UNL     1      10.022  27.338  24.388  0.00  0.00    +0.210 C 
ATOM     19  C   UNL     1      10.797  26.554  23.313  0.00  0.00    +0.109 C 
ATOM     20  O   UNL     1      10.618  27.865  25.328  0.00  0.00    -0.276 OA
ENDBRANCH  15  16
BRANCH  12  21
ATOM     21  C   UNL     1       4.329  27.061  22.385  0.00  0.00    +0.414 C 
ATOM     22  O   UNL     1       3.517  26.507  23.126  0.00  0.00    -0.240 OA
ATOM     23  O   UNL     1       4.247  28.277  22.205  0.00  0.00    -0.240 OA
ENDBRANCH  12  21
BRANCH  14  24
ATOM     24  O   UNL     1       8.418  28.599  21.620  0.00  0.00    -0.390 OA
ATOM     25  H   UNL     1       8.940  28.028  21.051  0.00  0.00    +0.210 HD
ENDBRANCH  14  24
BRANCH  12  26
ATOM     26  O   UNL     1       4.864  25.469  20.605  0.00  0.00    -0.343 OA
ATOM     27  C   UNL     1       4.753  26.176  19.344  0.00  0.00    +0.198 C 
ENDBRANCH  12  26
ENDBRANCH   9  10
BRANCH   9  28
ATOM     28  O   UNL     1       7.772  25.346  25.889  0.00  0.00    -0.387 OA
ATOM     29  H   UNL     1       8.602  24.925  26.126  0.00  0.00    +0.210 HD
ENDBRANCH   9  28
ENDBRANCH   6   9
ENDBRANCH   5   6
ENDBRANCH   3   5
BRANCH   1  30
ATOM     30  O   UNL     1      12.406  24.573  26.212  0.00  0.00    -0.444 OA
BRANCH  30  31
ATOM     31  C   UNL     1      13.187  23.499  26.742  0.00  0.00    +0.292 C 
BRANCH  31  33
ATOM     32  N   UNL     1      14.202  21.759  25.294  0.00  0.00    -0.131 NA
ATOM     33  C   UNL     1      14.186  23.051  25.752  0.00  0.00    +0.120 A 
ATOM     34  C   UNL     1      15.203  23.754  25.146  0.00  0.00    +0.137 A 
ATOM     35  N   UNL     1      15.786  22.843  24.317  0.00  0.00    -0.242 N 
ATOM     36  N   UNL     1      15.194  21.640  24.422  0.00  0.00    -0.065 NA
BRANCH  35  37
ATOM     37  C   UNL     1      16.956  23.008  23.489  0.00  0.00    +0.240 C 
BRANCH  37  38
ATOM     38  C   UNL     1      16.877  22.149  22.248  0.00  0.00    +0.235 C 
ATOM     39  O   UNL     1      17.754  21.342  21.944  0.00  0.00    -0.274 OA
ATOM     40  N   UNL     1      15.721  22.293  21.504  0.00  0.00    -0.311 N 
ATOM     41  H   UNL     1      15.167  23.137  21.624  0.00  0.00    +0.149 HD
BRANCH  40  42
ATOM     42  C   UNL     1      15.562  21.584  20.242  0.00  0.00    +0.137 C 
BRANCH  42  43
ATOM     43  C   UNL     1      14.692  22.384  19.261  0.00  0.00    +0.151 C 
BRANCH  43  44
ATOM     44  O   UNL     1      13.321  22.023  19.466  0.00  0.00    -0.388 OA
ATOM     45  H   UNL     1      13.167  21.135  19.085  0.00  0.00    +0.210 HD
ENDBRANCH  43  44
BRANCH  43  46
ATOM     46  C   UNL     1      14.901  23.895  19.420  0.00  0.00    +0.162 C 
BRANCH  46  47
ATOM     47  N   UNL     1      14.101  24.669  18.481  0.00  0.00    -0.269 N 
ATOM     48  C   UNL     1      14.478  24.886  17.174  0.00  0.00    +0.113 A 
ATOM     49  C   UNL     1      13.501  25.685  16.631  0.00  0.00    +0.137 A 
ATOM     50  N   UNL     1      12.536  25.970  17.563  0.00  0.00    -0.172 NA
ATOM     51  C   UNL     1      12.915  25.337  18.662  0.00  0.00    +0.450 A 
ATOM     52  N   UNL     1      12.145  25.383  19.882  0.00  0.00    +0.120 N 
ATOM     53  O   UNL     1      12.520  24.674  20.825  0.00  0.00    +0.045 OA
ATOM     54  O   UNL     1      11.165  26.139  19.906  0.00  0.00    -0.573 OA
ENDBRANCH  46  47
ENDBRANCH  43  46
ENDBRANCH  42  43
ENDBRANCH  40  42
ENDBRANCH  37  38
ENDBRANCH  35  37
ENDBRANCH  31  33
ENDBRANCH  30  31
ENDBRANCH   1  30
TORSDOF 20
