REMARK VINA RESULT:    -5.768      2.048      2.893
REMARK INTER + INTRA:         -13.152
REMARK INTER:                 -11.393
REMARK INTRA:                  -1.759
REMARK UNBOUND:                -2.326
REMARK  Name = lig_assembled_32.pdb
REMARK  19 active torsions:
REMARK  status: ('A' for Active; 'I' for Inactive)
REMARK    1  A    between atoms: _2  and  _9
REMARK    2  A    between atoms: _4  and  _17
REMARK    3  A    between atoms: _5  and  _10
REMARK    4  A    between atoms: _5  and  _11
REMARK    5  A    between atoms: _6  and  _7
REMARK    6  A    between atoms: _6  and  _17
REMARK    7  A    between atoms: _9  and  _10
REMARK    8  A    between atoms: _13  and  _33
REMARK    9  A    between atoms: _15  and  _21
REMARK   10  A    between atoms: _16  and  _20
REMARK   11  A    between atoms: _20  and  _21
REMARK   12  A    between atoms: _23  and  _24
REMARK   13  A    between atoms: _25  and  _26
REMARK   14  A    between atoms: _27  and  _29
REMARK   15  A    between atoms: _29  and  _30
REMARK   16  A    between atoms: _29  and  _31
REMARK   17  A    between atoms: _31  and  _32
REMARK   18  A    between atoms: _31  and  _33
REMARK   19  A    between atoms: _34  and  _36
REMARK                            x       y       z     vdW  Elec       q    Type
REMARK                         _______ _______ _______ _____ _____    ______ ____
ROOT
ATOM      1  C   UNL     1       9.827   2.971  34.905  0.00  0.00    +0.163 C 
ENDROOT
BRANCH   1   2
ATOM      2  O   UNL     1       9.555   2.201  33.722  0.00  0.00    -0.388 OA
ATOM      3  H   UNL     1       9.812   2.705  32.946  0.00  0.00    +0.210 HD
ENDBRANCH   1   2
BRANCH   1   4
ATOM      4  C   UNL     1       8.559   3.129  35.762  0.00  0.00    +0.175 C 
BRANCH   4   5
ATOM      5  C   UNL     1       7.758   4.383  35.383  0.00  0.00    +0.176 C 
ATOM      6  O   UNL     1       7.491   5.129  36.602  0.00  0.00    -0.332 OA
ATOM      7  C   UNL     1       6.822   6.421  36.422  0.00  0.00    +0.277 C 
ATOM      8  C   UNL     1       5.510   6.242  35.619  0.00  0.00    +0.110 C 
ATOM      9  C   UNL     1       5.737   5.428  34.329  0.00  0.00    +0.143 C 
ATOM     10  C   UNL     1       6.442   4.105  34.632  0.00  0.00    +0.133 C 
BRANCH  10  11
ATOM     11  N   UNL     1       6.731   3.378  33.386  0.00  0.00    -0.308 N 
ATOM     12  H   UNL     1       7.355   3.812  32.721  0.00  0.00    +0.149 HD
ATOM     13  C   UNL     1       6.223   2.182  33.078  0.00  0.00    +0.210 C 
ATOM     14  C   UNL     1       5.255   1.559  34.101  0.00  0.00    +0.109 C 
ATOM     15  O   UNL     1       6.495   1.589  32.033  0.00  0.00    -0.276 OA
ENDBRANCH  10  11
BRANCH   7  16
ATOM     16  C   UNL     1       7.744   7.417  35.688  0.00  0.00    +0.414 C 
ATOM     17  O   UNL     1       8.940   7.478  35.969  0.00  0.00    -0.240 OA
ATOM     18  O   UNL     1       7.292   8.158  34.815  0.00  0.00    -0.240 OA
ENDBRANCH   7  16
BRANCH   7  19
ATOM     19  O   UNL     1       6.488   6.940  37.735  0.00  0.00    -0.343 OA
ATOM     20  C   UNL     1       5.431   6.228  38.425  0.00  0.00    +0.198 C 
ENDBRANCH   7  19
BRANCH   9  21
ATOM     21  O   UNL     1       4.483   5.159  33.701  0.00  0.00    -0.390 OA
ATOM     22  H   UNL     1       4.261   5.879  33.107  0.00  0.00    +0.210 HD
ENDBRANCH   9  21
ENDBRANCH   4   5
BRANCH   4  23
ATOM     23  O   UNL     1       8.906   3.165  37.160  0.00  0.00    -0.387 OA
ATOM     24  H   UNL     1       8.592   3.985  37.547  0.00  0.00    +0.210 HD
ENDBRANCH   4  23
ENDBRANCH   1   4
BRANCH   1  25
ATOM     25  C   UNL     1      10.917   2.294  35.729  0.00  0.00    +0.141 C 
BRANCH  25  28
ATOM     26  C   UNL     1      12.970   3.644  35.463  0.00  0.00    +0.401 C 
ATOM     27  O   UNL     1      13.205   3.234  34.324  0.00  0.00    -0.226 OA
ATOM     28  N   UNL     1      11.926   3.253  36.196  0.00  0.00    -0.279 N 
ATOM     29  H   UNL     1      11.823   3.638  37.124  0.00  0.00    +0.152 HD
BRANCH  26  30
ATOM     30  O   UNL     1      13.859   4.593  36.057  0.00  0.00    -0.444 OA
BRANCH  30  31
ATOM     31  C   UNL     1      15.093   4.609  35.334  0.00  0.00    +0.292 C 
BRANCH  31  33
ATOM     32  N   UNL     1      15.148   6.196  33.436  0.00  0.00    -0.131 NA
ATOM     33  C   UNL     1      15.340   5.949  34.771  0.00  0.00    +0.120 A 
ATOM     34  C   UNL     1      15.770   7.105  35.385  0.00  0.00    +0.137 A 
ATOM     35  N   UNL     1      15.830   8.010  34.371  0.00  0.00    -0.251 N 
ATOM     36  N   UNL     1      15.455   7.464  33.202  0.00  0.00    -0.065 NA
BRANCH  35  37
ATOM     37  C   UNL     1      16.225   9.399  34.432  0.00  0.00    +0.156 C 
BRANCH  37  38
ATOM     38  C   UNL     1      15.507  10.243  33.388  0.00  0.00    +0.143 C 
BRANCH  38  39
ATOM     39  C   UNL     1      16.461  11.223  32.769  0.00  0.00    +0.306 C 
ATOM     40  O   UNL     1      17.119  12.043  33.389  0.00  0.00    -0.251 OA
BRANCH  39  41
ATOM     41  O   UNL     1      16.514  11.120  31.422  0.00  0.00    -0.481 OA
ATOM     42  H   UNL     1      15.914  11.730  30.949  0.00  0.00    +0.295 HD
ENDBRANCH  39  41
ENDBRANCH  38  39
ENDBRANCH  37  38
ENDBRANCH  35  37
ENDBRANCH  31  33
ENDBRANCH  30  31
ENDBRANCH  26  30
ENDBRANCH  25  28
ENDBRANCH   1  25
TORSDOF 17
