REMARK VINA RESULT:    -6.007     13.686     17.435
REMARK INTER + INTRA:         -14.242
REMARK INTER:                 -10.623
REMARK INTRA:                  -3.619
REMARK UNBOUND:                -2.615
REMARK  Name = lig_assembled_83.pdb
REMARK  20 active torsions:
REMARK  status: ('A' for Active; 'I' for Inactive)
REMARK    1  A    between atoms: _2  and  _12
REMARK    2  A    between atoms: _3  and  _14
REMARK    3  A    between atoms: _7  and  _24
REMARK    4  A    between atoms: _9  and  _10
REMARK    5  A    between atoms: _9  and  _24
REMARK    6  A    between atoms: _12  and  _13
REMARK    7  A    between atoms: _13  and  _14
REMARK    8  A    between atoms: _13  and  _18
REMARK    9  A    between atoms: _20  and  _40
REMARK   10  A    between atoms: _22  and  _28
REMARK   11  A    between atoms: _23  and  _27
REMARK   12  A    between atoms: _27  and  _28
REMARK   13  A    between atoms: _30  and  _31
REMARK   14  A    between atoms: _32  and  _33
REMARK   15  A    between atoms: _34  and  _36
REMARK   16  A    between atoms: _36  and  _37
REMARK   17  A    between atoms: _36  and  _38
REMARK   18  A    between atoms: _38  and  _39
REMARK   19  A    between atoms: _38  and  _40
REMARK   20  A    between atoms: _41  and  _43
REMARK                            x       y       z     vdW  Elec       q    Type
REMARK                         _______ _______ _______ _____ _____    ______ ____
ROOT
ATOM      1  C   UNL     1       8.018   1.168  33.198  0.00  0.00    +0.141 C 
ENDROOT
BRANCH   1   4
ATOM      2  C   UNL     1       7.089  -0.812  32.048  0.00  0.00    +0.401 C 
ATOM      3  O   UNL     1       8.193  -1.302  31.798  0.00  0.00    -0.226 OA
ATOM      4  N   UNL     1       6.915   0.342  32.693  0.00  0.00    -0.279 N 
ATOM      5  H   UNL     1       5.970   0.667  32.842  0.00  0.00    +0.152 HD
BRANCH   2   6
ATOM      6  O   UNL     1       5.911  -1.504  31.627  0.00  0.00    -0.444 OA
BRANCH   6   7
ATOM      7  C   UNL     1       5.115  -0.639  30.812  0.00  0.00    +0.292 C 
BRANCH   7   9
ATOM      8  N   UNL     1       3.368  -0.968  32.546  0.00  0.00    -0.131 NA
ATOM      9  C   UNL     1       3.708  -0.666  31.252  0.00  0.00    +0.120 A 
ATOM     10  C   UNL     1       2.559  -0.420  30.534  0.00  0.00    +0.137 A 
ATOM     11  N   UNL     1       1.563  -0.572  31.448  0.00  0.00    -0.249 N 
ATOM     12  N   UNL     1       2.046  -0.914  32.654  0.00  0.00    -0.065 NA
BRANCH  11  13
ATOM     13  C   UNL     1       0.137  -0.447  31.234  0.00  0.00    +0.178 C 
BRANCH  13  14
ATOM     14  C   UNL     1      -0.426   0.828  31.867  0.00  0.00    +0.156 C 
BRANCH  14  15
ATOM     15  O   UNL     1       0.605   1.507  32.593  0.00  0.00    -0.388 OA
ATOM     16  H   UNL     1       1.414   1.561  32.045  0.00  0.00    +0.210 HD
ENDBRANCH  14  15
BRANCH  14  17
ATOM     17  C   UNL     1      -1.014   1.750  30.788  0.00  0.00    +0.162 C 
BRANCH  17  18
ATOM     18  N   UNL     1       0.003   2.289  29.899  0.00  0.00    -0.269 N 
ATOM     19  C   UNL     1       0.406   1.663  28.741  0.00  0.00    +0.113 A 
ATOM     20  C   UNL     1       1.346   2.496  28.179  0.00  0.00    +0.137 A 
ATOM     21  N   UNL     1       1.553   3.595  28.967  0.00  0.00    -0.172 NA
ATOM     22  C   UNL     1       0.731   3.452  29.990  0.00  0.00    +0.450 A 
ATOM     23  N   UNL     1       0.637   4.426  31.053  0.00  0.00    +0.120 N 
ATOM     24  O   UNL     1      -0.168   4.201  31.971  0.00  0.00    +0.045 OA
ATOM     25  O   UNL     1       1.375   5.416  30.987  0.00  0.00    -0.573 OA
ENDBRANCH  17  18
ENDBRANCH  14  17
ENDBRANCH  13  14
ENDBRANCH  11  13
ENDBRANCH   7   9
ENDBRANCH   6   7
ENDBRANCH   2   6
ENDBRANCH   1   4
BRANCH   1  26
ATOM     26  C   UNL     1       7.517   2.325  34.055  0.00  0.00    +0.163 C 
BRANCH  26  27
ATOM     27  O   UNL     1       8.274   2.398  35.274  0.00  0.00    -0.388 OA
ATOM     28  H   UNL     1       8.521   1.512  35.552  0.00  0.00    +0.210 HD
ENDBRANCH  26  27
BRANCH  26  29
ATOM     29  C   UNL     1       7.625   3.638  33.261  0.00  0.00    +0.175 C 
BRANCH  29  30
ATOM     30  C   UNL     1       6.891   4.795  33.954  0.00  0.00    +0.176 C 
ATOM     31  O   UNL     1       7.716   5.248  35.062  0.00  0.00    -0.332 OA
ATOM     32  C   UNL     1       7.221   6.426  35.781  0.00  0.00    +0.277 C 
ATOM     33  C   UNL     1       5.771   6.191  36.270  0.00  0.00    +0.110 C 
ATOM     34  C   UNL     1       4.863   5.678  35.132  0.00  0.00    +0.143 C 
ATOM     35  C   UNL     1       5.475   4.454  34.452  0.00  0.00    +0.133 C 
BRANCH  35  36
ATOM     36  N   UNL     1       4.644   4.027  33.315  0.00  0.00    -0.308 N 
ATOM     37  H   UNL     1       4.607   4.630  32.505  0.00  0.00    +0.149 HD
ATOM     38  C   UNL     1       3.935   2.895  33.284  0.00  0.00    +0.210 C 
ATOM     39  C   UNL     1       3.990   2.011  34.544  0.00  0.00    +0.109 C 
ATOM     40  O   UNL     1       3.259   2.556  32.312  0.00  0.00    -0.276 OA
ENDBRANCH  35  36
BRANCH  32  41
ATOM     41  C   UNL     1       7.265   7.676  34.878  0.00  0.00    +0.414 C 
ATOM     42  O   UNL     1       8.341   8.209  34.609  0.00  0.00    -0.240 OA
ATOM     43  O   UNL     1       6.226   8.152  34.419  0.00  0.00    -0.240 OA
ENDBRANCH  32  41
BRANCH  32  44
ATOM     44  O   UNL     1       8.067   6.632  36.942  0.00  0.00    -0.343 OA
ATOM     45  C   UNL     1       7.495   7.473  37.975  0.00  0.00    +0.198 C 
ENDBRANCH  32  44
BRANCH  34  46
ATOM     46  O   UNL     1       3.581   5.333  35.659  0.00  0.00    -0.390 OA
ATOM     47  H   UNL     1       2.903   5.530  35.007  0.00  0.00    +0.210 HD
ENDBRANCH  34  46
ENDBRANCH  29  30
BRANCH  29  48
ATOM     48  O   UNL     1       7.114   3.454  31.925  0.00  0.00    -0.387 OA
ATOM     49  H   UNL     1       7.138   4.291  31.455  0.00  0.00    +0.210 HD
ENDBRANCH  29  48
ENDBRANCH  26  29
ENDBRANCH   1  26
TORSDOF 18
