REMARK VINA RESULT:    -6.752      1.536      3.768
REMARK INTER + INTRA:         -13.533
REMARK INTER:                 -11.728
REMARK INTRA:                  -1.804
REMARK UNBOUND:                -1.847
REMARK  Name = lig_assembled_2.pdb
REMARK  16 active torsions:
REMARK  status: ('A' for Active; 'I' for Inactive)
REMARK    1  A    between atoms: _2  and  _9
REMARK    2  A    between atoms: _4  and  _18
REMARK    3  A    between atoms: _6  and  _7
REMARK    4  A    between atoms: _6  and  _18
REMARK    5  A    between atoms: _14  and  _34
REMARK    6  A    between atoms: _16  and  _22
REMARK    7  A    between atoms: _17  and  _21
REMARK    8  A    between atoms: _21  and  _22
REMARK    9  A    between atoms: _24  and  _25
REMARK   10  A    between atoms: _26  and  _27
REMARK   11  A    between atoms: _28  and  _30
REMARK   12  A    between atoms: _30  and  _31
REMARK   13  A    between atoms: _30  and  _32
REMARK   14  A    between atoms: _32  and  _33
REMARK   15  A    between atoms: _32  and  _34
REMARK   16  A    between atoms: _35  and  _37
REMARK                            x       y       z     vdW  Elec       q    Type
REMARK                         _______ _______ _______ _____ _____    ______ ____
ROOT
ATOM      1  C   UNL     1       3.110   2.827  33.119  0.00  0.00    +0.163 C 
ENDROOT
BRANCH   1   2
ATOM      2  O   UNL     1       3.738   2.070  32.071  0.00  0.00    -0.388 OA
ATOM      3  H   UNL     1       3.115   1.941  31.351  0.00  0.00    +0.210 HD
ENDBRANCH   1   2
BRANCH   1   4
ATOM      4  C   UNL     1       1.806   3.435  32.614  0.00  0.00    +0.141 C 
BRANCH   4   7
ATOM      5  C   UNL     1       1.156   3.421  30.230  0.00  0.00    +0.401 C 
ATOM      6  O   UNL     1       0.290   2.555  30.374  0.00  0.00    -0.226 OA
ATOM      7  N   UNL     1       1.916   3.888  31.222  0.00  0.00    -0.279 N 
ATOM      8  H   UNL     1       2.606   4.592  31.003  0.00  0.00    +0.152 HD
BRANCH   5   9
ATOM      9  O   UNL     1       1.379   3.971  28.929  0.00  0.00    -0.444 OA
BRANCH   9  10
ATOM     10  C   UNL     1       0.668   3.201  27.956  0.00  0.00    +0.292 C 
BRANCH  10  12
ATOM     11  N   UNL     1       2.495   3.958  26.470  0.00  0.00    -0.131 NA
ATOM     12  C   UNL     1       1.266   3.385  26.620  0.00  0.00    +0.121 A 
ATOM     13  C   UNL     1       0.773   3.046  25.381  0.00  0.00    +0.143 A 
ATOM     14  N   UNL     1       1.760   3.410  24.495  0.00  0.00    -0.220 N 
ATOM     15  N   UNL     1       2.785   3.976  25.176  0.00  0.00    -0.060 NA
BRANCH  14  16
ATOM     16  C   UNL     1       1.800   3.231  23.087  0.00  0.00    +0.067 A 
ATOM     17  C   UNL     1       1.780   4.332  22.219  0.00  0.00    +0.029 A 
ATOM     18  C   UNL     1       1.782   4.133  20.835  0.00  0.00    +0.022 A 
ATOM     19  C   UNL     1       1.805   2.840  20.315  0.00  0.00    +0.041 A 
ATOM     20 CL   UNL     1       1.783   2.605  18.612  0.00  0.00    -0.084 Cl
ATOM     21  C   UNL     1       1.839   1.740  21.168  0.00  0.00    +0.022 A 
ATOM     22  C   UNL     1       1.838   1.931  22.553  0.00  0.00    +0.029 A 
ENDBRANCH  14  16
ENDBRANCH  10  12
ENDBRANCH   9  10
ENDBRANCH   5   9
ENDBRANCH   4   7
ENDBRANCH   1   4
BRANCH   1  23
ATOM     23  C   UNL     1       4.039   3.946  33.621  0.00  0.00    +0.175 C 
BRANCH  23  24
ATOM     24  C   UNL     1       5.490   3.467  33.774  0.00  0.00    +0.176 C 
ATOM     25  O   UNL     1       5.461   2.107  34.286  0.00  0.00    -0.332 OA
ATOM     26  C   UNL     1       6.763   1.443  34.397  0.00  0.00    +0.277 C 
ATOM     27  C   UNL     1       7.737   2.300  35.243  0.00  0.00    +0.110 C 
ATOM     28  C   UNL     1       7.778   3.764  34.756  0.00  0.00    +0.143 C 
ATOM     29  C   UNL     1       6.370   4.355  34.674  0.00  0.00    +0.133 C 
BRANCH  29  30
ATOM     30  N   UNL     1       6.414   5.719  34.126  0.00  0.00    -0.308 N 
ATOM     31  H   UNL     1       6.607   5.826  33.140  0.00  0.00    +0.149 HD
ATOM     32  C   UNL     1       6.216   6.827  34.847  0.00  0.00    +0.210 C 
ATOM     33  C   UNL     1       5.950   6.632  36.352  0.00  0.00    +0.109 C 
ATOM     34  O   UNL     1       6.245   7.957  34.358  0.00  0.00    -0.276 OA
ENDBRANCH  29  30
BRANCH  26  35
ATOM     35  C   UNL     1       7.373   1.197  33.001  0.00  0.00    +0.414 C 
ATOM     36  O   UNL     1       8.594   1.209  32.847  0.00  0.00    -0.240 OA
ATOM     37  O   UNL     1       6.645   0.988  32.030  0.00  0.00    -0.240 OA
ENDBRANCH  26  35
BRANCH  28  38
ATOM     38  O   UNL     1       8.566   4.548  35.652  0.00  0.00    -0.390 OA
ATOM     39  H   UNL     1       9.349   4.865  35.197  0.00  0.00    +0.210 HD
ENDBRANCH  28  38
BRANCH  26  40
ATOM     40  O   UNL     1       6.565   0.175  35.073  0.00  0.00    -0.343 OA
ATOM     41  C   UNL     1       5.746   0.240  36.269  0.00  0.00    +0.198 C 
ENDBRANCH  26  40
ENDBRANCH  23  24
BRANCH  23  42
ATOM     42  O   UNL     1       3.554   4.469  34.873  0.00  0.00    -0.387 OA
ATOM     43  H   UNL     1       2.950   3.838  35.272  0.00  0.00    +0.210 HD
ENDBRANCH  23  42
ENDBRANCH   1  23
TORSDOF 14
