REMARK VINA RESULT:    -7.350      2.840      4.959
REMARK INTER + INTRA:         -17.269
REMARK INTER:                 -13.674
REMARK INTRA:                  -3.595
REMARK UNBOUND:                -3.474
REMARK  Name = lig_assembled_34.pdb
REMARK  19 active torsions:
REMARK  status: ('A' for Active; 'I' for Inactive)
REMARK    1  A    between atoms: _2  and  _9
REMARK    2  A    between atoms: _4  and  _37
REMARK    3  A    between atoms: _6  and  _7
REMARK    4  A    between atoms: _6  and  _37
REMARK    5  A    between atoms: _11  and  _12
REMARK    6  A    between atoms: _13  and  _14
REMARK    7  A    between atoms: _18  and  _31
REMARK    8  A    between atoms: _33  and  _53
REMARK    9  A    between atoms: _35  and  _41
REMARK   10  A    between atoms: _36  and  _40
REMARK   11  A    between atoms: _40  and  _41
REMARK   12  A    between atoms: _43  and  _44
REMARK   13  A    between atoms: _45  and  _46
REMARK   14  A    between atoms: _47  and  _49
REMARK   15  A    between atoms: _49  and  _50
REMARK   16  A    between atoms: _49  and  _51
REMARK   17  A    between atoms: _51  and  _52
REMARK   18  A    between atoms: _51  and  _53
REMARK   19  A    between atoms: _54  and  _56
REMARK                            x       y       z     vdW  Elec       q    Type
REMARK                         _______ _______ _______ _____ _____    ______ ____
ROOT
ATOM      1  N   UNL     1       0.542  22.596  16.840  0.00  0.00    -0.131 NA
ATOM      2  C   UNL     1      -0.037  21.624  16.073  0.00  0.00    +0.121 A 
ATOM      3  C   UNL     1      -0.886  20.886  16.859  0.00  0.00    +0.143 A 
ATOM      4  N   UNL     1      -0.824  21.459  18.111  0.00  0.00    -0.220 N 
ATOM      5  N   UNL     1       0.072  22.482  18.080  0.00  0.00    -0.060 NA
ENDROOT
BRANCH   4   6
ATOM      6  C   UNL     1      -1.577  21.120  19.267  0.00  0.00    +0.068 A 
ATOM      7  C   UNL     1      -1.164  20.056  20.074  0.00  0.00    +0.038 A 
ATOM      8  C   UNL     1      -1.932  19.581  21.166  0.00  0.00    +0.007 A 
ATOM      9  C   UNL     1      -3.124  20.259  21.495  0.00  0.00    -0.008 A 
ATOM     10  C   UNL     1      -3.510  21.367  20.702  0.00  0.00    +0.011 A 
ATOM     11  C   UNL     1      -2.759  21.786  19.590  0.00  0.00    +0.028 A 
BRANCH   9  12
ATOM     12  C   UNL     1      -4.068  19.844  22.583  0.00  0.00    +0.004 A 
ATOM     13  C   UNL     1      -5.039  18.907  22.390  0.00  0.00    +0.026 A 
ATOM     14  C   UNL     1      -5.281  18.272  21.089  0.00  0.00    +0.016 A 
ATOM     15  C   UNL     1      -6.356  17.498  20.875  0.00  0.00    +0.051 A 
ATOM     16  C   UNL     1      -7.322  17.229  21.967  0.00  0.00    +0.183 A 
ATOM     17  O   UNL     1      -8.343  16.575  21.767  0.00  0.00    -0.288 OA
ATOM     18  C   UNL     1      -6.974  17.711  23.318  0.00  0.00    +0.097 A 
ATOM     19  C   UNL     1      -5.886  18.466  23.514  0.00  0.00    +0.140 A 
ATOM     20  O   UNL     1      -5.527  18.775  24.818  0.00  0.00    -0.455 OA
ATOM     21  C   UNL     1      -4.580  19.743  25.023  0.00  0.00    +0.140 A 
ATOM     22  C   UNL     1      -4.321  20.083  26.352  0.00  0.00    +0.092 A 
ATOM     23  C   UNL     1      -3.416  21.095  26.631  0.00  0.00    +0.120 A 
ATOM     24  C   UNL     1      -2.831  21.822  25.599  0.00  0.00    +0.046 A 
ATOM     25  C   UNL     1      -3.091  21.462  24.273  0.00  0.00    +0.016 A 
ATOM     26  C   UNL     1      -3.922  20.373  23.969  0.00  0.00    +0.026 A 
BRANCH  23  27
ATOM     27  O   UNL     1      -3.112  21.348  27.935  0.00  0.00    -0.507 OA
ATOM     28  H   UNL     1      -3.919  21.675  28.366  0.00  0.00    +0.292 HD
ENDBRANCH  23  27
ENDBRANCH   9  12
BRANCH   8  29
ATOM     29  C   UNL     1      -1.435  18.321  21.845  0.00  0.00    +0.072 C 
ATOM     30  O   UNL     1      -2.015  17.239  21.510  0.00  0.00    -0.545 OA
ATOM     31  O   UNL     1      -0.546  18.431  22.741  0.00  0.00    -0.545 OA
ENDBRANCH   8  29
ENDBRANCH   4   6
BRANCH   2  32
ATOM     32  C   UNL     1       0.261  21.467  14.637  0.00  0.00    +0.292 C 
BRANCH  32  33
ATOM     33  O   UNL     1       1.296  22.367  14.232  0.00  0.00    -0.444 OA
BRANCH  33  34
ATOM     34  C   UNL     1       2.419  21.621  13.755  0.00  0.00    +0.401 C 
ATOM     35  O   UNL     1       3.410  22.227  13.342  0.00  0.00    -0.226 OA
ATOM     36  N   UNL     1       2.321  20.291  13.792  0.00  0.00    -0.279 N 
ATOM     37  H   UNL     1       1.471  19.886  14.158  0.00  0.00    +0.152 HD
BRANCH  36  38
ATOM     38  C   UNL     1       3.379  19.383  13.332  0.00  0.00    +0.141 C 
BRANCH  38  39
ATOM     39  C   UNL     1       2.954  18.595  12.097  0.00  0.00    +0.163 C 
BRANCH  39  40
ATOM     40  O   UNL     1       3.284  17.207  12.262  0.00  0.00    -0.388 OA
ATOM     41  H   UNL     1       2.552  16.665  11.960  0.00  0.00    +0.210 HD
ENDBRANCH  39  40
BRANCH  39  42
ATOM     42  C   UNL     1       1.444  18.778  11.865  0.00  0.00    +0.175 C 
BRANCH  42  43
ATOM     43  C   UNL     1       0.764  17.471  11.433  0.00  0.00    +0.176 C 
ATOM     44  O   UNL     1       1.278  17.111  10.121  0.00  0.00    -0.332 OA
ATOM     45  C   UNL     1       0.816  15.825   9.590  0.00  0.00    +0.277 C 
ATOM     46  C   UNL     1      -0.731  15.768   9.579  0.00  0.00    +0.110 C 
ATOM     47  C   UNL     1      -1.325  16.174  10.945  0.00  0.00    +0.143 C 
ATOM     48  C   UNL     1      -0.775  17.525  11.403  0.00  0.00    +0.133 C 
BRANCH  48  49
ATOM     49  N   UNL     1      -1.281  17.859  12.743  0.00  0.00    -0.308 N 
ATOM     50  H   UNL     1      -1.057  17.231  13.503  0.00  0.00    +0.149 HD
ATOM     51  C   UNL     1      -2.018  18.938  13.022  0.00  0.00    +0.210 C 
ATOM     52  C   UNL     1      -2.364  19.861  11.839  0.00  0.00    +0.109 C 
ATOM     53  O   UNL     1      -2.415  19.201  14.158  0.00  0.00    -0.276 OA
ENDBRANCH  48  49
BRANCH  45  54
ATOM     54  C   UNL     1       1.369  14.655  10.431  0.00  0.00    +0.414 C 
ATOM     55  O   UNL     1       0.622  13.752  10.804  0.00  0.00    -0.240 OA
ATOM     56  O   UNL     1       2.562  14.616  10.737  0.00  0.00    -0.240 OA
ENDBRANCH  45  54
BRANCH  47  57
ATOM     57  O   UNL     1      -2.748  16.254  10.846  0.00  0.00    -0.390 OA
ATOM     58  H   UNL     1      -2.987  16.892  10.170  0.00  0.00    +0.210 HD
ENDBRANCH  47  57
BRANCH  45  59
ATOM     59  O   UNL     1       1.288  15.708   8.223  0.00  0.00    -0.343 OA
ATOM     60  C   UNL     1       0.522  14.805   7.386  0.00  0.00    +0.198 C 
ENDBRANCH  45  59
ENDBRANCH  42  43
BRANCH  42  61
ATOM     61  O   UNL     1       1.214  19.806  10.881  0.00  0.00    -0.387 OA
ATOM     62  H   UNL     1       1.996  19.907  10.333  0.00  0.00    +0.210 HD
ENDBRANCH  42  61
ENDBRANCH  39  42
ENDBRANCH  38  39
ENDBRANCH  36  38
ENDBRANCH  33  34
ENDBRANCH  32  33
ENDBRANCH   2  32
TORSDOF 17
