REMARK VINA RESULT:    -6.018     14.253     18.389
REMARK INTER + INTRA:         -14.224
REMARK INTER:                 -12.319
REMARK INTRA:                  -1.905
REMARK UNBOUND:                -2.754
REMARK  Name = lig_assembled_12.pdb
REMARK  19 active torsions:
REMARK  status: ('A' for Active; 'I' for Inactive)
REMARK    1  A    between atoms: _2  and  _9
REMARK    2  A    between atoms: _4  and  _21
REMARK    3  A    between atoms: _6  and  _7
REMARK    4  A    between atoms: _6  and  _21
REMARK    5  A    between atoms: _9  and  _16
REMARK    6  A    between atoms: _10  and  _11
REMARK    7  A    between atoms: _10  and  _16
REMARK    8  A    between atoms: _17  and  _37
REMARK    9  A    between atoms: _19  and  _25
REMARK   10  A    between atoms: _20  and  _24
REMARK   11  A    between atoms: _24  and  _25
REMARK   12  A    between atoms: _27  and  _28
REMARK   13  A    between atoms: _29  and  _30
REMARK   14  A    between atoms: _31  and  _33
REMARK   15  A    between atoms: _33  and  _34
REMARK   16  A    between atoms: _33  and  _35
REMARK   17  A    between atoms: _35  and  _36
REMARK   18  A    between atoms: _35  and  _37
REMARK   19  A    between atoms: _38  and  _40
REMARK                            x       y       z     vdW  Elec       q    Type
REMARK                         _______ _______ _______ _____ _____    ______ ____
ROOT
ATOM      1  C   UNL     1      17.121   1.748  26.216  0.00  0.00    +0.163 C 
ENDROOT
BRANCH   1   2
ATOM      2  O   UNL     1      16.233   2.665  26.875  0.00  0.00    -0.388 OA
ATOM      3  H   UNL     1      16.711   3.138  27.561  0.00  0.00    +0.210 HD
ENDBRANCH   1   2
BRANCH   1   4
ATOM      4  C   UNL     1      16.632   1.438  24.790  0.00  0.00    +0.175 C 
BRANCH   4   5
ATOM      5  C   UNL     1      17.691   0.693  23.965  0.00  0.00    +0.176 C 
ATOM      6  O   UNL     1      17.779   1.336  22.664  0.00  0.00    -0.332 OA
ATOM      7  C   UNL     1      18.822   0.821  21.772  0.00  0.00    +0.277 C 
ATOM      8  C   UNL     1      18.672  -0.710  21.590  0.00  0.00    +0.110 C 
ATOM      9  C   UNL     1      18.543  -1.434  22.947  0.00  0.00    +0.143 C 
ATOM     10  C   UNL     1      17.431  -0.816  23.795  0.00  0.00    +0.133 C 
BRANCH  10  11
ATOM     11  N   UNL     1      17.376  -1.457  25.118  0.00  0.00    -0.308 N 
ATOM     12  H   UNL     1      18.112  -1.244  25.777  0.00  0.00    +0.149 HD
ATOM     13  C   UNL     1      16.417  -2.302  25.506  0.00  0.00    +0.210 C 
ATOM     14  C   UNL     1      15.324  -2.627  24.470  0.00  0.00    +0.109 C 
ATOM     15  O   UNL     1      16.388  -2.813  26.626  0.00  0.00    -0.276 OA
ENDBRANCH  10  11
BRANCH   7  16
ATOM     16  C   UNL     1      20.225   1.138  22.329  0.00  0.00    +0.414 C 
ATOM     17  O   UNL     1      21.088   0.263  22.372  0.00  0.00    -0.240 OA
ATOM     18  O   UNL     1      20.494   2.270  22.736  0.00  0.00    -0.240 OA
ENDBRANCH   7  16
BRANCH   9  19
ATOM     19  O   UNL     1      18.255  -2.816  22.729  0.00  0.00    -0.390 OA
ATOM     20  H   UNL     1      19.059  -3.331  22.835  0.00  0.00    +0.210 HD
ENDBRANCH   9  19
BRANCH   7  21
ATOM     21  O   UNL     1      18.657   1.453  20.476  0.00  0.00    -0.343 OA
ATOM     22  C   UNL     1      17.291   1.800  20.134  0.00  0.00    +0.198 C 
ENDBRANCH   7  21
ENDBRANCH   4   5
BRANCH   4  23
ATOM     23  O   UNL     1      16.248   2.656  24.121  0.00  0.00    -0.387 OA
ATOM     24  H   UNL     1      15.650   3.155  24.682  0.00  0.00    +0.210 HD
ENDBRANCH   4  23
ENDBRANCH   1   4
BRANCH   1  25
ATOM     25  C   UNL     1      18.527   2.336  26.156  0.00  0.00    +0.141 C 
BRANCH  25  28
ATOM     26  C   UNL     1      18.669   4.681  25.390  0.00  0.00    +0.401 C 
ATOM     27  O   UNL     1      18.834   4.382  24.205  0.00  0.00    -0.226 OA
ATOM     28  N   UNL     1      18.523   3.788  26.370  0.00  0.00    -0.279 N 
ATOM     29  H   UNL     1      18.403   4.130  27.313  0.00  0.00    +0.152 HD
BRANCH  26  30
ATOM     30  O   UNL     1      18.633   6.061  25.760  0.00  0.00    -0.444 OA
BRANCH  30  31
ATOM     31  C   UNL     1      19.064   6.204  27.117  0.00  0.00    +0.292 C 
BRANCH  31  33
ATOM     32  N   UNL     1      18.878   8.618  26.586  0.00  0.00    -0.131 NA
ATOM     33  C   UNL     1      19.060   7.624  27.512  0.00  0.00    +0.120 A 
ATOM     34  C   UNL     1      19.223   8.191  28.754  0.00  0.00    +0.139 A 
ATOM     35  N   UNL     1      19.159   9.533  28.516  0.00  0.00    -0.226 N 
ATOM     36  N   UNL     1      18.928   9.786  27.214  0.00  0.00    -0.063 NA
BRANCH  35  37
ATOM     37  C   UNL     1      19.256  10.627  29.466  0.00  0.00    +0.305 C 
BRANCH  37  38
ATOM     38  O   UNL     1      19.263  10.099  30.790  0.00  0.00    -0.353 OA
BRANCH  38  39
ATOM     39  C   UNL     1      18.539  10.927  31.691  0.00  0.00    +0.197 C 
BRANCH  39  40
ATOM     40  C   UNL     1      17.418  10.103  32.262  0.00  0.00    -0.022 A 
ATOM     41  C   UNL     1      17.393   8.713  32.084  0.00  0.00    +0.006 A 
ATOM     42  C   UNL     1      16.333   7.953  32.581  0.00  0.00    +0.000 A 
ATOM     43  C   UNL     1      15.283   8.577  33.252  0.00  0.00    +0.000 A 
ATOM     44  C   UNL     1      15.290   9.959  33.426  0.00  0.00    +0.000 A 
ATOM     45  C   UNL     1      16.350  10.720  32.930  0.00  0.00    +0.006 A 
ENDBRANCH  39  40
ENDBRANCH  38  39
ENDBRANCH  37  38
ENDBRANCH  35  37
ENDBRANCH  31  33
ENDBRANCH  30  31
ENDBRANCH  26  30
ENDBRANCH  25  28
ENDBRANCH   1  25
TORSDOF 17
