REMARK VINA RESULT:    -6.408     12.025     19.936
REMARK INTER + INTRA:         -13.005
REMARK INTER:                 -10.865
REMARK INTRA:                  -2.140
REMARK UNBOUND:                -1.914
REMARK  Name = lig_assembled_56.pdb
REMARK  16 active torsions:
REMARK  status: ('A' for Active; 'I' for Inactive)
REMARK    1  A    between atoms: _2  and  _10
REMARK    2  A    between atoms: _5  and  _18
REMARK    3  A    between atoms: _7  and  _8
REMARK    4  A    between atoms: _7  and  _18
REMARK    5  A    between atoms: _14  and  _34
REMARK    6  A    between atoms: _16  and  _22
REMARK    7  A    between atoms: _17  and  _21
REMARK    8  A    between atoms: _21  and  _22
REMARK    9  A    between atoms: _24  and  _25
REMARK   10  A    between atoms: _26  and  _27
REMARK   11  A    between atoms: _28  and  _30
REMARK   12  A    between atoms: _30  and  _31
REMARK   13  A    between atoms: _30  and  _32
REMARK   14  A    between atoms: _32  and  _33
REMARK   15  A    between atoms: _32  and  _34
REMARK   16  A    between atoms: _35  and  _37
REMARK                            x       y       z     vdW  Elec       q    Type
REMARK                         _______ _______ _______ _____ _____    ______ ____
ROOT
ATOM      1  C   UNL     1       4.165   3.723  32.639  0.00  0.00    +0.163 C 
ENDROOT
BRANCH   1   2
ATOM      2  O   UNL     1       3.219   4.035  33.675  0.00  0.00    -0.388 OA
ATOM      3  H   UNL     1       3.498   4.830  34.136  0.00  0.00    +0.210 HD
ENDBRANCH   1   2
BRANCH   1   4
ATOM      4  C   UNL     1       3.561   2.713  31.668  0.00  0.00    +0.141 C 
BRANCH   4   7
ATOM      5  C   UNL     1       1.282   3.482  31.104  0.00  0.00    +0.401 C 
ATOM      6  O   UNL     1       0.790   3.108  32.172  0.00  0.00    -0.226 OA
ATOM      7  N   UNL     1       2.567   3.332  30.783  0.00  0.00    -0.279 N 
ATOM      8  H   UNL     1       2.875   3.662  29.879  0.00  0.00    +0.152 HD
BRANCH   5   9
ATOM      9  O   UNL     1       0.441   4.113  30.136  0.00  0.00    -0.444 OA
BRANCH   9  10
ATOM     10  C   UNL     1       0.067   3.162  29.135  0.00  0.00    +0.292 C 
BRANCH  10  12
ATOM     11  N   UNL     1       1.887   3.641  27.530  0.00  0.00    -0.131 NA
ATOM     12  C   UNL     1       0.553   3.593  27.811  0.00  0.00    +0.121 A 
ATOM     13  C   UNL     1      -0.155   3.990  26.699  0.00  0.00    +0.143 A 
ATOM     14  N   UNL     1       0.801   4.256  25.746  0.00  0.00    -0.220 N 
ATOM     15  N   UNL     1       2.031   4.047  26.276  0.00  0.00    -0.060 NA
BRANCH  14  16
ATOM     16  C   UNL     1       0.625   4.673  24.403  0.00  0.00    +0.070 A 
ATOM     17  C   UNL     1      -0.632   4.630  23.795  0.00  0.00    +0.047 A 
ATOM     18  C   UNL     1      -0.729   5.037  22.474  0.00  0.00    +0.113 A 
ATOM     19  N   UNL     1       0.317   5.473  21.742  0.00  0.00    -0.263 NA
ATOM     20  C   UNL     1       1.520   5.507  22.354  0.00  0.00    +0.113 A 
ATOM     21  C   UNL     1       1.726   5.124  23.668  0.00  0.00    +0.047 A 
ENDBRANCH  14  16
ENDBRANCH  10  12
ENDBRANCH   9  10
ENDBRANCH   5   9
ENDBRANCH   4   7
ENDBRANCH   1   4
BRANCH   1  22
ATOM     22  C   UNL     1       5.463   3.151  33.234  0.00  0.00    +0.175 C 
BRANCH  22  23
ATOM     23  C   UNL     1       5.849   3.843  34.550  0.00  0.00    +0.176 C 
ATOM     24  O   UNL     1       5.796   5.279  34.333  0.00  0.00    -0.332 OA
ATOM     25  C   UNL     1       6.034   6.109  35.518  0.00  0.00    +0.277 C 
ATOM     26  C   UNL     1       7.380   5.730  36.182  0.00  0.00    +0.110 C 
ATOM     27  C   UNL     1       7.496   4.207  36.405  0.00  0.00    +0.143 C 
ATOM     28  C   UNL     1       7.227   3.441  35.109  0.00  0.00    +0.133 C 
BRANCH  28  29
ATOM     29  N   UNL     1       7.255   1.991  35.352  0.00  0.00    -0.308 N 
ATOM     30  H   UNL     1       6.524   1.594  35.926  0.00  0.00    +0.149 HD
ATOM     31  C   UNL     1       8.184   1.163  34.864  0.00  0.00    +0.210 C 
ATOM     32  C   UNL     1       9.299   1.802  34.015  0.00  0.00    +0.109 C 
ATOM     33  O   UNL     1       8.174  -0.050  35.073  0.00  0.00    -0.276 OA
ENDBRANCH  28  29
BRANCH  25  34
ATOM     34  C   UNL     1       4.890   5.944  36.540  0.00  0.00    +0.414 C 
ATOM     35  O   UNL     1       5.096   6.135  37.738  0.00  0.00    -0.240 OA
ATOM     36  O   UNL     1       3.762   5.619  36.167  0.00  0.00    -0.240 OA
ENDBRANCH  25  34
BRANCH  27  37
ATOM     37  O   UNL     1       8.806   3.888  36.876  0.00  0.00    -0.390 OA
ATOM     38  H   UNL     1       9.043   3.003  36.590  0.00  0.00    +0.210 HD
ENDBRANCH  27  37
BRANCH  25  39
ATOM     39  O   UNL     1       6.109   7.493  35.089  0.00  0.00    -0.343 OA
ATOM     40  C   UNL     1       7.305   7.839  34.346  0.00  0.00    +0.198 C 
ENDBRANCH  25  39
ENDBRANCH  22  23
BRANCH  22  41
ATOM     41  O   UNL     1       6.538   3.264  32.280  0.00  0.00    -0.387 OA
ATOM     42  H   UNL     1       6.868   2.388  32.065  0.00  0.00    +0.210 HD
ENDBRANCH  22  41
ENDBRANCH   1  22
TORSDOF 14
