REMARK VINA RESULT:    -5.141     15.295     18.297
REMARK INTER + INTRA:         -12.948
REMARK INTER:                  -9.498
REMARK INTRA:                  -3.450
REMARK UNBOUND:                -3.450
REMARK  Name = lig_assembled_66.pdb
REMARK  18 active torsions:
REMARK  status: ('A' for Active; 'I' for Inactive)
REMARK    1  A    between atoms: _2  and  _10
REMARK    2  A    between atoms: _5  and  _21
REMARK    3  A    between atoms: _7  and  _8
REMARK    4  A    between atoms: _7  and  _21
REMARK    5  A    between atoms: _10  and  _11
REMARK    6  A    between atoms: _15  and  _16
REMARK    7  A    between atoms: _17  and  _37
REMARK    8  A    between atoms: _19  and  _25
REMARK    9  A    between atoms: _20  and  _24
REMARK   10  A    between atoms: _24  and  _25
REMARK   11  A    between atoms: _27  and  _28
REMARK   12  A    between atoms: _29  and  _30
REMARK   13  A    between atoms: _31  and  _33
REMARK   14  A    between atoms: _33  and  _34
REMARK   15  A    between atoms: _33  and  _35
REMARK   16  A    between atoms: _35  and  _36
REMARK   17  A    between atoms: _35  and  _37
REMARK   18  A    between atoms: _38  and  _40
REMARK                            x       y       z     vdW  Elec       q    Type
REMARK                         _______ _______ _______ _____ _____    ______ ____
ROOT
ATOM      1  C   UNL     1      17.031  -2.865  23.695  0.00  0.00    +0.163 C 
ENDROOT
BRANCH   1   2
ATOM      2  O   UNL     1      16.913  -4.023  22.853  0.00  0.00    -0.388 OA
ATOM      3  H   UNL     1      16.933  -3.753  21.932  0.00  0.00    +0.210 HD
ENDBRANCH   1   2
BRANCH   1   4
ATOM      4  C   UNL     1      17.318  -1.605  22.860  0.00  0.00    +0.175 C 
BRANCH   4   5
ATOM      5  C   UNL     1      18.822  -1.396  22.626  0.00  0.00    +0.176 C 
ATOM      6  O   UNL     1      19.508  -1.637  23.885  0.00  0.00    -0.332 OA
ATOM      7  C   UNL     1      20.972  -1.587  23.829  0.00  0.00    +0.277 C 
ATOM      8  C   UNL     1      21.444  -0.242  23.225  0.00  0.00    +0.110 C 
ATOM      9  C   UNL     1      20.718   0.073  21.900  0.00  0.00    +0.143 C 
ATOM     10  C   UNL     1      19.201  -0.011  22.072  0.00  0.00    +0.133 C 
BRANCH  10  11
ATOM     11  N   UNL     1      18.524   0.206  20.784  0.00  0.00    -0.308 N 
ATOM     12  H   UNL     1      18.648  -0.491  20.063  0.00  0.00    +0.149 HD
ATOM     13  C   UNL     1      17.756   1.263  20.505  0.00  0.00    +0.210 C 
ATOM     14  C   UNL     1      17.608   2.320  21.616  0.00  0.00    +0.109 C 
ATOM     15  O   UNL     1      17.189   1.410  19.422  0.00  0.00    -0.276 OA
ENDBRANCH  10  11
BRANCH   7  16
ATOM     16  C   UNL     1      21.527  -2.754  22.987  0.00  0.00    +0.414 C 
ATOM     17  O   UNL     1      20.903  -3.811  22.904  0.00  0.00    -0.240 OA
ATOM     18  O   UNL     1      22.599  -2.639  22.391  0.00  0.00    -0.240 OA
ENDBRANCH   7  16
BRANCH   7  19
ATOM     19  O   UNL     1      21.476  -1.681  25.186  0.00  0.00    -0.343 OA
ATOM     20  C   UNL     1      22.642  -0.864  25.464  0.00  0.00    +0.198 C 
ENDBRANCH   7  19
BRANCH   9  21
ATOM     21  O   UNL     1      21.070   1.385  21.458  0.00  0.00    -0.390 OA
ATOM     22  H   UNL     1      21.245   1.369  20.514  0.00  0.00    +0.210 HD
ENDBRANCH   9  21
ENDBRANCH   4   5
BRANCH   4  23
ATOM     23  O   UNL     1      16.750  -0.445  23.500  0.00  0.00    -0.387 OA
ATOM     24  H   UNL     1      17.425  -0.003  24.020  0.00  0.00    +0.210 HD
ENDBRANCH   4  23
ENDBRANCH   1   4
BRANCH   1  25
ATOM     25  C   UNL     1      15.747  -2.666  24.492  0.00  0.00    +0.141 C 
BRANCH  25  28
ATOM     26  C   UNL     1      16.732  -1.932  26.636  0.00  0.00    +0.401 C 
ATOM     27  O   UNL     1      17.399  -2.958  26.789  0.00  0.00    -0.226 OA
ATOM     28  N   UNL     1      15.928  -1.714  25.595  0.00  0.00    -0.279 N 
ATOM     29  H   UNL     1      15.414  -0.844  25.562  0.00  0.00    +0.152 HD
BRANCH  26  30
ATOM     30  O   UNL     1      16.808  -0.901  27.624  0.00  0.00    -0.444 OA
BRANCH  30  31
ATOM     31  C   UNL     1      18.133  -0.366  27.656  0.00  0.00    +0.292 C 
BRANCH  31  33
ATOM     32  N   UNL     1      17.250   1.186  25.938  0.00  0.00    -0.131 NA
ATOM     33  C   UNL     1      18.323   0.605  26.560  0.00  0.00    +0.120 A 
ATOM     34  C   UNL     1      19.484   1.110  26.020  0.00  0.00    +0.137 A 
ATOM     35  N   UNL     1      19.052   2.036  25.115  0.00  0.00    -0.247 N 
ATOM     36  N   UNL     1      17.707   2.064  25.055  0.00  0.00    -0.065 NA
BRANCH  35  37
ATOM     37  C   UNL     1      19.834   3.081  24.481  0.00  0.00    +0.180 C 
BRANCH  37  38
ATOM     38  C   UNL     1      19.394   4.472  24.861  0.00  0.00    -0.025 A 
ATOM     39  C   UNL     1      18.891   5.347  23.888  0.00  0.00    +0.005 A 
ATOM     40  C   UNL     1      18.403   6.607  24.245  0.00  0.00    +0.002 A 
ATOM     41  C   UNL     1      18.431   7.015  25.578  0.00  0.00    +0.019 A 
ATOM     42  C   UNL     1      18.962   6.169  26.556  0.00  0.00    +0.052 A 
ATOM     43  C   UNL     1      19.441   4.901  26.198  0.00  0.00    +0.024 A 
BRANCH  42  44
ATOM     44  C   UNL     1      19.008   6.592  27.925  0.00  0.00    +0.099 C 
ATOM     45  N   UNL     1      19.039   6.929  29.036  0.00  0.00    -0.191 NA
ENDBRANCH  42  44
ENDBRANCH  37  38
ENDBRANCH  35  37
ENDBRANCH  31  33
ENDBRANCH  30  31
ENDBRANCH  26  30
ENDBRANCH  25  28
ENDBRANCH   1  25
TORSDOF 16
