REMARK VINA RESULT:    -6.047      5.733      7.291
REMARK INTER + INTRA:         -12.531
REMARK INTER:                 -10.320
REMARK INTRA:                  -2.211
REMARK UNBOUND:                -2.065
REMARK  Name = lig_assembled_49.pdb
REMARK  16 active torsions:
REMARK  status: ('A' for Active; 'I' for Inactive)
REMARK    1  A    between atoms: _2  and  _9
REMARK    2  A    between atoms: _4  and  _17
REMARK    3  A    between atoms: _6  and  _7
REMARK    4  A    between atoms: _6  and  _17
REMARK    5  A    between atoms: _13  and  _33
REMARK    6  A    between atoms: _15  and  _21
REMARK    7  A    between atoms: _16  and  _20
REMARK    8  A    between atoms: _20  and  _21
REMARK    9  A    between atoms: _23  and  _24
REMARK   10  A    between atoms: _25  and  _26
REMARK   11  A    between atoms: _27  and  _29
REMARK   12  A    between atoms: _29  and  _30
REMARK   13  A    between atoms: _29  and  _31
REMARK   14  A    between atoms: _31  and  _32
REMARK   15  A    between atoms: _31  and  _33
REMARK   16  A    between atoms: _34  and  _36
REMARK                            x       y       z     vdW  Elec       q    Type
REMARK                         _______ _______ _______ _____ _____    ______ ____
ROOT
ATOM      1  C   UNL     1       4.266   5.652  37.629  0.00  0.00    +0.175 C 
ENDROOT
BRANCH   1   2
ATOM      2  C   UNL     1       5.583   6.270  37.139  0.00  0.00    +0.176 C 
ATOM      3  O   UNL     1       5.981   5.572  35.927  0.00  0.00    -0.332 OA
ATOM      4  C   UNL     1       7.171   6.100  35.253  0.00  0.00    +0.277 C 
ATOM      5  C   UNL     1       8.366   6.165  36.236  0.00  0.00    +0.110 C 
ATOM      6  C   UNL     1       7.981   6.872  37.553  0.00  0.00    +0.143 C 
ATOM      7  C   UNL     1       6.729   6.245  38.167  0.00  0.00    +0.133 C 
BRANCH   7   8
ATOM      8  N   UNL     1       6.323   6.981  39.374  0.00  0.00    -0.308 N 
ATOM      9  H   UNL     1       6.003   7.933  39.261  0.00  0.00    +0.149 HD
ATOM     10  C   UNL     1       6.349   6.474  40.610  0.00  0.00    +0.210 C 
ATOM     11  C   UNL     1       6.866   5.030  40.752  0.00  0.00    +0.109 C 
ATOM     12  O   UNL     1       5.989   7.109  41.601  0.00  0.00    -0.276 OA
ENDBRANCH   7   8
BRANCH   4  13
ATOM     13  C   UNL     1       6.897   7.507  34.681  0.00  0.00    +0.414 C 
ATOM     14  O   UNL     1       7.818   8.310  34.542  0.00  0.00    -0.240 OA
ATOM     15  O   UNL     1       5.755   7.837  34.358  0.00  0.00    -0.240 OA
ENDBRANCH   4  13
BRANCH   6  16
ATOM     16  O   UNL     1       9.060   6.776  38.484  0.00  0.00    -0.390 OA
ATOM     17  H   UNL     1       8.982   7.474  39.139  0.00  0.00    +0.210 HD
ENDBRANCH   6  16
BRANCH   4  18
ATOM     18  O   UNL     1       7.516   5.193  34.174  0.00  0.00    -0.343 OA
ATOM     19  C   UNL     1       8.022   3.902  34.598  0.00  0.00    +0.198 C 
ENDBRANCH   4  18
ENDBRANCH   1   2
BRANCH   1  20
ATOM     20  O   UNL     1       4.511   4.353  38.204  0.00  0.00    -0.387 OA
ATOM     21  H   UNL     1       4.630   4.439  39.152  0.00  0.00    +0.210 HD
ENDBRANCH   1  20
BRANCH   1  22
ATOM     22  C   UNL     1       3.222   5.545  36.504  0.00  0.00    +0.163 C 
BRANCH  22  23
ATOM     23  O   UNL     1       2.020   6.252  36.849  0.00  0.00    -0.388 OA
ATOM     24  H   UNL     1       2.233   7.166  37.052  0.00  0.00    +0.210 HD
ENDBRANCH  22  23
BRANCH  22  25
ATOM     25  C   UNL     1       2.906   4.077  36.239  0.00  0.00    +0.141 C 
BRANCH  25  28
ATOM     26  C   UNL     1       3.848   3.498  34.030  0.00  0.00    +0.401 C 
ATOM     27  O   UNL     1       2.952   4.059  33.395  0.00  0.00    -0.226 OA
ATOM     28  N   UNL     1       3.903   3.452  35.361  0.00  0.00    -0.279 N 
ATOM     29  H   UNL     1       4.674   2.959  35.791  0.00  0.00    +0.152 HD
BRANCH  26  30
ATOM     30  O   UNL     1       4.902   2.847  33.315  0.00  0.00    -0.444 OA
BRANCH  30  31
ATOM     31  C   UNL     1       5.096   1.532  33.843  0.00  0.00    +0.292 C 
BRANCH  31  33
ATOM     32  N   UNL     1       6.950   0.421  32.640  0.00  0.00    -0.131 NA
ATOM     33  C   UNL     1       5.605   0.627  32.795  0.00  0.00    +0.120 A 
ATOM     34  C   UNL     1       4.924  -0.111  31.853  0.00  0.00    +0.137 A 
ATOM     35  N   UNL     1       5.911  -0.739  31.151  0.00  0.00    -0.248 N 
ATOM     36  N   UNL     1       7.125  -0.419  31.630  0.00  0.00    -0.065 NA
BRANCH  35  37
ATOM     37  C   UNL     1       5.764  -1.624  30.021  0.00  0.00    +0.109 C 
ATOM     38  C   UNL     1       4.837  -1.085  28.929  0.00  0.00    +0.027 C 
ATOM     39  C   UNL     1       5.196  -1.941  27.727  0.00  0.00    +0.002 C 
ATOM     40  C   UNL     1       6.710  -2.086  27.810  0.00  0.00    +0.002 C 
ATOM     41  C   UNL     1       7.074  -1.948  29.291  0.00  0.00    +0.027 C 
ENDBRANCH  35  37
ENDBRANCH  31  33
ENDBRANCH  30  31
ENDBRANCH  26  30
ENDBRANCH  25  28
ENDBRANCH  22  25
ENDBRANCH   1  22
TORSDOF 14
