REMARK VINA RESULT:    -5.158     12.145     16.781
REMARK INTER + INTRA:         -12.425
REMARK INTER:                 -10.642
REMARK INTRA:                  -1.783
REMARK UNBOUND:                -3.800
REMARK  Name = lig_assembled_65.pdb
REMARK  16 active torsions:
REMARK  status: ('A' for Active; 'I' for Inactive)
REMARK    1  A    between atoms: _8  and  _20
REMARK    2  A    between atoms: _9  and  _15
REMARK    3  A    between atoms: _10  and  _11
REMARK    4  A    between atoms: _10  and  _20
REMARK    5  A    between atoms: _16  and  _36
REMARK    6  A    between atoms: _18  and  _24
REMARK    7  A    between atoms: _19  and  _23
REMARK    8  A    between atoms: _23  and  _24
REMARK    9  A    between atoms: _26  and  _27
REMARK   10  A    between atoms: _28  and  _29
REMARK   11  A    between atoms: _30  and  _32
REMARK   12  A    between atoms: _32  and  _33
REMARK   13  A    between atoms: _32  and  _34
REMARK   14  A    between atoms: _34  and  _35
REMARK   15  A    between atoms: _34  and  _36
REMARK   16  A    between atoms: _37  and  _39
REMARK                            x       y       z     vdW  Elec       q    Type
REMARK                         _______ _______ _______ _____ _____    ______ ____
ROOT
ATOM      1  C   UNL     1       8.072   2.179  35.817  0.00  0.00    +0.163 C 
ENDROOT
BRANCH   1   2
ATOM      2  O   UNL     1       8.129   2.282  37.249  0.00  0.00    -0.388 OA
ATOM      3  H   UNL     1       7.872   3.167  37.518  0.00  0.00    +0.210 HD
ENDBRANCH   1   2
BRANCH   1   4
ATOM      4  C   UNL     1       8.791   0.916  35.355  0.00  0.00    +0.141 C 
BRANCH   4   7
ATOM      5  C   UNL     1       7.834  -0.025  33.280  0.00  0.00    +0.401 C 
ATOM      6  O   UNL     1       8.508   0.689  32.534  0.00  0.00    -0.226 OA
ATOM      7  N   UNL     1       7.897   0.019  34.612  0.00  0.00    -0.279 N 
ATOM      8  H   UNL     1       7.297  -0.600  35.138  0.00  0.00    +0.152 HD
BRANCH   5   9
ATOM      9  O   UNL     1       6.918  -0.961  32.705  0.00  0.00    -0.444 OA
BRANCH   9  10
ATOM     10  C   UNL     1       7.590  -1.735  31.707  0.00  0.00    +0.292 C 
BRANCH  10  12
ATOM     11  N   UNL     1       5.550  -1.272  30.382  0.00  0.00    -0.131 NA
ATOM     12  C   UNL     1       6.857  -1.674  30.429  0.00  0.00    +0.121 A 
ATOM     13  C   UNL     1       7.280  -1.973  29.156  0.00  0.00    +0.149 A 
ATOM     14  N   UNL     1       6.182  -1.746  28.353  0.00  0.00    -0.155 N 
ATOM     15  C   UNL     1       6.096  -1.927  26.942  0.00  0.00    +0.416 C 
ATOM     16  N   UNL     1       4.938  -1.650  26.330  0.00  0.00    +0.041 NA
ATOM     17  C   UNL     1       4.930  -1.860  25.016  0.00  0.00    +0.339 C 
ATOM     18  C   UNL     1       3.659  -1.581  24.277  0.00  0.00    +0.149 C 
ATOM     19  N   UNL     1       5.971  -2.312  24.316  0.00  0.00    +0.007 NA
ATOM     20  C   UNL     1       7.063  -2.568  25.018  0.00  0.00    +0.386 C 
ATOM     21  N   UNL     1       8.160  -3.048  24.334  0.00  0.00    -0.296 N 
ATOM     22  H   UNL     1       8.104  -2.806  23.354  0.00  0.00    +0.148 HD
ATOM     23  H   UNL     1       9.018  -2.834  24.820  0.00  0.00    +0.148 HD
ATOM     24  N   UNL     1       7.194  -2.378  26.319  0.00  0.00    -0.290 NA
ATOM     25  N   UNL     1       5.146  -1.315  29.117  0.00  0.00    -0.055 NA
ENDBRANCH  10  12
ENDBRANCH   9  10
ENDBRANCH   5   9
ENDBRANCH   4   7
ENDBRANCH   1   4
BRANCH   1  26
ATOM     26  C   UNL     1       8.715   3.408  35.151  0.00  0.00    +0.175 C 
BRANCH  26  27
ATOM     27  C   UNL     1       7.788   4.633  35.183  0.00  0.00    +0.176 C 
ATOM     28  O   UNL     1       7.781   5.153  36.540  0.00  0.00    -0.332 OA
ATOM     29  C   UNL     1       7.027   6.395  36.739  0.00  0.00    +0.277 C 
ATOM     30  C   UNL     1       5.573   6.232  36.233  0.00  0.00    +0.110 C 
ATOM     31  C   UNL     1       5.529   5.651  34.804  0.00  0.00    +0.143 C 
ATOM     32  C   UNL     1       6.348   4.363  34.710  0.00  0.00    +0.133 C 
BRANCH  32  33
ATOM     33  N   UNL     1       6.370   3.867  33.325  0.00  0.00    -0.308 N 
ATOM     34  H   UNL     1       6.931   4.370  32.652  0.00  0.00    +0.149 HD
ATOM     35  C   UNL     1       5.696   2.795  32.898  0.00  0.00    +0.210 C 
ATOM     36  C   UNL     1       4.829   2.066  33.942  0.00  0.00    +0.109 C 
ATOM     37  O   UNL     1       5.745   2.394  31.735  0.00  0.00    -0.276 OA
ENDBRANCH  32  33
BRANCH  29  38
ATOM     38  C   UNL     1       7.702   7.569  36.000  0.00  0.00    +0.414 C 
ATOM     39  O   UNL     1       7.790   7.560  34.773  0.00  0.00    -0.240 OA
ATOM     40  O   UNL     1       8.157   8.524  36.630  0.00  0.00    -0.240 OA
ENDBRANCH  29  38
BRANCH  29  41
ATOM     41  O   UNL     1       6.987   6.673  38.163  0.00  0.00    -0.343 OA
ATOM     42  C   UNL     1       7.957   5.943  38.956  0.00  0.00    +0.198 C 
ENDBRANCH  29  41
BRANCH  31  43
ATOM     43  O   UNL     1       4.176   5.377  34.437  0.00  0.00    -0.390 OA
ATOM     44  H   UNL     1       3.605   6.069  34.778  0.00  0.00    +0.210 HD
ENDBRANCH  31  43
ENDBRANCH  26  27
BRANCH  26  45
ATOM     45  O   UNL     1       9.085   3.100  33.793  0.00  0.00    -0.387 OA
ATOM     46  H   UNL     1       9.194   3.916  33.298  0.00  0.00    +0.210 HD
ENDBRANCH  26  45
ENDBRANCH   1  26
TORSDOF 13
