REMARK VINA RESULT:    -6.316      6.375     11.946
REMARK INTER + INTRA:         -13.222
REMARK INTER:                 -11.372
REMARK INTRA:                  -1.850
REMARK UNBOUND:                -1.736
REMARK  Name = lig_assembled_59.pdb
REMARK  18 active torsions:
REMARK  status: ('A' for Active; 'I' for Inactive)
REMARK    1  A    between atoms: _2  and  _10
REMARK    2  A    between atoms: _5  and  _20
REMARK    3  A    between atoms: _7  and  _8
REMARK    4  A    between atoms: _7  and  _20
REMARK    5  A    between atoms: _13  and  _14
REMARK    6  A    between atoms: _14  and  _15
REMARK    7  A    between atoms: _16  and  _36
REMARK    8  A    between atoms: _18  and  _24
REMARK    9  A    between atoms: _19  and  _23
REMARK   10  A    between atoms: _23  and  _24
REMARK   11  A    between atoms: _26  and  _27
REMARK   12  A    between atoms: _28  and  _29
REMARK   13  A    between atoms: _30  and  _32
REMARK   14  A    between atoms: _32  and  _33
REMARK   15  A    between atoms: _32  and  _34
REMARK   16  A    between atoms: _34  and  _35
REMARK   17  A    between atoms: _34  and  _36
REMARK   18  A    between atoms: _37  and  _39
REMARK                            x       y       z     vdW  Elec       q    Type
REMARK                         _______ _______ _______ _____ _____    ______ ____
ROOT
ATOM      1  C   UNL     1       7.317   2.458  34.381  0.00  0.00    +0.163 C 
ENDROOT
BRANCH   1   2
ATOM      2  O   UNL     1       7.322   2.450  35.818  0.00  0.00    -0.388 OA
ATOM      3  H   UNL     1       8.221   2.339  36.135  0.00  0.00    +0.210 HD
ENDBRANCH   1   2
BRANCH   1   4
ATOM      4  C   UNL     1       7.796   3.815  33.837  0.00  0.00    +0.175 C 
BRANCH   4   5
ATOM      5  C   UNL     1       7.162   4.995  34.589  0.00  0.00    +0.176 C 
ATOM      6  O   UNL     1       7.853   5.139  35.860  0.00  0.00    -0.332 OA
ATOM      7  C   UNL     1       7.450   6.290  36.674  0.00  0.00    +0.277 C 
ATOM      8  C   UNL     1       5.919   6.278  36.908  0.00  0.00    +0.110 C 
ATOM      9  C   UNL     1       5.142   6.095  35.588  0.00  0.00    +0.143 C 
ATOM     10  C   UNL     1       5.644   4.871  34.821  0.00  0.00    +0.133 C 
BRANCH  10  11
ATOM     11  N   UNL     1       4.957   4.757  33.525  0.00  0.00    -0.308 N 
ATOM     12  H   UNL     1       5.171   5.444  32.815  0.00  0.00    +0.149 HD
ATOM     13  C   UNL     1       4.068   3.806  33.226  0.00  0.00    +0.210 C 
ATOM     14  C   UNL     1       3.743   2.791  34.337  0.00  0.00    +0.109 C 
ATOM     15  O   UNL     1       3.518   3.727  32.126  0.00  0.00    -0.276 OA
ENDBRANCH  10  11
BRANCH   7  16
ATOM     16  C   UNL     1       7.856   7.612  35.990  0.00  0.00    +0.414 C 
ATOM     17  O   UNL     1       7.895   7.689  34.763  0.00  0.00    -0.240 OA
ATOM     18  O   UNL     1       8.144   8.601  36.665  0.00  0.00    -0.240 OA
ENDBRANCH   7  16
BRANCH   7  19
ATOM     19  O   UNL     1       8.111   6.183  37.961  0.00  0.00    -0.343 OA
ATOM     20  C   UNL     1       9.249   5.285  37.992  0.00  0.00    +0.198 C 
ENDBRANCH   7  19
BRANCH   9  21
ATOM     21  O   UNL     1       3.750   5.937  35.866  0.00  0.00    -0.390 OA
ATOM     22  H   UNL     1       3.342   6.801  35.958  0.00  0.00    +0.210 HD
ENDBRANCH   9  21
ENDBRANCH   4   5
BRANCH   4  23
ATOM     23  O   UNL     1       7.512   3.914  32.427  0.00  0.00    -0.387 OA
ATOM     24  H   UNL     1       7.204   3.064  32.103  0.00  0.00    +0.210 HD
ENDBRANCH   4  23
ENDBRANCH   1   4
BRANCH   1  25
ATOM     25  C   UNL     1       8.219   1.349  33.849  0.00  0.00    +0.141 C 
BRANCH  25  28
ATOM     26  C   UNL     1      10.474   1.657  34.810  0.00  0.00    +0.401 C 
ATOM     27  O   UNL     1      10.169   1.201  35.915  0.00  0.00    -0.226 OA
ATOM     28  N   UNL     1       9.624   1.769  33.789  0.00  0.00    -0.279 N 
ATOM     29  H   UNL     1       9.967   2.165  32.925  0.00  0.00    +0.152 HD
BRANCH  26  30
ATOM     30  O   UNL     1      11.815   2.102  34.590  0.00  0.00    -0.444 OA
BRANCH  30  31
ATOM     31  C   UNL     1      12.543   2.054  35.820  0.00  0.00    +0.292 C 
BRANCH  31  33
ATOM     32  N   UNL     1      13.073   3.946  37.321  0.00  0.00    -0.131 NA
ATOM     33  C   UNL     1      13.176   3.359  36.090  0.00  0.00    +0.121 A 
ATOM     34  C   UNL     1      13.916   4.173  35.264  0.00  0.00    +0.145 A 
ATOM     35  N   UNL     1      14.248   5.258  36.044  0.00  0.00    -0.202 N 
ATOM     36  N   UNL     1      13.729   5.097  37.288  0.00  0.00    -0.059 NA
BRANCH  35  37
ATOM     37  C   UNL     1      14.998   6.401  35.657  0.00  0.00    +0.156 A 
ATOM     38  C   UNL     1      15.739   7.083  36.620  0.00  0.00    +0.048 A 
ATOM     39  C   UNL     1      16.438   8.228  36.242  0.00  0.00    +0.011 A 
ATOM     40  C   UNL     1      16.394   8.668  34.918  0.00  0.00    -0.004 A 
ATOM     41  C   UNL     1      15.628   7.922  34.025  0.00  0.00    +0.119 A 
ATOM     42  N   UNL     1      14.942   6.802  34.357  0.00  0.00    -0.236 NA
BRANCH  40  43
ATOM     43  C   UNL     1      17.063   9.947  34.510  0.00  0.00    +0.192 C 
BRANCH  43  44
ATOM     44  O   UNL     1      18.463   9.772  34.352  0.00  0.00    -0.390 OA
ATOM     45  H   UNL     1      18.609   8.832  34.148  0.00  0.00    +0.210 HD
ENDBRANCH  43  44
ENDBRANCH  40  43
ENDBRANCH  35  37
ENDBRANCH  31  33
ENDBRANCH  30  31
ENDBRANCH  26  30
ENDBRANCH  25  28
ENDBRANCH   1  25
TORSDOF 16
