REMARK VINA RESULT:    -6.371      8.831     12.888
REMARK INTER + INTRA:         -14.945
REMARK INTER:                 -11.569
REMARK INTRA:                  -3.376
REMARK UNBOUND:                -2.615
REMARK  Name = lig_assembled_83.pdb
REMARK  20 active torsions:
REMARK  status: ('A' for Active; 'I' for Inactive)
REMARK    1  A    between atoms: _2  and  _12
REMARK    2  A    between atoms: _3  and  _14
REMARK    3  A    between atoms: _7  and  _24
REMARK    4  A    between atoms: _9  and  _10
REMARK    5  A    between atoms: _9  and  _24
REMARK    6  A    between atoms: _12  and  _13
REMARK    7  A    between atoms: _13  and  _14
REMARK    8  A    between atoms: _13  and  _18
REMARK    9  A    between atoms: _20  and  _40
REMARK   10  A    between atoms: _22  and  _28
REMARK   11  A    between atoms: _23  and  _27
REMARK   12  A    between atoms: _27  and  _28
REMARK   13  A    between atoms: _30  and  _31
REMARK   14  A    between atoms: _32  and  _33
REMARK   15  A    between atoms: _34  and  _36
REMARK   16  A    between atoms: _36  and  _37
REMARK   17  A    between atoms: _36  and  _38
REMARK   18  A    between atoms: _38  and  _39
REMARK   19  A    between atoms: _38  and  _40
REMARK   20  A    between atoms: _41  and  _43
REMARK                            x       y       z     vdW  Elec       q    Type
REMARK                         _______ _______ _______ _____ _____    ______ ____
ROOT
ATOM      1  C   UNL     1       8.810   4.052  39.887  0.00  0.00    +0.141 C 
ENDROOT
BRANCH   1   4
ATOM      2  C   UNL     1      11.124   4.433  39.107  0.00  0.00    +0.401 C 
ATOM      3  O   UNL     1      11.065   5.658  39.237  0.00  0.00    -0.226 OA
ATOM      4  N   UNL     1      10.115   3.606  39.382  0.00  0.00    -0.279 N 
ATOM      5  H   UNL     1      10.256   2.616  39.234  0.00  0.00    +0.152 HD
BRANCH   2   6
ATOM      6  O   UNL     1      12.335   3.842  38.631  0.00  0.00    -0.444 OA
BRANCH   6   7
ATOM      7  C   UNL     1      12.214   3.565  37.233  0.00  0.00    +0.292 C 
BRANCH   7   9
ATOM      8  N   UNL     1      13.442   4.049  35.130  0.00  0.00    -0.131 NA
ATOM      9  C   UNL     1      13.276   4.253  36.476  0.00  0.00    +0.120 A 
ATOM     10  C   UNL     1      14.224   5.149  36.912  0.00  0.00    +0.137 A 
ATOM     11  N   UNL     1      14.921   5.463  35.786  0.00  0.00    -0.249 N 
ATOM     12  N   UNL     1      14.460   4.793  34.717  0.00  0.00    -0.065 NA
BRANCH  11  13
ATOM     13  C   UNL     1      16.054   6.356  35.665  0.00  0.00    +0.178 C 
BRANCH  13  14
ATOM     14  C   UNL     1      16.161   6.954  34.259  0.00  0.00    +0.156 C 
BRANCH  14  15
ATOM     15  O   UNL     1      14.897   7.499  33.865  0.00  0.00    -0.388 OA
ATOM     16  H   UNL     1      14.635   8.209  34.486  0.00  0.00    +0.210 HD
ENDBRANCH  14  15
BRANCH  14  17
ATOM     17  C   UNL     1      17.247   8.041  34.219  0.00  0.00    +0.162 C 
BRANCH  17  18
ATOM     18  N   UNL     1      17.472   8.555  32.877  0.00  0.00    -0.269 N 
ATOM     19  C   UNL     1      18.315   7.956  31.968  0.00  0.00    +0.113 A 
ATOM     20  C   UNL     1      18.228   8.719  30.826  0.00  0.00    +0.137 A 
ATOM     21  N   UNL     1      17.384   9.779  31.014  0.00  0.00    -0.172 NA
ATOM     22  C   UNL     1      16.938   9.656  32.250  0.00  0.00    +0.450 A 
ATOM     23  N   UNL     1      15.999  10.587  32.833  0.00  0.00    +0.120 N 
ATOM     24  O   UNL     1      15.638  10.383  34.004  0.00  0.00    +0.045 OA
ATOM     25  O   UNL     1      15.625  11.534  32.132  0.00  0.00    -0.573 OA
ENDBRANCH  17  18
ENDBRANCH  14  17
ENDBRANCH  13  14
ENDBRANCH  11  13
ENDBRANCH   7   9
ENDBRANCH   6   7
ENDBRANCH   2   6
ENDBRANCH   1   4
BRANCH   1  26
ATOM     26  C   UNL     1       7.879   4.479  38.758  0.00  0.00    +0.163 C 
BRANCH  26  27
ATOM     27  O   UNL     1       7.948   5.903  38.576  0.00  0.00    -0.388 OA
ATOM     28  H   UNL     1       7.409   6.157  37.823  0.00  0.00    +0.210 HD
ENDBRANCH  26  27
BRANCH  26  29
ATOM     29  C   UNL     1       8.265   3.740  37.465  0.00  0.00    +0.175 C 
BRANCH  29  30
ATOM     30  C   UNL     1       7.769   4.472  36.210  0.00  0.00    +0.176 C 
ATOM     31  O   UNL     1       6.373   4.824  36.420  0.00  0.00    -0.332 OA
ATOM     32  C   UNL     1       5.756   5.628  35.361  0.00  0.00    +0.277 C 
ATOM     33  C   UNL     1       5.919   4.931  33.988  0.00  0.00    +0.110 C 
ATOM     34  C   UNL     1       7.381   4.509  33.734  0.00  0.00    +0.143 C 
ATOM     35  C   UNL     1       7.924   3.681  34.898  0.00  0.00    +0.133 C 
BRANCH  35  36
ATOM     36  N   UNL     1       9.344   3.359  34.684  0.00  0.00    -0.308 N 
ATOM     37  H   UNL     1      10.004   4.125  34.666  0.00  0.00    +0.149 HD
ATOM     38  C   UNL     1       9.818   2.123  34.512  0.00  0.00    +0.210 C 
ATOM     39  C   UNL     1       8.785   0.981  34.519  0.00  0.00    +0.109 C 
ATOM     40  O   UNL     1      11.015   1.882  34.349  0.00  0.00    -0.276 OA
ENDBRANCH  35  36
BRANCH  32  41
ATOM     41  C   UNL     1       6.387   7.034  35.304  0.00  0.00    +0.414 C 
ATOM     42  O   UNL     1       7.160   7.404  36.187  0.00  0.00    -0.240 OA
ATOM     43  O   UNL     1       6.124   7.799  34.374  0.00  0.00    -0.240 OA
ENDBRANCH  32  41
BRANCH  32  44
ATOM     44  O   UNL     1       4.339   5.740  35.652  0.00  0.00    -0.343 OA
ATOM     45  C   UNL     1       3.996   5.684  37.060  0.00  0.00    +0.198 C 
ENDBRANCH  32  44
BRANCH  34  46
ATOM     46  O   UNL     1       7.459   3.741  32.533  0.00  0.00    -0.390 OA
ATOM     47  H   UNL     1       6.997   4.200  31.827  0.00  0.00    +0.210 HD
ENDBRANCH  34  46
ENDBRANCH  29  30
BRANCH  29  48
ATOM     48  O   UNL     1       7.751   2.393  37.491  0.00  0.00    -0.387 OA
ATOM     49  H   UNL     1       8.483   1.772  37.506  0.00  0.00    +0.210 HD
ENDBRANCH  29  48
ENDBRANCH  26  29
ENDBRANCH   1  26
TORSDOF 18
