REMARK VINA RESULT:    -6.006      5.031     10.281
REMARK INTER + INTRA:         -13.042
REMARK INTER:                 -10.914
REMARK INTRA:                  -2.127
REMARK UNBOUND:                -2.296
REMARK  Name = lig_assembled_63.pdb
REMARK  17 active torsions:
REMARK  status: ('A' for Active; 'I' for Inactive)
REMARK    1  A    between atoms: _2  and  _11
REMARK    2  A    between atoms: _6  and  _20
REMARK    3  A    between atoms: _7  and  _15
REMARK    4  A    between atoms: _8  and  _9
REMARK    5  A    between atoms: _8  and  _20
REMARK    6  A    between atoms: _16  and  _36
REMARK    7  A    between atoms: _18  and  _24
REMARK    8  A    between atoms: _19  and  _23
REMARK    9  A    between atoms: _23  and  _24
REMARK   10  A    between atoms: _26  and  _27
REMARK   11  A    between atoms: _28  and  _29
REMARK   12  A    between atoms: _30  and  _32
REMARK   13  A    between atoms: _32  and  _33
REMARK   14  A    between atoms: _32  and  _34
REMARK   15  A    between atoms: _34  and  _35
REMARK   16  A    between atoms: _34  and  _36
REMARK   17  A    between atoms: _37  and  _39
REMARK                            x       y       z     vdW  Elec       q    Type
REMARK                         _______ _______ _______ _____ _____    ______ ____
ROOT
ATOM      1  C   UNL     1      19.415   4.603  24.975  0.00  0.00    +0.163 C 
ENDROOT
BRANCH   1   2
ATOM      2  O   UNL     1      18.305   4.675  25.885  0.00  0.00    -0.388 OA
ATOM      3  H   UNL     1      18.100   5.595  26.068  0.00  0.00    +0.210 HD
ENDBRANCH   1   2
BRANCH   1   4
ATOM      4  C   UNL     1      19.640   5.961  24.318  0.00  0.00    +0.141 C 
BRANCH   4   7
ATOM      5  C   UNL     1      19.166   7.771  25.931  0.00  0.00    +0.401 C 
ATOM      6  O   UNL     1      17.946   7.734  25.758  0.00  0.00    -0.226 OA
ATOM      7  N   UNL     1      20.034   6.983  25.295  0.00  0.00    -0.279 N 
ATOM      8  H   UNL     1      21.017   7.095  25.496  0.00  0.00    +0.152 HD
BRANCH   5   9
ATOM      9  O   UNL     1      19.708   8.713  26.861  0.00  0.00    -0.444 OA
BRANCH   9  10
ATOM     10  C   UNL     1      19.686   8.151  28.176  0.00  0.00    +0.292 C 
BRANCH  10  12
ATOM     11  N   UNL     1      18.134  10.019  28.630  0.00  0.00    -0.131 NA
ATOM     12  C   UNL     1      18.953   9.034  29.102  0.00  0.00    +0.121 A 
ATOM     13  C   UNL     1      18.946   9.068  30.476  0.00  0.00    +0.145 A 
ATOM     14  N   UNL     1      18.126  10.129  30.803  0.00  0.00    -0.200 N 
ATOM     15  N   UNL     1      17.631  10.672  29.669  0.00  0.00    -0.059 NA
BRANCH  14  16
ATOM     16  C   UNL     1      17.874  10.633  32.113  0.00  0.00    +0.173 A 
ATOM     17  C   UNL     1      16.899  10.085  32.951  0.00  0.00    +0.096 A 
ATOM     18  C   UNL     1      16.666  10.721  34.182  0.00  0.00    +0.024 A 
ATOM     19  C   UNL     1      17.407  11.839  34.553  0.00  0.00    +0.021 A 
ATOM     20  C   UNL     1      18.377  12.291  33.681  0.00  0.00    +0.113 A 
ATOM     21  N   UNL     1      18.621  11.722  32.482  0.00  0.00    -0.235 NA
BRANCH  17  22
ATOM     22  C   UNL     1      16.124   8.913  32.671  0.00  0.00    +0.103 C 
ATOM     23  N   UNL     1      15.588   7.914  32.418  0.00  0.00    -0.191 NA
ENDBRANCH  17  22
ENDBRANCH  14  16
ENDBRANCH  10  12
ENDBRANCH   9  10
ENDBRANCH   5   9
ENDBRANCH   4   7
ENDBRANCH   1   4
BRANCH   1  24
ATOM     24  C   UNL     1      19.168   3.541  23.889  0.00  0.00    +0.175 C 
BRANCH  24  25
ATOM     25  C   UNL     1      18.245   2.416  24.380  0.00  0.00    +0.176 C 
ATOM     26  O   UNL     1      18.708   2.000  25.695  0.00  0.00    -0.332 OA
ATOM     27  C   UNL     1      17.878   0.999  26.372  0.00  0.00    +0.277 C 
ATOM     28  C   UNL     1      17.685  -0.244  25.468  0.00  0.00    +0.110 C 
ATOM     29  C   UNL     1      17.224   0.150  24.049  0.00  0.00    +0.143 C 
ATOM     30  C   UNL     1      18.156   1.199  23.441  0.00  0.00    +0.133 C 
BRANCH  30  31
ATOM     31  N   UNL     1      17.657   1.630  22.125  0.00  0.00    -0.308 N 
ATOM     32  H   UNL     1      16.790   2.147  22.095  0.00  0.00    +0.149 HD
ATOM     33  C   UNL     1      18.277   1.383  20.968  0.00  0.00    +0.210 C 
ATOM     34  C   UNL     1      19.583   0.571  21.044  0.00  0.00    +0.109 C 
ATOM     35  O   UNL     1      17.843   1.769  19.881  0.00  0.00    -0.276 OA
ENDBRANCH  30  31
BRANCH  27  36
ATOM     36  C   UNL     1      16.500   1.588  26.740  0.00  0.00    +0.414 C 
ATOM     37  O   UNL     1      15.474   0.941  26.533  0.00  0.00    -0.240 OA
ATOM     38  O   UNL     1      16.415   2.709  27.242  0.00  0.00    -0.240 OA
ENDBRANCH  27  36
BRANCH  27  39
ATOM     39  O   UNL     1      18.570   0.584  27.578  0.00  0.00    -0.343 OA
ATOM     40  C   UNL     1      18.283  -0.769  28.014  0.00  0.00    +0.198 C 
ENDBRANCH  27  39
BRANCH  29  41
ATOM     41  O   UNL     1      17.205  -1.005  23.210  0.00  0.00    -0.390 OA
ATOM     42  H   UNL     1      17.989  -1.012  22.656  0.00  0.00    +0.210 HD
ENDBRANCH  29  41
ENDBRANCH  24  25
BRANCH  24  43
ATOM     43  O   UNL     1      20.422   2.993  23.436  0.00  0.00    -0.387 OA
ATOM     44  H   UNL     1      20.836   3.605  22.824  0.00  0.00    +0.210 HD
ENDBRANCH  24  43
ENDBRANCH   1  24
TORSDOF 15
