REMARK VINA RESULT:    -5.835      0.000      0.000
REMARK INTER + INTRA:         -14.525
REMARK INTER:                 -12.234
REMARK INTRA:                  -2.291
REMARK UNBOUND:                -3.914
REMARK  Name = lig_assembled_73.pdb
REMARK  18 active torsions:
REMARK  status: ('A' for Active; 'I' for Inactive)
REMARK    1  A    between atoms: _2  and  _10
REMARK    2  A    between atoms: _3  and  _14
REMARK    3  A    between atoms: _5  and  _22
REMARK    4  A    between atoms: _7  and  _8
REMARK    5  A    between atoms: _7  and  _22
REMARK    6  A    between atoms: _13  and  _16
REMARK    7  A    between atoms: _18  and  _38
REMARK    8  A    between atoms: _20  and  _26
REMARK    9  A    between atoms: _21  and  _25
REMARK   10  A    between atoms: _25  and  _26
REMARK   11  A    between atoms: _28  and  _29
REMARK   12  A    between atoms: _30  and  _31
REMARK   13  A    between atoms: _32  and  _34
REMARK   14  A    between atoms: _34  and  _35
REMARK   15  A    between atoms: _34  and  _36
REMARK   16  A    between atoms: _36  and  _37
REMARK   17  A    between atoms: _36  and  _38
REMARK   18  A    between atoms: _39  and  _41
REMARK                            x       y       z     vdW  Elec       q    Type
REMARK                         _______ _______ _______ _____ _____    ______ ____
ROOT
ATOM      1  C   UNL     1       4.075   3.700  32.954  0.00  0.00    +0.163 C 
ENDROOT
BRANCH   1   2
ATOM      2  O   UNL     1       3.252   4.097  34.064  0.00  0.00    -0.388 OA
ATOM      3  H   UNL     1       3.488   4.987  34.335  0.00  0.00    +0.210 HD
ENDBRANCH   1   2
BRANCH   1   4
ATOM      4  C   UNL     1       5.435   3.171  33.440  0.00  0.00    +0.175 C 
BRANCH   4   5
ATOM      5  C   UNL     1       5.888   3.851  34.741  0.00  0.00    +0.176 C 
ATOM      6  O   UNL     1       5.853   5.289  34.530  0.00  0.00    -0.332 OA
ATOM      7  C   UNL     1       6.155   6.110  35.706  0.00  0.00    +0.277 C 
ATOM      8  C   UNL     1       7.520   5.703  36.313  0.00  0.00    +0.110 C 
ATOM      9  C   UNL     1       7.617   4.178  36.526  0.00  0.00    +0.143 C 
ATOM     10  C   UNL     1       7.280   3.422  35.240  0.00  0.00    +0.133 C 
BRANCH  10  11
ATOM     11  N   UNL     1       7.291   1.970  35.478  0.00  0.00    -0.308 N 
ATOM     12  H   UNL     1       6.573   1.584  36.075  0.00  0.00    +0.149 HD
ATOM     13  C   UNL     1       8.189   1.128  34.958  0.00  0.00    +0.210 C 
ATOM     14  C   UNL     1       9.286   1.751  34.074  0.00  0.00    +0.109 C 
ATOM     15  O   UNL     1       8.165  -0.086  35.163  0.00  0.00    -0.276 OA
ENDBRANCH  10  11
BRANCH   7  16
ATOM     16  C   UNL     1       5.052   5.962  36.774  0.00  0.00    +0.414 C 
ATOM     17  O   UNL     1       5.315   6.127  37.965  0.00  0.00    -0.240 OA
ATOM     18  O   UNL     1       3.899   5.678  36.446  0.00  0.00    -0.240 OA
ENDBRANCH   7  16
BRANCH   9  19
ATOM     19  O   UNL     1       8.939   3.833  36.942  0.00  0.00    -0.390 OA
ATOM     20  H   UNL     1       9.376   4.609  37.300  0.00  0.00    +0.210 HD
ENDBRANCH   9  19
BRANCH   7  21
ATOM     21  O   UNL     1       6.239   7.494  35.279  0.00  0.00    -0.343 OA
ATOM     22  C   UNL     1       7.342   7.793  34.387  0.00  0.00    +0.198 C 
ENDBRANCH   7  21
ENDBRANCH   4   5
BRANCH   4  23
ATOM     23  O   UNL     1       6.432   3.349  32.413  0.00  0.00    -0.387 OA
ATOM     24  H   UNL     1       7.297   3.125  32.765  0.00  0.00    +0.210 HD
ENDBRANCH   4  23
ENDBRANCH   1   4
BRANCH   1  25
ATOM     25  C   UNL     1       3.369   2.619  32.142  0.00  0.00    +0.141 C 
BRANCH  25  28
ATOM     26  C   UNL     1       1.500   3.846  31.090  0.00  0.00    +0.401 C 
ATOM     27  O   UNL     1       0.911   4.050  32.154  0.00  0.00    -0.226 OA
ATOM     28  N   UNL     1       2.651   3.180  30.991  0.00  0.00    -0.279 N 
ATOM     29  H   UNL     1       3.052   3.055  30.072  0.00  0.00    +0.152 HD
BRANCH  26  30
ATOM     30  O   UNL     1       0.930   4.339  29.875  0.00  0.00    -0.444 OA
BRANCH  30  31
ATOM     31  C   UNL     1       0.599   3.240  29.021  0.00  0.00    +0.292 C 
BRANCH  31  33
ATOM     32  N   UNL     1       2.263   3.677  27.243  0.00  0.00    -0.131 NA
ATOM     33  C   UNL     1       0.960   3.549  27.625  0.00  0.00    +0.121 A 
ATOM     34  C   UNL     1       0.150   3.749  26.531  0.00  0.00    +0.143 A 
ATOM     35  N   UNL     1       1.014   3.991  25.489  0.00  0.00    -0.220 N 
ATOM     36  N   UNL     1       2.288   3.945  25.944  0.00  0.00    -0.060 NA
BRANCH  35  37
ATOM     37  C   UNL     1       0.713   4.262  24.129  0.00  0.00    +0.074 A 
ATOM     38  C   UNL     1       1.714   4.118  23.151  0.00  0.00    +0.032 A 
ATOM     39  C   UNL     1       1.443   4.389  21.803  0.00  0.00    +0.054 A 
ATOM     40  C   UNL     1       0.171   4.809  21.418  0.00  0.00    +0.195 A 
ATOM     41  C   UNL     1      -0.817   4.948  22.392  0.00  0.00    +0.316 A 
ATOM     42  C   UNL     1      -0.568   4.675  23.744  0.00  0.00    +0.116 A 
BRANCH  41  43
ATOM     43  N   UNL     1      -2.147   5.393  22.025  0.00  0.00    +0.083 N 
ATOM     44  O   UNL     1      -2.647   6.311  22.689  0.00  0.00    +0.042 OA
ATOM     45  O   UNL     1      -2.720   4.754  21.131  0.00  0.00    -0.576 OA
ENDBRANCH  41  43
BRANCH  40  46
ATOM     46  O   UNL     1      -0.097   5.051  20.105  0.00  0.00    -0.501 OA
ATOM     47  H   UNL     1       0.160   4.284  19.564  0.00  0.00    +0.292 HD
ENDBRANCH  40  46
ENDBRANCH  35  37
ENDBRANCH  31  33
ENDBRANCH  30  31
ENDBRANCH  26  30
ENDBRANCH  25  28
ENDBRANCH   1  25
TORSDOF 16
