REMARK VINA RESULT:    -5.195      7.413     13.096
REMARK INTER + INTRA:         -13.048
REMARK INTER:                 -11.630
REMARK INTRA:                  -1.418
REMARK UNBOUND:                -3.450
REMARK  Name = lig_assembled_66.pdb
REMARK  18 active torsions:
REMARK  status: ('A' for Active; 'I' for Inactive)
REMARK    1  A    between atoms: _2  and  _10
REMARK    2  A    between atoms: _5  and  _21
REMARK    3  A    between atoms: _7  and  _8
REMARK    4  A    between atoms: _7  and  _21
REMARK    5  A    between atoms: _10  and  _11
REMARK    6  A    between atoms: _15  and  _16
REMARK    7  A    between atoms: _17  and  _37
REMARK    8  A    between atoms: _19  and  _25
REMARK    9  A    between atoms: _20  and  _24
REMARK   10  A    between atoms: _24  and  _25
REMARK   11  A    between atoms: _27  and  _28
REMARK   12  A    between atoms: _29  and  _30
REMARK   13  A    between atoms: _31  and  _33
REMARK   14  A    between atoms: _33  and  _34
REMARK   15  A    between atoms: _33  and  _35
REMARK   16  A    between atoms: _35  and  _36
REMARK   17  A    between atoms: _35  and  _37
REMARK   18  A    between atoms: _38  and  _40
REMARK                            x       y       z     vdW  Elec       q    Type
REMARK                         _______ _______ _______ _____ _____    ______ ____
ROOT
ATOM      1  C   UNL     1       7.369   2.440  34.433  0.00  0.00    +0.163 C 
ENDROOT
BRANCH   1   2
ATOM      2  O   UNL     1       7.235   2.531  35.861  0.00  0.00    -0.388 OA
ATOM      3  H   UNL     1       7.738   1.826  36.275  0.00  0.00    +0.210 HD
ENDBRANCH   1   2
BRANCH   1   4
ATOM      4  C   UNL     1       7.772   3.797  33.831  0.00  0.00    +0.175 C 
BRANCH   4   5
ATOM      5  C   UNL     1       7.137   4.975  34.585  0.00  0.00    +0.176 C 
ATOM      6  O   UNL     1       7.849   5.137  35.843  0.00  0.00    -0.332 OA
ATOM      7  C   UNL     1       7.446   6.289  36.655  0.00  0.00    +0.277 C 
ATOM      8  C   UNL     1       5.920   6.259  36.917  0.00  0.00    +0.110 C 
ATOM      9  C   UNL     1       5.122   6.057  35.612  0.00  0.00    +0.143 C 
ATOM     10  C   UNL     1       5.626   4.834  34.845  0.00  0.00    +0.133 C 
BRANCH  10  11
ATOM     11  N   UNL     1       4.917   4.702  33.562  0.00  0.00    -0.308 N 
ATOM     12  H   UNL     1       5.106   5.388  32.846  0.00  0.00    +0.149 HD
ATOM     13  C   UNL     1       4.039   3.734  33.283  0.00  0.00    +0.210 C 
ATOM     14  C   UNL     1       3.752   2.719  34.405  0.00  0.00    +0.109 C 
ATOM     15  O   UNL     1       3.471   3.640  32.195  0.00  0.00    -0.276 OA
ENDBRANCH  10  11
BRANCH   7  16
ATOM     16  C   UNL     1       7.823   7.611  35.955  0.00  0.00    +0.414 C 
ATOM     17  O   UNL     1       8.163   8.589  36.619  0.00  0.00    -0.240 OA
ATOM     18  O   UNL     1       7.788   7.699  34.727  0.00  0.00    -0.240 OA
ENDBRANCH   7  16
BRANCH   7  19
ATOM     19  O   UNL     1       8.131   6.200  37.931  0.00  0.00    -0.343 OA
ATOM     20  C   UNL     1       9.365   5.438  37.912  0.00  0.00    +0.198 C 
ENDBRANCH   7  19
BRANCH   9  21
ATOM     21  O   UNL     1       3.737   5.884  35.916  0.00  0.00    -0.390 OA
ATOM     22  H   UNL     1       3.215   6.029  35.123  0.00  0.00    +0.210 HD
ENDBRANCH   9  21
ENDBRANCH   4   5
BRANCH   4  23
ATOM     23  O   UNL     1       7.413   3.849  32.436  0.00  0.00    -0.387 OA
ATOM     24  H   UNL     1       8.150   4.196  31.928  0.00  0.00    +0.210 HD
ENDBRANCH   4  23
ENDBRANCH   1   4
BRANCH   1  25
ATOM     25  C   UNL     1       8.417   1.392  34.073  0.00  0.00    +0.141 C 
BRANCH  25  28
ATOM     26  C   UNL     1      10.577   2.134  35.017  0.00  0.00    +0.401 C 
ATOM     27  O   UNL     1      10.285   1.822  36.174  0.00  0.00    -0.226 OA
ATOM     28  N   UNL     1       9.762   1.974  33.974  0.00  0.00    -0.279 N 
ATOM     29  H   UNL     1      10.087   2.269  33.064  0.00  0.00    +0.152 HD
BRANCH  26  30
ATOM     30  O   UNL     1      11.860   2.708  34.755  0.00  0.00    -0.444 OA
BRANCH  30  31
ATOM     31  C   UNL     1      12.673   2.618  35.928  0.00  0.00    +0.292 C 
BRANCH  31  33
ATOM     32  N   UNL     1      15.127   2.706  36.261  0.00  0.00    -0.131 NA
ATOM     33  C   UNL     1      13.997   3.223  35.685  0.00  0.00    +0.120 A 
ATOM     34  C   UNL     1      14.348   4.286  34.883  0.00  0.00    +0.137 A 
ATOM     35  N   UNL     1      15.709   4.329  34.968  0.00  0.00    -0.247 N 
ATOM     36  N   UNL     1      16.172   3.389  35.814  0.00  0.00    -0.065 NA
BRANCH  35  37
ATOM     37  C   UNL     1      16.624   5.046  34.100  0.00  0.00    +0.180 C 
BRANCH  37  38
ATOM     38  C   UNL     1      16.575   6.542  34.285  0.00  0.00    -0.025 A 
ATOM     39  C   UNL     1      16.377   7.092  35.559  0.00  0.00    +0.005 A 
ATOM     40  C   UNL     1      16.413   8.475  35.752  0.00  0.00    +0.002 A 
ATOM     41  C   UNL     1      16.627   9.327  34.669  0.00  0.00    +0.019 A 
ATOM     42  C   UNL     1      16.791   8.796  33.386  0.00  0.00    +0.052 A 
ATOM     43  C   UNL     1      16.766   7.408  33.196  0.00  0.00    +0.024 A 
BRANCH  42  44
ATOM     44  C   UNL     1      16.995   9.671  32.268  0.00  0.00    +0.099 C 
ATOM     45  N   UNL     1      17.163  10.385  31.368  0.00  0.00    -0.191 NA
ENDBRANCH  42  44
ENDBRANCH  37  38
ENDBRANCH  35  37
ENDBRANCH  31  33
ENDBRANCH  30  31
ENDBRANCH  26  30
ENDBRANCH  25  28
ENDBRANCH   1  25
TORSDOF 16
