REMARK VINA RESULT:    -5.767      6.982     12.361
REMARK INTER + INTRA:         -13.561
REMARK INTER:                 -10.992
REMARK INTRA:                  -2.569
REMARK UNBOUND:                -2.569
REMARK  Name = lig_assembled_18.pdb
REMARK  19 active torsions:
REMARK  status: ('A' for Active; 'I' for Inactive)
REMARK    1  A    between atoms: _2  and  _10
REMARK    2  A    between atoms: _3  and  _12
REMARK    3  A    between atoms: _5  and  _21
REMARK    4  A    between atoms: _7  and  _8
REMARK    5  A    between atoms: _7  and  _21
REMARK    6  A    between atoms: _10  and  _11
REMARK    7  A    between atoms: _12  and  _13
REMARK    8  A    between atoms: _17  and  _37
REMARK    9  A    between atoms: _19  and  _25
REMARK   10  A    between atoms: _20  and  _24
REMARK   11  A    between atoms: _24  and  _25
REMARK   12  A    between atoms: _27  and  _28
REMARK   13  A    between atoms: _29  and  _30
REMARK   14  A    between atoms: _31  and  _33
REMARK   15  A    between atoms: _33  and  _34
REMARK   16  A    between atoms: _33  and  _35
REMARK   17  A    between atoms: _35  and  _36
REMARK   18  A    between atoms: _35  and  _37
REMARK   19  A    between atoms: _38  and  _40
REMARK                            x       y       z     vdW  Elec       q    Type
REMARK                         _______ _______ _______ _____ _____    ______ ____
ROOT
ATOM      1  C   UNL     1      10.014   3.036  34.891  0.00  0.00    +0.163 C 
ENDROOT
BRANCH   1   2
ATOM      2  O   UNL     1       9.721   2.068  33.870  0.00  0.00    -0.388 OA
ATOM      3  H   UNL     1       9.861   1.184  34.216  0.00  0.00    +0.210 HD
ENDBRANCH   1   2
BRANCH   1   4
ATOM      4  C   UNL     1       8.800   3.249  35.811  0.00  0.00    +0.175 C 
BRANCH   4   5
ATOM      5  C   UNL     1       7.963   4.466  35.391  0.00  0.00    +0.176 C 
ATOM      6  O   UNL     1       7.690   5.254  36.582  0.00  0.00    -0.332 OA
ATOM      7  C   UNL     1       6.985   6.520  36.356  0.00  0.00    +0.277 C 
ATOM      8  C   UNL     1       5.670   6.276  35.577  0.00  0.00    +0.110 C 
ATOM      9  C   UNL     1       5.905   5.415  34.319  0.00  0.00    +0.143 C 
ATOM     10  C   UNL     1       6.647   4.124  34.667  0.00  0.00    +0.133 C 
BRANCH  10  11
ATOM     11  N   UNL     1       6.941   3.354  33.449  0.00  0.00    -0.308 N 
ATOM     12  H   UNL     1       7.595   3.749  32.788  0.00  0.00    +0.149 HD
ATOM     13  C   UNL     1       6.401   2.166  33.160  0.00  0.00    +0.210 C 
ATOM     14  C   UNL     1       5.389   1.604  34.176  0.00  0.00    +0.109 C 
ATOM     15  O   UNL     1       6.678   1.537  32.139  0.00  0.00    -0.276 OA
ENDBRANCH  10  11
BRANCH   7  16
ATOM     16  C   UNL     1       7.873   7.508  35.572  0.00  0.00    +0.414 C 
ATOM     17  O   UNL     1       7.424   8.102  34.592  0.00  0.00    -0.240 OA
ATOM     18  O   UNL     1       9.038   7.711  35.918  0.00  0.00    -0.240 OA
ENDBRANCH   7  16
BRANCH   7  19
ATOM     19  O   UNL     1       6.652   7.085  37.651  0.00  0.00    -0.343 OA
ATOM     20  C   UNL     1       6.519   6.119  38.724  0.00  0.00    +0.198 C 
ENDBRANCH   7  19
BRANCH   9  21
ATOM     21  O   UNL     1       4.651   5.089  33.717  0.00  0.00    -0.390 OA
ATOM     22  H   UNL     1       4.796   4.503  32.970  0.00  0.00    +0.210 HD
ENDBRANCH   9  21
ENDBRANCH   4   5
BRANCH   4  23
ATOM     23  O   UNL     1       9.232   3.393  37.179  0.00  0.00    -0.387 OA
ATOM     24  H   UNL     1       9.949   4.031  37.223  0.00  0.00    +0.210 HD
ENDBRANCH   4  23
ENDBRANCH   1   4
BRANCH   1  25
ATOM     25  C   UNL     1      11.207   2.572  35.721  0.00  0.00    +0.141 C 
BRANCH  25  28
ATOM     26  C   UNL     1      12.592   4.080  37.105  0.00  0.00    +0.401 C 
ATOM     27  O   UNL     1      12.170   3.638  38.176  0.00  0.00    -0.226 OA
ATOM     28  N   UNL     1      12.192   3.645  35.909  0.00  0.00    -0.279 N 
ATOM     29  H   UNL     1      12.589   4.077  35.087  0.00  0.00    +0.152 HD
BRANCH  26  30
ATOM     30  O   UNL     1      13.566   5.126  37.121  0.00  0.00    -0.444 OA
BRANCH  30  31
ATOM     31  C   UNL     1      14.736   4.701  36.417  0.00  0.00    +0.292 C 
BRANCH  31  33
ATOM     32  N   UNL     1      15.086   5.172  34.008  0.00  0.00    -0.131 NA
ATOM     33  C   UNL     1      15.027   5.621  35.301  0.00  0.00    +0.120 A 
ATOM     34  C   UNL     1      15.273   6.974  35.316  0.00  0.00    +0.137 A 
ATOM     35  N   UNL     1      15.446   7.296  34.003  0.00  0.00    -0.242 N 
ATOM     36  N   UNL     1      15.354   6.205  33.220  0.00  0.00    -0.065 NA
BRANCH  35  37
ATOM     37  C   UNL     1      15.815   8.567  33.427  0.00  0.00    +0.240 C 
BRANCH  37  38
ATOM     38  C   UNL     1      17.005   8.454  32.502  0.00  0.00    +0.235 C 
ATOM     39  O   UNL     1      17.032   9.001  31.402  0.00  0.00    -0.274 OA
ATOM     40  N   UNL     1      18.075   7.743  33.007  0.00  0.00    -0.309 N 
ATOM     41  H   UNL     1      17.962   7.172  33.833  0.00  0.00    +0.149 HD
BRANCH  40  42
ATOM     42  C   UNL     1      19.292   7.563  32.242  0.00  0.00    +0.146 C 
BRANCH  42  43
ATOM     43  C   UNL     1      19.214   6.287  31.468  0.00  0.00    +0.007 A 
ATOM     44  S   UNL     1      19.201   6.302  29.755  0.00  0.00    -0.100 S 
ATOM     45  C   UNL     1      19.040   4.601  29.676  0.00  0.00    +0.045 A 
ATOM     46  C   UNL     1      19.012   4.025  30.927  0.00  0.00    +0.008 A 
ATOM     47  C   UNL     1      19.121   4.999  31.961  0.00  0.00    +0.013 A 
ENDBRANCH  42  43
ENDBRANCH  40  42
ENDBRANCH  37  38
ENDBRANCH  35  37
ENDBRANCH  31  33
ENDBRANCH  30  31
ENDBRANCH  26  30
ENDBRANCH  25  28
ENDBRANCH   1  25
TORSDOF 17
