REMARK VINA RESULT:    -5.112      2.292      7.508
REMARK INTER + INTRA:         -12.106
REMARK INTER:                  -9.296
REMARK INTRA:                  -2.810
REMARK UNBOUND:                -2.810
REMARK  Name = lig_assembled_53.pdb
REMARK  18 active torsions:
REMARK  status: ('A' for Active; 'I' for Inactive)
REMARK    1  A    between atoms: _2  and  _9
REMARK    2  A    between atoms: _4  and  _16
REMARK    3  A    between atoms: _5  and  _9
REMARK    4  A    between atoms: _5  and  _10
REMARK    5  A    between atoms: _6  and  _7
REMARK    6  A    between atoms: _6  and  _16
REMARK    7  A    between atoms: _12  and  _32
REMARK    8  A    between atoms: _14  and  _20
REMARK    9  A    between atoms: _15  and  _19
REMARK   10  A    between atoms: _19  and  _20
REMARK   11  A    between atoms: _22  and  _23
REMARK   12  A    between atoms: _24  and  _25
REMARK   13  A    between atoms: _26  and  _28
REMARK   14  A    between atoms: _28  and  _29
REMARK   15  A    between atoms: _28  and  _30
REMARK   16  A    between atoms: _30  and  _31
REMARK   17  A    between atoms: _30  and  _32
REMARK   18  A    between atoms: _33  and  _35
REMARK                            x       y       z     vdW  Elec       q    Type
REMARK                         _______ _______ _______ _____ _____    ______ ____
ROOT
ATOM      1  C   UNL     1      16.617   0.431  25.893  0.00  0.00    +0.175 C 
ENDROOT
BRANCH   1   2
ATOM      2  C   UNL     1      17.516   0.287  24.657  0.00  0.00    +0.176 C 
ATOM      3  O   UNL     1      17.112   1.295  23.690  0.00  0.00    -0.332 OA
ATOM      4  C   UNL     1      17.935   1.378  22.479  0.00  0.00    +0.277 C 
ATOM      5  C   UNL     1      18.020  -0.005  21.788  0.00  0.00    +0.110 C 
ATOM      6  C   UNL     1      18.415  -1.116  22.784  0.00  0.00    +0.143 C 
ATOM      7  C   UNL     1      17.497  -1.109  24.006  0.00  0.00    +0.133 C 
BRANCH   7   8
ATOM      8  N   UNL     1      17.937  -2.114  24.987  0.00  0.00    -0.308 N 
ATOM      9  H   UNL     1      18.882  -2.049  25.338  0.00  0.00    +0.149 HD
ATOM     10  C   UNL     1      17.169  -3.108  25.442  0.00  0.00    +0.210 C 
ATOM     11  C   UNL     1      15.743  -3.196  24.868  0.00  0.00    +0.109 C 
ATOM     12  O   UNL     1      17.560  -3.927  26.275  0.00  0.00    -0.276 OA
ENDBRANCH   7   8
BRANCH   4  13
ATOM     13  C   UNL     1      19.356   1.875  22.816  0.00  0.00    +0.414 C 
ATOM     14  O   UNL     1      19.564   2.502  23.854  0.00  0.00    -0.240 OA
ATOM     15  O   UNL     1      20.294   1.648  22.051  0.00  0.00    -0.240 OA
ENDBRANCH   4  13
BRANCH   4  16
ATOM     16  O   UNL     1      17.296   2.307  21.566  0.00  0.00    -0.343 OA
ATOM     17  C   UNL     1      16.826   3.537  22.173  0.00  0.00    +0.198 C 
ENDBRANCH   4  16
BRANCH   6  18
ATOM     18  O   UNL     1      18.335  -2.389  22.141  0.00  0.00    -0.390 OA
ATOM     19  H   UNL     1      18.807  -2.358  21.307  0.00  0.00    +0.210 HD
ENDBRANCH   6  18
ENDBRANCH   1   2
BRANCH   1  20
ATOM     20  O   UNL     1      15.266   0.738  25.493  0.00  0.00    -0.387 OA
ATOM     21  H   UNL     1      14.960   0.078  24.866  0.00  0.00    +0.210 HD
ENDBRANCH   1  20
BRANCH   1  22
ATOM     22  C   UNL     1      17.138   1.504  26.866  0.00  0.00    +0.163 C 
BRANCH  22  23
ATOM     23  O   UNL     1      17.533   2.690  26.158  0.00  0.00    -0.388 OA
ATOM     24  H   UNL     1      17.267   3.466  26.658  0.00  0.00    +0.210 HD
ENDBRANCH  22  23
BRANCH  22  25
ATOM     25  C   UNL     1      18.320   0.948  27.652  0.00  0.00    +0.141 C 
BRANCH  25  28
ATOM     26  C   UNL     1      20.071   2.254  28.806  0.00  0.00    +0.401 C 
ATOM     27  O   UNL     1      19.764   1.851  29.930  0.00  0.00    -0.226 OA
ATOM     28  N   UNL     1      19.446   1.889  27.686  0.00  0.00    -0.279 N 
ATOM     29  H   UNL     1      19.766   2.281  26.811  0.00  0.00    +0.152 HD
BRANCH  26  30
ATOM     30  O   UNL     1      21.159   3.173  28.671  0.00  0.00    -0.444 OA
BRANCH  30  31
ATOM     31  C   UNL     1      20.757   4.461  29.145  0.00  0.00    +0.292 C 
BRANCH  31  33
ATOM     32  N   UNL     1      21.319   6.137  27.409  0.00  0.00    -0.131 NA
ATOM     33  C   UNL     1      20.389   5.336  28.016  0.00  0.00    +0.120 A 
ATOM     34  C   UNL     1      19.171   5.515  27.401  0.00  0.00    +0.137 A 
ATOM     35  N   UNL     1      19.406   6.483  26.471  0.00  0.00    -0.241 N 
ATOM     36  N   UNL     1      20.711   6.820  26.450  0.00  0.00    -0.065 NA
BRANCH  35  37
ATOM     37  C   UNL     1      18.533   7.043  25.461  0.00  0.00    +0.265 C 
BRANCH  37  38
ATOM     38  C   UNL     1      18.598   6.377  24.113  0.00  0.00    +0.326 C 
ATOM     39  O   UNL     1      17.859   6.579  23.161  0.00  0.00    -0.249 OA
BRANCH  38  40
ATOM     40  O   UNL     1      19.600   5.462  24.032  0.00  0.00    -0.479 OA
ATOM     41  H   UNL     1      19.484   4.759  23.365  0.00  0.00    +0.295 HD
ENDBRANCH  38  40
ENDBRANCH  37  38
ENDBRANCH  35  37
ENDBRANCH  31  33
ENDBRANCH  30  31
ENDBRANCH  26  30
ENDBRANCH  25  28
ENDBRANCH  22  25
ENDBRANCH   1  22
TORSDOF 16
