REMARK VINA RESULT:    -6.543     12.920     15.298
REMARK INTER + INTRA:         -14.879
REMARK INTER:                 -11.425
REMARK INTRA:                  -3.454
REMARK UNBOUND:                -2.597
REMARK  Name = lig_assembled_77.pdb
REMARK  19 active torsions:
REMARK  status: ('A' for Active; 'I' for Inactive)
REMARK    1  A    between atoms: _2  and  _10
REMARK    2  A    between atoms: _3  and  _17
REMARK    3  A    between atoms: _5  and  _27
REMARK    4  A    between atoms: _7  and  _8
REMARK    5  A    between atoms: _7  and  _27
REMARK    6  A    between atoms: _13  and  _47
REMARK    7  A    between atoms: _14  and  _47
REMARK    8  A    between atoms: _23  and  _43
REMARK    9  A    between atoms: _25  and  _31
REMARK   10  A    between atoms: _26  and  _30
REMARK   11  A    between atoms: _30  and  _31
REMARK   12  A    between atoms: _33  and  _34
REMARK   13  A    between atoms: _35  and  _36
REMARK   14  A    between atoms: _37  and  _39
REMARK   15  A    between atoms: _39  and  _40
REMARK   16  A    between atoms: _39  and  _41
REMARK   17  A    between atoms: _41  and  _42
REMARK   18  A    between atoms: _41  and  _43
REMARK   19  A    between atoms: _44  and  _46
REMARK                            x       y       z     vdW  Elec       q    Type
REMARK                         _______ _______ _______ _____ _____    ______ ____
ROOT
ATOM      1  C   UNL     1      18.279  10.920  29.004  0.00  0.00    +0.401 C 
ATOM      2  O   UNL     1      17.156  10.729  29.477  0.00  0.00    -0.226 OA
ATOM      3  N   UNL     1      19.398  10.951  29.729  0.00  0.00    -0.279 N 
ATOM      4  H   UNL     1      20.273  11.105  29.248  0.00  0.00    +0.152 HD
ENDROOT
BRANCH   3   5
ATOM      5  C   UNL     1      19.429  10.775  31.186  0.00  0.00    +0.141 C 
BRANCH   5   6
ATOM      6  C   UNL     1      19.982   9.410  31.582  0.00  0.00    +0.163 C 
BRANCH   6   7
ATOM      7  O   UNL     1      20.440   9.441  32.944  0.00  0.00    -0.388 OA
ATOM      8  H   UNL     1      20.873  10.280  33.117  0.00  0.00    +0.210 HD
ENDBRANCH   6   7
BRANCH   6   9
ATOM      9  C   UNL     1      18.894   8.340  31.391  0.00  0.00    +0.175 C 
BRANCH   9  10
ATOM     10  C   UNL     1      18.921   7.283  32.506  0.00  0.00    +0.176 C 
ATOM     11  O   UNL     1      19.076   5.979  31.882  0.00  0.00    -0.332 OA
ATOM     12  C   UNL     1      19.228   4.849  32.804  0.00  0.00    +0.277 C 
ATOM     13  C   UNL     1      18.053   4.811  33.812  0.00  0.00    +0.110 C 
ATOM     14  C   UNL     1      17.829   6.185  34.478  0.00  0.00    +0.143 C 
ATOM     15  C   UNL     1      17.687   7.287  33.427  0.00  0.00    +0.133 C 
BRANCH  15  16
ATOM     16  N   UNL     1      17.561   8.603  34.075  0.00  0.00    -0.308 N 
ATOM     17  H   UNL     1      18.355   8.951  34.593  0.00  0.00    +0.149 HD
ATOM     18  C   UNL     1      16.466   9.366  34.021  0.00  0.00    +0.210 C 
ATOM     19  C   UNL     1      15.264   8.796  33.245  0.00  0.00    +0.109 C 
ATOM     20  O   UNL     1      16.394  10.471  34.561  0.00  0.00    -0.276 OA
ENDBRANCH  15  16
BRANCH  12  21
ATOM     21  C   UNL     1      20.563   4.946  33.572  0.00  0.00    +0.414 C 
ATOM     22  O   UNL     1      21.567   5.391  33.016  0.00  0.00    -0.240 OA
ATOM     23  O   UNL     1      20.636   4.580  34.745  0.00  0.00    -0.240 OA
ENDBRANCH  12  21
BRANCH  14  24
ATOM     24  O   UNL     1      16.649   6.145  35.280  0.00  0.00    -0.390 OA
ATOM     25  H   UNL     1      16.224   7.006  35.270  0.00  0.00    +0.210 HD
ENDBRANCH  14  24
BRANCH  12  26
ATOM     26  O   UNL     1      19.201   3.626  32.024  0.00  0.00    -0.343 OA
ATOM     27  C   UNL     1      19.364   3.809  30.594  0.00  0.00    +0.198 C 
ENDBRANCH  12  26
ENDBRANCH   9  10
BRANCH   9  28
ATOM     28  O   UNL     1      19.038   7.707  30.104  0.00  0.00    -0.387 OA
ATOM     29  H   UNL     1      19.774   8.105  29.633  0.00  0.00    +0.210 HD
ENDBRANCH   9  28
ENDBRANCH   6   9
ENDBRANCH   5   6
ENDBRANCH   3   5
BRANCH   1  30
ATOM     30  O   UNL     1      18.414  11.118  27.594  0.00  0.00    -0.444 OA
BRANCH  30  31
ATOM     31  C   UNL     1      19.751  10.806  27.194  0.00  0.00    +0.292 C 
BRANCH  31  33
ATOM     32  N   UNL     1      20.902   8.745  27.928  0.00  0.00    -0.131 NA
ATOM     33  C   UNL     1      19.951   9.345  27.156  0.00  0.00    +0.121 A 
ATOM     34  C   UNL     1      19.294   8.383  26.423  0.00  0.00    +0.143 A 
ATOM     35  N   UNL     1      19.880   7.193  26.793  0.00  0.00    -0.220 N 
ATOM     36  N   UNL     1      20.860   7.441  27.696  0.00  0.00    -0.060 NA
BRANCH  35  37
ATOM     37  C   UNL     1      19.537   5.871  26.401  0.00  0.00    +0.067 A 
ATOM     38  C   UNL     1      20.030   5.323  25.207  0.00  0.00    +0.030 A 
ATOM     39  C   UNL     1      19.587   4.069  24.777  0.00  0.00    +0.029 A 
ATOM     40  C   UNL     1      18.657   3.362  25.544  0.00  0.00    +0.094 A 
ATOM     41  C   UNL     1      18.231   3.858  26.779  0.00  0.00    +0.029 A 
ATOM     42  C   UNL     1      18.662   5.118  27.202  0.00  0.00    +0.030 A 
BRANCH  40  43
ATOM     43  S   UNL     1      18.041   1.796  24.960  0.00  0.00    +0.025 S 
ATOM     44  O   UNL     1      19.151   0.863  25.060  0.00  0.00    -0.164 OA
ATOM     45  O   UNL     1      16.792   1.537  25.651  0.00  0.00    -0.164 OA
BRANCH  43  46
ATOM     46  C   UNL     1      17.638   1.943  23.232  0.00  0.00    +0.094 A 
ATOM     47  C   UNL     1      16.807   2.966  22.772  0.00  0.00    +0.029 A 
ATOM     48  C   UNL     1      16.461   3.015  21.416  0.00  0.00    +0.024 A 
ATOM     49  C   UNL     1      16.972   2.081  20.505  0.00  0.00    +0.025 A 
ATOM     50  C   UNL     1      17.777   1.046  20.990  0.00  0.00    +0.024 A 
ATOM     51  C   UNL     1      18.130   0.984  22.341  0.00  0.00    +0.029 A 
BRANCH  49  52
ATOM     52  N   UNL     1      16.486   2.037  19.196  0.00  0.00    -0.358 N 
ATOM     53  H   UNL     1      16.713   2.849  18.631  0.00  0.00    +0.142 HD
ATOM     54  H   UNL     1      16.664   1.164  18.711  0.00  0.00    +0.142 HD
ENDBRANCH  49  52
ENDBRANCH  43  46
ENDBRANCH  40  43
ENDBRANCH  35  37
ENDBRANCH  31  33
ENDBRANCH  30  31
ENDBRANCH   1  30
TORSDOF 17
