REMARK VINA RESULT:    -5.955      6.690      9.888
REMARK INTER + INTRA:         -14.191
REMARK INTER:                  -9.781
REMARK INTRA:                  -4.410
REMARK UNBOUND:                -3.014
REMARK  Name = lig_assembled_75.pdb
REMARK  19 active torsions:
REMARK  status: ('A' for Active; 'I' for Inactive)
REMARK    1  A    between atoms: _2  and  _9
REMARK    2  A    between atoms: _4  and  _23
REMARK    3  A    between atoms: _6  and  _7
REMARK    4  A    between atoms: _6  and  _23
REMARK    5  A    between atoms: _11  and  _12
REMARK    6  A    between atoms: _13  and  _14
REMARK    7  A    between atoms: _14  and  _17
REMARK    8  A    between atoms: _19  and  _39
REMARK    9  A    between atoms: _21  and  _27
REMARK   10  A    between atoms: _22  and  _26
REMARK   11  A    between atoms: _26  and  _27
REMARK   12  A    between atoms: _29  and  _30
REMARK   13  A    between atoms: _31  and  _32
REMARK   14  A    between atoms: _33  and  _35
REMARK   15  A    between atoms: _35  and  _36
REMARK   16  A    between atoms: _35  and  _37
REMARK   17  A    between atoms: _37  and  _38
REMARK   18  A    between atoms: _37  and  _39
REMARK   19  A    between atoms: _40  and  _42
REMARK                            x       y       z     vdW  Elec       q    Type
REMARK                         _______ _______ _______ _____ _____    ______ ____
ROOT
ATOM      1  C   UNL     1      -1.873  -1.479  26.261  0.00  0.00    +0.141 C 
ENDROOT
BRANCH   1   4
ATOM      2  C   UNL     1       0.005  -2.669  25.184  0.00  0.00    +0.401 C 
ATOM      3  O   UNL     1      -0.681  -3.110  24.259  0.00  0.00    -0.226 OA
ATOM      4  N   UNL     1      -0.471  -1.904  26.167  0.00  0.00    -0.279 N 
ATOM      5  H   UNL     1       0.169  -1.599  26.887  0.00  0.00    +0.152 HD
BRANCH   2   6
ATOM      6  O   UNL     1       1.399  -2.988  25.229  0.00  0.00    -0.444 OA
BRANCH   6   7
ATOM      7  C   UNL     1       2.018  -2.598  24.000  0.00  0.00    +0.292 C 
BRANCH   7   9
ATOM      8  N   UNL     1       2.756  -0.444  24.964  0.00  0.00    -0.131 NA
ATOM      9  C   UNL     1       2.167  -1.132  23.943  0.00  0.00    +0.121 A 
ATOM     10  C   UNL     1       1.786  -0.246  22.962  0.00  0.00    +0.143 A 
ATOM     11  N   UNL     1       2.165   0.990  23.431  0.00  0.00    -0.220 N 
ATOM     12  N   UNL     1       2.750   0.844  24.648  0.00  0.00    -0.060 NA
BRANCH  11  13
ATOM     13  C   UNL     1       1.989   2.263  22.833  0.00  0.00    +0.068 A 
ATOM     14  C   UNL     1       1.850   2.354  21.437  0.00  0.00    +0.035 A 
ATOM     15  C   UNL     1       1.740   3.602  20.806  0.00  0.00    -0.023 A 
ATOM     16  C   UNL     1       1.707   4.756  21.598  0.00  0.00    +0.008 A 
ATOM     17  C   UNL     1       1.821   4.670  22.988  0.00  0.00    +0.003 A 
ATOM     18  C   UNL     1       1.971   3.429  23.606  0.00  0.00    +0.028 A 
BRANCH  15  19
ATOM     19  C   UNL     1       1.640   3.742  19.345  0.00  0.00    +0.015 C 
ATOM     20  C   UNL     1       1.247   2.754  18.525  0.00  0.00    +0.092 C 
BRANCH  20  21
ATOM     21  C   UNL     1       1.229   2.976  17.068  0.00  0.00    +0.330 C 
ATOM     22  O   UNL     1       1.358   2.101  16.230  0.00  0.00    -0.246 OA
BRANCH  21  23
ATOM     23  O   UNL     1       1.038   4.274  16.758  0.00  0.00    -0.478 OA
ATOM     24  H   UNL     1       0.509   4.786  17.396  0.00  0.00    +0.295 HD
ENDBRANCH  21  23
ENDBRANCH  20  21
ENDBRANCH  15  19
ENDBRANCH  11  13
ENDBRANCH   7   9
ENDBRANCH   6   7
ENDBRANCH   2   6
ENDBRANCH   1   4
BRANCH   1  25
ATOM     25  C   UNL     1      -2.148  -0.233  25.427  0.00  0.00    +0.163 C 
BRANCH  25  26
ATOM     26  O   UNL     1      -3.564  -0.006  25.333  0.00  0.00    -0.388 OA
ATOM     27  H   UNL     1      -3.991  -0.790  24.981  0.00  0.00    +0.210 HD
ENDBRANCH  25  26
BRANCH  25  28
ATOM     28  C   UNL     1      -1.438   0.976  26.060  0.00  0.00    +0.175 C 
BRANCH  28  29
ATOM     29  C   UNL     1      -1.907   2.306  25.452  0.00  0.00    +0.176 C 
ATOM     30  O   UNL     1      -2.010   2.128  24.012  0.00  0.00    -0.332 OA
ATOM     31  C   UNL     1      -2.549   3.270  23.269  0.00  0.00    +0.277 C 
ATOM     32  C   UNL     1      -1.737   4.551  23.581  0.00  0.00    +0.110 C 
ATOM     33  C   UNL     1      -1.574   4.766  25.100  0.00  0.00    +0.143 C 
ATOM     34  C   UNL     1      -1.009   3.515  25.774  0.00  0.00    +0.133 C 
BRANCH  34  35
ATOM     35  N   UNL     1      -0.940   3.701  27.232  0.00  0.00    -0.308 N 
ATOM     36  H   UNL     1      -1.806   3.852  27.730  0.00  0.00    +0.149 HD
ATOM     37  C   UNL     1       0.192   3.684  27.940  0.00  0.00    +0.210 C 
ATOM     38  C   UNL     1       1.498   3.478  27.149  0.00  0.00    +0.109 C 
ATOM     39  O   UNL     1       0.218   3.828  29.163  0.00  0.00    -0.276 OA
ENDBRANCH  34  35
BRANCH  31  40
ATOM     40  C   UNL     1      -4.033   3.502  23.622  0.00  0.00    +0.414 C 
ATOM     41  O   UNL     1      -4.730   2.567  24.013  0.00  0.00    -0.240 OA
ATOM     42  O   UNL     1      -4.532   4.623  23.517  0.00  0.00    -0.240 OA
ENDBRANCH  31  40
BRANCH  31  43
ATOM     43  O   UNL     1      -2.424   2.983  21.852  0.00  0.00    -0.343 OA
ATOM     44  C   UNL     1      -1.944   4.087  21.044  0.00  0.00    +0.198 C 
ENDBRANCH  31  43
BRANCH  33  45
ATOM     45  O   UNL     1      -0.696   5.866  25.340  0.00  0.00    -0.390 OA
ATOM     46  H   UNL     1      -1.194   6.686  25.309  0.00  0.00    +0.210 HD
ENDBRANCH  33  45
ENDBRANCH  28  29
BRANCH  28  47
ATOM     47  O   UNL     1      -0.009   0.843  25.920  0.00  0.00    -0.387 OA
ATOM     48  H   UNL     1       0.263   1.192  25.068  0.00  0.00    +0.210 HD
ENDBRANCH  28  47
ENDBRANCH  25  28
ENDBRANCH   1  25
TORSDOF 17
