REMARK VINA RESULT:    -6.928      1.928      3.047
REMARK INTER + INTRA:         -14.208
REMARK INTER:                 -11.949
REMARK INTRA:                  -2.259
REMARK UNBOUND:                -1.813
REMARK  Name = lig_assembled_41.pdb
REMARK  18 active torsions:
REMARK  status: ('A' for Active; 'I' for Inactive)
REMARK    1  A    between atoms: _2  and  _9
REMARK    2  A    between atoms: _4  and  _21
REMARK    3  A    between atoms: _6  and  _7
REMARK    4  A    between atoms: _6  and  _21
REMARK    5  A    between atoms: _10  and  _11
REMARK    6  A    between atoms: _11  and  _12
REMARK    7  A    between atoms: _17  and  _37
REMARK    8  A    between atoms: _19  and  _25
REMARK    9  A    between atoms: _20  and  _24
REMARK   10  A    between atoms: _24  and  _25
REMARK   11  A    between atoms: _27  and  _28
REMARK   12  A    between atoms: _29  and  _30
REMARK   13  A    between atoms: _31  and  _33
REMARK   14  A    between atoms: _33  and  _34
REMARK   15  A    between atoms: _33  and  _35
REMARK   16  A    between atoms: _35  and  _36
REMARK   17  A    between atoms: _35  and  _37
REMARK   18  A    between atoms: _38  and  _40
REMARK                            x       y       z     vdW  Elec       q    Type
REMARK                         _______ _______ _______ _____ _____    ______ ____
ROOT
ATOM      1  C   UNL     1       3.637   3.282  33.062  0.00  0.00    +0.163 C 
ENDROOT
BRANCH   1   2
ATOM      2  O   UNL     1       3.747   4.592  32.483  0.00  0.00    -0.388 OA
ATOM      3  H   UNL     1       4.486   5.057  32.882  0.00  0.00    +0.210 HD
ENDBRANCH   1   2
BRANCH   1   4
ATOM      4  C   UNL     1       2.545   2.488  32.353  0.00  0.00    +0.141 C 
BRANCH   4   7
ATOM      5  C   UNL     1       0.739   3.718  31.199  0.00  0.00    +0.401 C 
ATOM      6  O   UNL     1      -0.067   3.592  32.124  0.00  0.00    -0.226 OA
ATOM      7  N   UNL     1       1.979   3.228  31.218  0.00  0.00    -0.279 N 
ATOM      8  H   UNL     1       2.563   3.375  30.407  0.00  0.00    +0.152 HD
BRANCH   5   9
ATOM      9  O   UNL     1       0.339   4.425  30.022  0.00  0.00    -0.444 OA
BRANCH   9  10
ATOM     10  C   UNL     1      -0.171   3.499  29.059  0.00  0.00    +0.292 C 
BRANCH  10  12
ATOM     11  N   UNL     1       1.951   3.702  27.818  0.00  0.00    -0.131 NA
ATOM     12  C   UNL     1       0.593   3.591  27.802  0.00  0.00    +0.121 A 
ATOM     13  C   UNL     1       0.160   3.567  26.494  0.00  0.00    +0.143 A 
ATOM     14  N   UNL     1       1.290   3.776  25.737  0.00  0.00    -0.219 N 
ATOM     15  N   UNL     1       2.373   3.759  26.564  0.00  0.00    -0.060 NA
BRANCH  14  16
ATOM     16  C   UNL     1       1.460   3.878  24.327  0.00  0.00    +0.077 A 
ATOM     17  C   UNL     1       1.729   2.792  23.468  0.00  0.00    +0.043 A 
ATOM     18  C   UNL     1       1.925   3.045  22.094  0.00  0.00    +0.013 A 
ATOM     19  C   UNL     1       1.864   4.342  21.579  0.00  0.00    +0.001 A 
ATOM     20  C   UNL     1       1.574   5.407  22.419  0.00  0.00    +0.002 A 
ATOM     21  C   UNL     1       1.363   5.177  23.777  0.00  0.00    +0.028 A 
BRANCH  17  22
ATOM     22  C   UNL     1       1.616   1.359  23.877  0.00  0.00    +0.162 C 
ATOM     23  O   UNL     1       0.586   0.739  23.620  0.00  0.00    -0.292 OA
ATOM     24  C   UNL     1       2.757   0.680  24.596  0.00  0.00    +0.091 C 
ENDBRANCH  17  22
ENDBRANCH  14  16
ENDBRANCH  10  12
ENDBRANCH   9  10
ENDBRANCH   5   9
ENDBRANCH   4   7
ENDBRANCH   1   4
BRANCH   1  25
ATOM     25  C   UNL     1       3.315   3.369  34.564  0.00  0.00    +0.175 C 
BRANCH  25  26
ATOM     26  C   UNL     1       4.165   4.432  35.276  0.00  0.00    +0.176 C 
ATOM     27  O   UNL     1       5.512   4.364  34.733  0.00  0.00    -0.332 OA
ATOM     28  C   UNL     1       6.445   5.383  35.223  0.00  0.00    +0.277 C 
ATOM     29  C   UNL     1       6.503   5.366  36.770  0.00  0.00    +0.110 C 
ATOM     30  C   UNL     1       5.091   5.404  37.393  0.00  0.00    +0.143 C 
ATOM     31  C   UNL     1       4.204   4.304  36.810  0.00  0.00    +0.133 C 
BRANCH  31  32
ATOM     32  N   UNL     1       2.838   4.405  37.347  0.00  0.00    -0.308 N 
ATOM     33  H   UNL     1       2.275   5.192  37.057  0.00  0.00    +0.149 HD
ATOM     34  C   UNL     1       2.294   3.525  38.192  0.00  0.00    +0.210 C 
ATOM     35  C   UNL     1       3.187   2.351  38.635  0.00  0.00    +0.109 C 
ATOM     36  O   UNL     1       1.141   3.628  38.614  0.00  0.00    -0.276 OA
ENDBRANCH  31  32
BRANCH  28  37
ATOM     37  C   UNL     1       6.025   6.787  34.739  0.00  0.00    +0.414 C 
ATOM     38  O   UNL     1       6.627   7.785  35.133  0.00  0.00    -0.240 OA
ATOM     39  O   UNL     1       5.085   6.921  33.954  0.00  0.00    -0.240 OA
ENDBRANCH  28  37
BRANCH  30  40
ATOM     40  O   UNL     1       5.185   5.234  38.808  0.00  0.00    -0.390 OA
ATOM     41  H   UNL     1       6.096   5.351  39.086  0.00  0.00    +0.210 HD
ENDBRANCH  30  40
BRANCH  28  42
ATOM     42  O   UNL     1       7.766   5.066  34.712  0.00  0.00    -0.343 OA
ATOM     43  C   UNL     1       7.796   4.035  33.693  0.00  0.00    +0.198 C 
ENDBRANCH  28  42
ENDBRANCH  25  26
BRANCH  25  44
ATOM     44  O   UNL     1       3.502   2.083  35.188  0.00  0.00    -0.387 OA
ATOM     45  H   UNL     1       3.172   1.394  34.607  0.00  0.00    +0.210 HD
ENDBRANCH  25  44
ENDBRANCH   1  25
TORSDOF 15
