REMARK VINA RESULT:    -6.702      1.347      3.442
REMARK INTER + INTRA:         -14.589
REMARK INTER:                 -13.637
REMARK INTRA:                  -0.952
REMARK UNBOUND:                -2.597
REMARK  Name = lig_assembled_89.pdb
REMARK  19 active torsions:
REMARK  status: ('A' for Active; 'I' for Inactive)
REMARK    1  A    between atoms: _2  and  _12
REMARK    2  A    between atoms: _5  and  _20
REMARK    3  A    between atoms: _7  and  _29
REMARK    4  A    between atoms: _9  and  _10
REMARK    5  A    between atoms: _9  and  _29
REMARK    6  A    between atoms: _20  and  _21
REMARK    7  A    between atoms: _20  and  _22
REMARK    8  A    between atoms: _25  and  _45
REMARK    9  A    between atoms: _27  and  _33
REMARK   10  A    between atoms: _28  and  _32
REMARK   11  A    between atoms: _32  and  _33
REMARK   12  A    between atoms: _35  and  _36
REMARK   13  A    between atoms: _37  and  _38
REMARK   14  A    between atoms: _39  and  _41
REMARK   15  A    between atoms: _41  and  _42
REMARK   16  A    between atoms: _41  and  _43
REMARK   17  A    between atoms: _43  and  _44
REMARK   18  A    between atoms: _43  and  _45
REMARK   19  A    between atoms: _46  and  _48
REMARK                            x       y       z     vdW  Elec       q    Type
REMARK                         _______ _______ _______ _____ _____    ______ ____
ROOT
ATOM      1  C   UNL     1       3.543   2.426  31.461  0.00  0.00    +0.401 C 
ATOM      2  O   UNL     1       3.006   1.614  32.219  0.00  0.00    -0.226 OA
ATOM      3  N   UNL     1       4.567   3.206  31.809  0.00  0.00    -0.279 N 
ATOM      4  H   UNL     1       4.946   3.834  31.115  0.00  0.00    +0.152 HD
ENDROOT
BRANCH   3   5
ATOM      5  C   UNL     1       5.175   3.204  33.146  0.00  0.00    +0.141 C 
BRANCH   5   6
ATOM      6  C   UNL     1       6.696   3.295  33.078  0.00  0.00    +0.163 C 
BRANCH   6   7
ATOM      7  O   UNL     1       7.117   3.504  31.720  0.00  0.00    -0.388 OA
ATOM      8  H   UNL     1       6.641   2.903  31.141  0.00  0.00    +0.210 HD
ENDBRANCH   6   7
BRANCH   6   9
ATOM      9  C   UNL     1       7.183   4.437  33.987  0.00  0.00    +0.175 C 
BRANCH   9  10
ATOM     10  C   UNL     1       8.220   3.957  35.013  0.00  0.00    +0.176 C 
ATOM     11  O   UNL     1       8.037   2.526  35.198  0.00  0.00    -0.332 OA
ATOM     12  C   UNL     1       9.015   1.870  36.071  0.00  0.00    +0.277 C 
ATOM     13  C   UNL     1       9.069   2.573  37.449  0.00  0.00    +0.110 C 
ATOM     14  C   UNL     1       9.231   4.101  37.303  0.00  0.00    +0.143 C 
ATOM     15  C   UNL     1       8.164   4.679  36.372  0.00  0.00    +0.133 C 
BRANCH  15  16
ATOM     16  N   UNL     1       8.382   6.121  36.172  0.00  0.00    -0.308 N 
ATOM     17  H   UNL     1       9.142   6.404  35.569  0.00  0.00    +0.149 HD
ATOM     18  C   UNL     1       7.641   7.079  36.734  0.00  0.00    +0.210 C 
ATOM     19  C   UNL     1       6.506   6.615  37.668  0.00  0.00    +0.109 C 
ATOM     20  O   UNL     1       7.837   8.278  36.537  0.00  0.00    -0.276 OA
ENDBRANCH  15  16
BRANCH  12  21
ATOM     21  C   UNL     1      10.418   1.886  35.429  0.00  0.00    +0.414 C 
ATOM     22  O   UNL     1      11.418   1.688  36.119  0.00  0.00    -0.240 OA
ATOM     23  O   UNL     1      10.551   2.095  34.223  0.00  0.00    -0.240 OA
ENDBRANCH  12  21
BRANCH  14  24
ATOM     24  O   UNL     1       9.123   4.722  38.584  0.00  0.00    -0.390 OA
ATOM     25  H   UNL     1       8.201   4.909  38.774  0.00  0.00    +0.210 HD
ENDBRANCH  14  24
BRANCH  12  26
ATOM     26  O   UNL     1       8.587   0.498  36.273  0.00  0.00    -0.343 OA
ATOM     27  C   UNL     1       8.095  -0.171  35.085  0.00  0.00    +0.198 C 
ENDBRANCH  12  26
ENDBRANCH   9  10
BRANCH   9  28
ATOM     28  O   UNL     1       6.064   5.048  34.660  0.00  0.00    -0.387 OA
ATOM     29  H   UNL     1       5.372   5.238  34.023  0.00  0.00    +0.210 HD
ENDBRANCH   9  28
ENDBRANCH   6   9
ENDBRANCH   5   6
ENDBRANCH   3   5
BRANCH   1  30
ATOM     30  O   UNL     1       3.057   2.554  30.123  0.00  0.00    -0.444 OA
BRANCH  30  31
ATOM     31  C   UNL     1       1.716   3.050  30.146  0.00  0.00    +0.292 C 
BRANCH  31  33
ATOM     32  N   UNL     1       0.004   3.831  28.553  0.00  0.00    -0.131 NA
ATOM     33  C   UNL     1       1.265   3.365  28.780  0.00  0.00    +0.121 A 
ATOM     34  C   UNL     1       1.938   3.294  27.585  0.00  0.00    +0.145 A 
ATOM     35  N   UNL     1       1.045   3.758  26.637  0.00  0.00    -0.199 N 
ATOM     36  N   UNL     1      -0.117   4.073  27.255  0.00  0.00    -0.059 NA
BRANCH  35  37
ATOM     37  C   UNL     1       1.330   3.967  25.256  0.00  0.00    +0.186 A 
ATOM     38  C   UNL     1       1.478   3.049  24.237  0.00  0.00    +0.158 A 
ATOM     39  C   UNL     1       1.530   1.620  24.206  0.00  0.00    +0.280 A 
ATOM     40  O   UNL     1       1.790   0.951  25.197  0.00  0.00    -0.265 OA
ATOM     41  N   UNL     1       1.294   1.037  22.944  0.00  0.00    -0.302 N 
ATOM     42  C   UNL     1       1.462   1.820  21.740  0.00  0.00    +0.069 A 
ATOM     43  C   UNL     1       1.515   1.243  20.462  0.00  0.00    +0.028 A 
ATOM     44  C   UNL     1       1.730   2.027  19.321  0.00  0.00    +0.002 A 
ATOM     45  C   UNL     1       1.885   3.405  19.428  0.00  0.00    +0.002 A 
ATOM     46  C   UNL     1       1.824   4.012  20.678  0.00  0.00    +0.028 A 
ATOM     47  C   UNL     1       1.623   3.220  21.819  0.00  0.00    +0.072 A 
ATOM     48  N   UNL     1       1.566   3.801  23.096  0.00  0.00    -0.291 N 
ATOM     49  C   UNL     1       1.582   5.119  23.475  0.00  0.00    +0.207 A 
ATOM     50  N   UNL     1       1.429   5.259  24.774  0.00  0.00    -0.216 NA
BRANCH  41  51
ATOM     51  C   UNL     1       1.081  -0.428  22.886  0.00  0.00    +0.085 C 
ATOM     52  C   UNL     1      -0.263  -0.883  23.489  0.00  0.00    +0.030 C 
ATOM     53  C   UNL     1       2.238  -1.197  23.521  0.00  0.00    +0.030 C 
ENDBRANCH  41  51
ENDBRANCH  35  37
ENDBRANCH  31  33
ENDBRANCH  30  31
ENDBRANCH   1  30
TORSDOF 15
