REMARK VINA RESULT:    -5.881      1.820      2.658
REMARK INTER + INTRA:         -13.221
REMARK INTER:                 -11.572
REMARK INTRA:                  -1.650
REMARK UNBOUND:                -1.667
REMARK  Name = lig_assembled_43.pdb
REMARK  20 active torsions:
REMARK  status: ('A' for Active; 'I' for Inactive)
REMARK    1  A    between atoms: _2  and  _9
REMARK    2  A    between atoms: _4  and  _18
REMARK    3  A    between atoms: _6  and  _7
REMARK    4  A    between atoms: _6  and  _18
REMARK    5  A    between atoms: _9  and  _10
REMARK    6  A    between atoms: _10  and  _11
REMARK    7  A    between atoms: _11  and  _12
REMARK    8  A    between atoms: _12  and  _13
REMARK    9  A    between atoms: _14  and  _34
REMARK   10  A    between atoms: _16  and  _22
REMARK   11  A    between atoms: _17  and  _21
REMARK   12  A    between atoms: _21  and  _22
REMARK   13  A    between atoms: _24  and  _25
REMARK   14  A    between atoms: _26  and  _27
REMARK   15  A    between atoms: _28  and  _30
REMARK   16  A    between atoms: _30  and  _31
REMARK   17  A    between atoms: _30  and  _32
REMARK   18  A    between atoms: _32  and  _33
REMARK   19  A    between atoms: _32  and  _34
REMARK   20  A    between atoms: _35  and  _37
REMARK                            x       y       z     vdW  Elec       q    Type
REMARK                         _______ _______ _______ _____ _____    ______ ____
ROOT
ATOM      1  C   UNL     1       3.599   3.476  33.299  0.00  0.00    +0.163 C 
ENDROOT
BRANCH   1   2
ATOM      2  O   UNL     1       4.033   4.703  32.689  0.00  0.00    -0.388 OA
ATOM      3  H   UNL     1       3.318   5.344  32.715  0.00  0.00    +0.210 HD
ENDBRANCH   1   2
BRANCH   1   4
ATOM      4  C   UNL     1       3.365   3.664  34.807  0.00  0.00    +0.175 C 
BRANCH   4   5
ATOM      5  C   UNL     1       4.230   4.792  35.390  0.00  0.00    +0.176 C 
ATOM      6  O   UNL     1       5.589   4.608  34.907  0.00  0.00    -0.332 OA
ATOM      7  C   UNL     1       6.541   5.659  35.278  0.00  0.00    +0.277 C 
ATOM      8  C   UNL     1       6.555   5.859  36.813  0.00  0.00    +0.110 C 
ATOM      9  C   UNL     1       5.128   6.027  37.378  0.00  0.00    +0.143 C 
ATOM     10  C   UNL     1       4.221   4.882  36.927  0.00  0.00    +0.133 C 
BRANCH  10  11
ATOM     11  N   UNL     1       2.845   5.098  37.399  0.00  0.00    -0.308 N 
ATOM     12  H   UNL     1       2.328   5.873  37.007  0.00  0.00    +0.149 HD
ATOM     13  C   UNL     1       2.233   4.338  38.311  0.00  0.00    +0.210 C 
ATOM     14  C   UNL     1       3.056   3.180  38.908  0.00  0.00    +0.109 C 
ATOM     15  O   UNL     1       1.074   4.534  38.677  0.00  0.00    -0.276 OA
ENDBRANCH  10  11
BRANCH   7  16
ATOM     16  C   UNL     1       6.183   6.991  34.587  0.00  0.00    +0.414 C 
ATOM     17  O   UNL     1       5.149   7.089  33.928  0.00  0.00    -0.240 OA
ATOM     18  O   UNL     1       6.927   7.967  34.689  0.00  0.00    -0.240 OA
ENDBRANCH   7  16
BRANCH   9  19
ATOM     19  O   UNL     1       5.175   6.057  38.805  0.00  0.00    -0.390 OA
ATOM     20  H   UNL     1       4.445   5.545  39.161  0.00  0.00    +0.210 HD
ENDBRANCH   9  19
BRANCH   7  21
ATOM     21  O   UNL     1       7.864   5.233  34.861  0.00  0.00    -0.343 OA
ATOM     22  C   UNL     1       8.342   4.016  35.488  0.00  0.00    +0.198 C 
ENDBRANCH   7  21
ENDBRANCH   4   5
BRANCH   4  23
ATOM     23  O   UNL     1       3.621   2.430  35.507  0.00  0.00    -0.387 OA
ATOM     24  H   UNL     1       4.532   2.415  35.808  0.00  0.00    +0.210 HD
ENDBRANCH   4  23
ENDBRANCH   1   4
BRANCH   1  25
ATOM     25  C   UNL     1       2.311   2.993  32.640  0.00  0.00    +0.141 C 
BRANCH  25  28
ATOM     26  C   UNL     1       1.986   3.026  30.191  0.00  0.00    +0.401 C 
ATOM     27  O   UNL     1       2.121   1.807  30.061  0.00  0.00    -0.226 OA
ATOM     28  N   UNL     1       2.066   3.666  31.358  0.00  0.00    -0.279 N 
ATOM     29  H   UNL     1       1.951   4.669  31.361  0.00  0.00    +0.152 HD
BRANCH  26  30
ATOM     30  O   UNL     1       1.733   3.824  29.031  0.00  0.00    -0.444 OA
BRANCH  30  31
ATOM     31  C   UNL     1       1.043   3.040  28.054  0.00  0.00    +0.292 C 
BRANCH  31  33
ATOM     32  N   UNL     1       2.490   3.761  26.179  0.00  0.00    -0.131 NA
ATOM     33  C   UNL     1       1.235   3.612  26.709  0.00  0.00    +0.120 A 
ATOM     34  C   UNL     1       0.307   4.071  25.801  0.00  0.00    +0.137 A 
ATOM     35  N   UNL     1       1.061   4.490  24.747  0.00  0.00    -0.251 N 
ATOM     36  N   UNL     1       2.371   4.302  24.974  0.00  0.00    -0.065 NA
BRANCH  35  37
ATOM     37  C   UNL     1       0.610   5.104  23.516  0.00  0.00    +0.145 C 
BRANCH  37  38
ATOM     38  C   UNL     1       1.716   5.125  22.464  0.00  0.00    +0.024 C 
BRANCH  38  39
ATOM     39  C   UNL     1       1.364   4.273  21.243  0.00  0.00    +0.006 C 
BRANCH  39  40
ATOM     40  C   UNL     1       1.800   2.822  21.458  0.00  0.00    +0.026 C 
BRANCH  40  41
ATOM     41  C   UNL     1       2.202   2.159  20.173  0.00  0.00    -0.034 C 
ATOM     42  C   UNL     1       1.336   1.798  19.217  0.00  0.00    +0.004 C 
ENDBRANCH  40  41
ENDBRANCH  39  40
ENDBRANCH  38  39
ENDBRANCH  37  38
ENDBRANCH  35  37
ENDBRANCH  31  33
ENDBRANCH  30  31
ENDBRANCH  26  30
ENDBRANCH  25  28
ENDBRANCH   1  25
TORSDOF 18
