REMARK VINA RESULT:    -5.976     18.819     23.279
REMARK INTER + INTRA:         -12.597
REMARK INTER:                 -10.836
REMARK INTRA:                  -1.760
REMARK UNBOUND:                -1.905
REMARK  Name = lig_assembled_38.pdb
REMARK  17 active torsions:
REMARK  status: ('A' for Active; 'I' for Inactive)
REMARK    1  A    between atoms: _2  and  _9
REMARK    2  A    between atoms: _4  and  _19
REMARK    3  A    between atoms: _6  and  _7
REMARK    4  A    between atoms: _6  and  _19
REMARK    5  A    between atoms: _9  and  _10
REMARK    6  A    between atoms: _15  and  _35
REMARK    7  A    between atoms: _17  and  _23
REMARK    8  A    between atoms: _18  and  _22
REMARK    9  A    between atoms: _22  and  _23
REMARK   10  A    between atoms: _25  and  _26
REMARK   11  A    between atoms: _27  and  _28
REMARK   12  A    between atoms: _29  and  _31
REMARK   13  A    between atoms: _31  and  _32
REMARK   14  A    between atoms: _31  and  _33
REMARK   15  A    between atoms: _33  and  _34
REMARK   16  A    between atoms: _33  and  _35
REMARK   17  A    between atoms: _36  and  _38
REMARK                            x       y       z     vdW  Elec       q    Type
REMARK                         _______ _______ _______ _____ _____    ______ ____
ROOT
ATOM      1  C   UNL     1      -1.811  18.310  12.528  0.00  0.00    +0.163 C 
ENDROOT
BRANCH   1   2
ATOM      2  O   UNL     1      -0.410  18.594  12.682  0.00  0.00    -0.388 OA
ATOM      3  H   UNL     1       0.101  17.992  12.135  0.00  0.00    +0.210 HD
ENDBRANCH   1   2
BRANCH   1   4
ATOM      4  C   UNL     1      -2.627  19.184  13.475  0.00  0.00    +0.141 C 
BRANCH   4   7
ATOM      5  C   UNL     1      -1.949  21.025  14.977  0.00  0.00    +0.401 C 
ATOM      6  O   UNL     1      -2.799  21.810  14.553  0.00  0.00    -0.226 OA
ATOM      7  N   UNL     1      -1.793  19.779  14.526  0.00  0.00    -0.279 N 
ATOM      8  H   UNL     1      -1.060  19.213  14.931  0.00  0.00    +0.152 HD
BRANCH   5   9
ATOM      9  O   UNL     1      -1.061  21.455  16.013  0.00  0.00    -0.444 OA
BRANCH   9  10
ATOM     10  C   UNL     1      -1.727  22.406  16.848  0.00  0.00    +0.292 C 
BRANCH  10  12
ATOM     11  N   UNL     1      -2.158  22.735  19.265  0.00  0.00    -0.131 NA
ATOM     12  C   UNL     1      -1.430  22.139  18.269  0.00  0.00    +0.120 A 
ATOM     13  C   UNL     1      -0.496  21.301  18.836  0.00  0.00    +0.137 A 
ATOM     14  N   UNL     1      -0.743  21.388  20.176  0.00  0.00    -0.247 N 
ATOM     15  N   UNL     1      -1.734  22.263  20.429  0.00  0.00    -0.065 NA
BRANCH  14  16
ATOM     16  C   UNL     1      -0.251  20.515  21.226  0.00  0.00    +0.180 C 
BRANCH  16  17
ATOM     17  C   UNL     1      -0.867  19.137  21.200  0.00  0.00    -0.025 A 
ATOM     18  C   UNL     1      -0.080  18.001  20.953  0.00  0.00    +0.005 A 
ATOM     19  C   UNL     1      -0.639  16.721  21.020  0.00  0.00    +0.001 A 
ATOM     20  C   UNL     1      -1.988  16.561  21.333  0.00  0.00    +0.015 A 
ATOM     21  C   UNL     1      -2.775  17.683  21.569  0.00  0.00    +0.018 A 
ATOM     22 BR   UNL     1      -4.604  17.471  22.004  0.00  0.00    -0.050 Br
ATOM     23  C   UNL     1      -2.226  18.965  21.505  0.00  0.00    +0.020 A 
ENDBRANCH  16  17
ENDBRANCH  14  16
ENDBRANCH  10  12
ENDBRANCH   9  10
ENDBRANCH   5   9
ENDBRANCH   4   7
ENDBRANCH   1   4
BRANCH   1  24
ATOM     24  C   UNL     1      -2.106  16.827  12.814  0.00  0.00    +0.175 C 
BRANCH  24  25
ATOM     25  C   UNL     1      -1.019  15.902  12.246  0.00  0.00    +0.176 C 
ATOM     26  O   UNL     1      -0.537  16.487  11.005  0.00  0.00    -0.332 OA
ATOM     27  C   UNL     1       0.586  15.790  10.370  0.00  0.00    +0.277 C 
ATOM     28  C   UNL     1       0.240  14.298  10.146  0.00  0.00    +0.110 C 
ATOM     29  C   UNL     1      -0.307  13.641  11.431  0.00  0.00    +0.143 C 
ATOM     30  C   UNL     1      -1.470  14.449  12.009  0.00  0.00    +0.133 C 
BRANCH  30  31
ATOM     31  N   UNL     1      -1.925  13.862  13.279  0.00  0.00    -0.308 N 
ATOM     32  H   UNL     1      -1.329  13.968  14.088  0.00  0.00    +0.149 HD
ATOM     33  C   UNL     1      -3.074  13.198  13.432  0.00  0.00    +0.210 C 
ATOM     34  C   UNL     1      -3.947  13.031  12.174  0.00  0.00    +0.109 C 
ATOM     35  O   UNL     1      -3.437  12.729  14.511  0.00  0.00    -0.276 OA
ENDBRANCH  30  31
BRANCH  27  36
ATOM     36  C   UNL     1       1.858  15.900  11.237  0.00  0.00    +0.414 C 
ATOM     37  O   UNL     1       2.922  15.431  10.837  0.00  0.00    -0.240 OA
ATOM     38  O   UNL     1       1.819  16.458  12.334  0.00  0.00    -0.240 OA
ENDBRANCH  27  36
BRANCH  27  39
ATOM     39  O   UNL     1       0.821  16.404   9.077  0.00  0.00    -0.343 OA
ATOM     40  C   UNL     1       0.092  17.635   8.842  0.00  0.00    +0.198 C 
ENDBRANCH  27  39
BRANCH  29  41
ATOM     41  O   UNL     1      -0.753  12.315  11.143  0.00  0.00    -0.390 OA
ATOM     42  H   UNL     1      -1.001  12.255  10.217  0.00  0.00    +0.210 HD
ENDBRANCH  29  41
ENDBRANCH  24  25
BRANCH  24  43
ATOM     43  O   UNL     1      -3.395  16.466  12.279  0.00  0.00    -0.387 OA
ATOM     44  H   UNL     1      -3.693  17.148  11.673  0.00  0.00    +0.210 HD
ENDBRANCH  24  43
ENDBRANCH   1  24
TORSDOF 15
