REMARK VINA RESULT:    -7.099     15.306     20.082
REMARK INTER + INTRA:         -15.183
REMARK INTER:                 -12.113
REMARK INTRA:                  -3.070
REMARK UNBOUND:                -2.067
REMARK  Name = lig_assembled_79.pdb
REMARK  20 active torsions:
REMARK  status: ('A' for Active; 'I' for Inactive)
REMARK    1  A    between atoms: _2  and  _10
REMARK    2  A    between atoms: _5  and  _26
REMARK    3  A    between atoms: _7  and  _8
REMARK    4  A    between atoms: _7  and  _26
REMARK    5  A    between atoms: _10  and  _11
REMARK    6  A    between atoms: _10  and  _12
REMARK    7  A    between atoms: _10  and  _13
REMARK    8  A    between atoms: _13  and  _14
REMARK    9  A    between atoms: _22  and  _42
REMARK   10  A    between atoms: _24  and  _30
REMARK   11  A    between atoms: _25  and  _29
REMARK   12  A    between atoms: _29  and  _30
REMARK   13  A    between atoms: _32  and  _33
REMARK   14  A    between atoms: _34  and  _35
REMARK   15  A    between atoms: _36  and  _38
REMARK   16  A    between atoms: _38  and  _39
REMARK   17  A    between atoms: _38  and  _40
REMARK   18  A    between atoms: _40  and  _41
REMARK   19  A    between atoms: _40  and  _42
REMARK   20  A    between atoms: _43  and  _45
REMARK                            x       y       z     vdW  Elec       q    Type
REMARK                         _______ _______ _______ _____ _____    ______ ____
ROOT
ATOM      1  C   UNL     1       8.371  -1.086  34.350  0.00  0.00    +0.401 C 
ATOM      2  O   UNL     1       9.297  -1.361  35.117  0.00  0.00    -0.226 OA
ATOM      3  N   UNL     1       8.142   0.134  33.864  0.00  0.00    -0.279 N 
ATOM      4  H   UNL     1       7.362   0.258  33.234  0.00  0.00    +0.152 HD
ENDROOT
BRANCH   3   5
ATOM      5  C   UNL     1       8.958   1.309  34.195  0.00  0.00    +0.141 C 
BRANCH   5   6
ATOM      6  C   UNL     1       8.114   2.448  34.758  0.00  0.00    +0.163 C 
BRANCH   6   7
ATOM      7  O   UNL     1       8.706   2.946  35.969  0.00  0.00    -0.388 OA
ATOM      8  H   UNL     1       9.628   3.164  35.809  0.00  0.00    +0.210 HD
ENDBRANCH   6   7
BRANCH   6   9
ATOM      9  C   UNL     1       7.990   3.564  33.706  0.00  0.00    +0.175 C 
BRANCH   9  10
ATOM     10  C   UNL     1       7.056   4.691  34.168  0.00  0.00    +0.176 C 
ATOM     11  O   UNL     1       7.735   5.434  35.218  0.00  0.00    -0.332 OA
ATOM     12  C   UNL     1       7.032   6.622  35.711  0.00  0.00    +0.277 C 
ATOM     13  C   UNL     1       5.602   6.251  36.174  0.00  0.00    +0.110 C 
ATOM     14  C   UNL     1       4.851   5.433  35.103  0.00  0.00    +0.143 C 
ATOM     15  C   UNL     1       5.673   4.223  34.660  0.00  0.00    +0.133 C 
BRANCH  15  16
ATOM     16  N   UNL     1       4.986   3.501  33.577  0.00  0.00    -0.308 N 
ATOM     17  H   UNL     1       4.907   3.959  32.680  0.00  0.00    +0.149 HD
ATOM     18  C   UNL     1       4.460   2.280  33.703  0.00  0.00    +0.210 C 
ATOM     19  C   UNL     1       4.573   1.619  35.090  0.00  0.00    +0.109 C 
ATOM     20  O   UNL     1       3.902   1.693  32.775  0.00  0.00    -0.276 OA
ENDBRANCH  15  16
BRANCH  12  21
ATOM     21  C   UNL     1       6.955   7.705  34.616  0.00  0.00    +0.414 C 
ATOM     22  O   UNL     1       7.985   8.173  34.132  0.00  0.00    -0.240 OA
ATOM     23  O   UNL     1       5.863   8.112  34.217  0.00  0.00    -0.240 OA
ENDBRANCH  12  21
BRANCH  14  24
ATOM     24  O   UNL     1       3.600   4.985  35.628  0.00  0.00    -0.390 OA
ATOM     25  H   UNL     1       2.915   5.100  34.966  0.00  0.00    +0.210 HD
ENDBRANCH  14  24
BRANCH  12  26
ATOM     26  O   UNL     1       7.764   7.134  36.854  0.00  0.00    -0.343 OA
ATOM     27  C   UNL     1       8.986   6.419  37.169  0.00  0.00    +0.198 C 
ENDBRANCH  12  26
ENDBRANCH   9  10
BRANCH   9  28
ATOM     28  O   UNL     1       7.528   3.017  32.455  0.00  0.00    -0.387 OA
ATOM     29  H   UNL     1       6.857   2.352  32.624  0.00  0.00    +0.210 HD
ENDBRANCH   9  28
ENDBRANCH   6   9
ENDBRANCH   5   6
ENDBRANCH   3   5
BRANCH   1  30
ATOM     30  O   UNL     1       7.479  -2.126  33.939  0.00  0.00    -0.444 OA
BRANCH  30  31
ATOM     31  C   UNL     1       7.707  -2.433  32.561  0.00  0.00    +0.292 C 
BRANCH  31  33
ATOM     32  N   UNL     1       6.556  -0.636  31.324  0.00  0.00    -0.131 NA
ATOM     33  C   UNL     1       6.590  -1.935  31.738  0.00  0.00    +0.120 A 
ATOM     34  C   UNL     1       5.470  -2.586  31.272  0.00  0.00    +0.138 A 
ATOM     35  N   UNL     1       4.829  -1.657  30.499  0.00  0.00    -0.238 N 
ATOM     36  N   UNL     1       5.458  -0.461  30.608  0.00  0.00    -0.064 NA
BRANCH  35  37
ATOM     37  C   UNL     1       3.524  -1.719  29.779  0.00  0.00    +0.122 C 
ATOM     38  C   UNL     1       2.457  -1.174  30.757  0.00  0.00    +0.044 C 
ATOM     39  C   UNL     1       3.351  -3.202  29.396  0.00  0.00    +0.044 C 
BRANCH  37  40
ATOM     40  C   UNL     1       3.478  -0.840  28.512  0.00  0.00    +0.192 C 
ATOM     41  O   UNL     1       2.840   0.217  28.509  0.00  0.00    -0.289 OA
BRANCH  40  42
ATOM     42  C   UNL     1       4.166  -1.221  27.244  0.00  0.00    +0.045 A 
ATOM     43  C   UNL     1       3.490  -1.124  26.033  0.00  0.00    +0.095 A 
ATOM     44  N   UNL     1       4.296  -1.546  25.020  0.00  0.00    -0.360 N 
ATOM     45  H   UNL     1       4.037  -1.584  24.044  0.00  0.00    +0.165 HD
ATOM     46  C   UNL     1       5.514  -1.928  25.520  0.00  0.00    +0.047 A 
ATOM     47  C   UNL     1       6.627  -2.433  24.831  0.00  0.00    +0.026 A 
ATOM     48  C   UNL     1       7.765  -2.760  25.567  0.00  0.00    +0.002 A 
ATOM     49  C   UNL     1       7.788  -2.584  26.941  0.00  0.00    +0.001 A 
ATOM     50  C   UNL     1       6.667  -2.077  27.610  0.00  0.00    +0.011 A 
ATOM     51  C   UNL     1       5.483  -1.735  26.908  0.00  0.00    +0.010 A 
ENDBRANCH  40  42
ENDBRANCH  37  40
ENDBRANCH  35  37
ENDBRANCH  31  33
ENDBRANCH  30  31
ENDBRANCH   1  30
TORSDOF 16
