REMARK VINA RESULT:    -6.438     12.627     21.484
REMARK INTER + INTRA:         -14.926
REMARK INTER:                 -12.282
REMARK INTRA:                  -2.644
REMARK UNBOUND:                -2.090
REMARK  Name = lig_assembled_76.pdb
REMARK  21 active torsions:
REMARK  status: ('A' for Active; 'I' for Inactive)
REMARK    1  A    between atoms: _2  and  _9
REMARK    2  A    between atoms: _4  and  _23
REMARK    3  A    between atoms: _6  and  _7
REMARK    4  A    between atoms: _6  and  _23
REMARK    5  A    between atoms: _9  and  _10
REMARK    6  A    between atoms: _10  and  _11
REMARK    7  A    between atoms: _10  and  _18
REMARK    8  A    between atoms: _11  and  _12
REMARK    9  A    between atoms: _12  and  _13
REMARK   10  A    between atoms: _19  and  _39
REMARK   11  A    between atoms: _21  and  _27
REMARK   12  A    between atoms: _22  and  _26
REMARK   13  A    between atoms: _26  and  _27
REMARK   14  A    between atoms: _29  and  _30
REMARK   15  A    between atoms: _31  and  _32
REMARK   16  A    between atoms: _33  and  _35
REMARK   17  A    between atoms: _35  and  _36
REMARK   18  A    between atoms: _35  and  _37
REMARK   19  A    between atoms: _37  and  _38
REMARK   20  A    between atoms: _37  and  _39
REMARK   21  A    between atoms: _40  and  _42
REMARK                            x       y       z     vdW  Elec       q    Type
REMARK                         _______ _______ _______ _____ _____    ______ ____
ROOT
ATOM      1  C   UNL     1       3.045  -1.018   9.453  0.00  0.00    +0.141 C 
ENDROOT
BRANCH   1   4
ATOM      2  C   UNL     1       4.148  -1.269  11.650  0.00  0.00    +0.401 C 
ATOM      3  O   UNL     1       5.290  -1.218  11.188  0.00  0.00    -0.226 OA
ATOM      4  N   UNL     1       3.040  -1.190  10.911  0.00  0.00    -0.279 N 
ATOM      5  H   UNL     1       2.148  -1.252  11.381  0.00  0.00    +0.152 HD
BRANCH   2   6
ATOM      6  O   UNL     1       3.975  -1.427  13.061  0.00  0.00    -0.444 OA
BRANCH   6   7
ATOM      7  C   UNL     1       5.004  -0.712  13.751  0.00  0.00    +0.292 C 
BRANCH   7   9
ATOM      8  N   UNL     1       5.231   0.734  15.752  0.00  0.00    -0.131 NA
ATOM      9  C   UNL     1       4.430   0.077  14.854  0.00  0.00    +0.120 A 
ATOM     10  C   UNL     1       3.111   0.286  15.188  0.00  0.00    +0.137 A 
ATOM     11  N   UNL     1       3.178   1.080  16.291  0.00  0.00    -0.249 N 
ATOM     12  N   UNL     1       4.449   1.341  16.635  0.00  0.00    -0.065 NA
BRANCH  11  13
ATOM     13  C   UNL     1       2.088   1.513  17.136  0.00  0.00    +0.176 C 
BRANCH  13  14
ATOM     14  C   UNL     1       2.560   2.300  18.363  0.00  0.00    +0.136 C 
BRANCH  14  15
ATOM     15  O   UNL     1       2.944   3.629  17.980  0.00  0.00    -0.390 OA
ATOM     16  H   UNL     1       2.638   4.257  18.658  0.00  0.00    +0.210 HD
ENDBRANCH  14  15
BRANCH  14  17
ATOM     17  C   UNL     1       1.466   2.429  19.435  0.00  0.00    +0.038 C 
BRANCH  17  18
ATOM     18  C   UNL     1       1.902   1.929  20.813  0.00  0.00    +0.038 C 
BRANCH  18  19
ATOM     19  C   UNL     1       1.874   3.024  21.848  0.00  0.00    -0.047 A 
ATOM     20  C   UNL     1       1.902   2.706  23.214  0.00  0.00    +0.003 A 
ATOM     21  C   UNL     1       1.894   3.717  24.175  0.00  0.00    +0.000 A 
ATOM     22  C   UNL     1       1.854   5.052  23.781  0.00  0.00    +0.000 A 
ATOM     23  C   UNL     1       1.816   5.377  22.426  0.00  0.00    +0.000 A 
ATOM     24  C   UNL     1       1.821   4.368  21.463  0.00  0.00    +0.003 A 
ENDBRANCH  18  19
ENDBRANCH  17  18
ENDBRANCH  14  17
ENDBRANCH  13  14
ENDBRANCH  11  13
ENDBRANCH   7   9
ENDBRANCH   6   7
ENDBRANCH   2   6
ENDBRANCH   1   4
BRANCH   1  25
ATOM     25  C   UNL     1       2.559   0.368   9.043  0.00  0.00    +0.163 C 
BRANCH  25  26
ATOM     26  O   UNL     1       1.400   0.730   9.812  0.00  0.00    -0.388 OA
ATOM     27  H   UNL     1       0.883  -0.056  10.001  0.00  0.00    +0.210 HD
ENDBRANCH  25  26
BRANCH  25  28
ATOM     28  C   UNL     1       3.692   1.389   9.241  0.00  0.00    +0.175 C 
BRANCH  28  29
ATOM     29  C   UNL     1       3.491   2.649   8.385  0.00  0.00    +0.176 C 
ATOM     30  O   UNL     1       2.454   3.454   9.011  0.00  0.00    -0.332 OA
ATOM     31  C   UNL     1       2.198   4.755   8.387  0.00  0.00    +0.277 C 
ATOM     32  C   UNL     1       1.887   4.580   6.880  0.00  0.00    +0.110 C 
ATOM     33  C   UNL     1       2.946   3.705   6.178  0.00  0.00    +0.143 C 
ATOM     34  C   UNL     1       3.134   2.377   6.912  0.00  0.00    +0.133 C 
BRANCH  34  35
ATOM     35  N   UNL     1       4.206   1.589   6.284  0.00  0.00    -0.308 N 
ATOM     36  H   UNL     1       5.157   1.914   6.393  0.00  0.00    +0.149 HD
ATOM     37  C   UNL     1       4.006   0.471   5.580  0.00  0.00    +0.210 C 
ATOM     38  C   UNL     1       2.544   0.016   5.410  0.00  0.00    +0.109 C 
ATOM     39  O   UNL     1       4.925  -0.176   5.078  0.00  0.00    -0.276 OA
ENDBRANCH  34  35
BRANCH  31  40
ATOM     40  C   UNL     1       3.412   5.692   8.557  0.00  0.00    +0.414 C 
ATOM     41  O   UNL     1       4.169   5.557   9.518  0.00  0.00    -0.240 OA
ATOM     42  O   UNL     1       3.635   6.581   7.735  0.00  0.00    -0.240 OA
ENDBRANCH  31  40
BRANCH  33  43
ATOM     43  O   UNL     1       2.541   3.446   4.833  0.00  0.00    -0.390 OA
ATOM     44  H   UNL     1       1.601   3.251   4.812  0.00  0.00    +0.210 HD
ENDBRANCH  33  43
BRANCH  31  45
ATOM     45  O   UNL     1       1.036   5.340   9.029  0.00  0.00    -0.343 OA
ATOM     46  C   UNL     1      -0.069   4.426   9.245  0.00  0.00    +0.198 C 
ENDBRANCH  31  45
ENDBRANCH  28  29
BRANCH  28  47
ATOM     47  O   UNL     1       4.965   0.783   8.940  0.00  0.00    -0.387 OA
ATOM     48  H   UNL     1       5.594   1.465   8.693  0.00  0.00    +0.210 HD
ENDBRANCH  28  47
ENDBRANCH  25  28
ENDBRANCH   1  25
TORSDOF 19
