REMARK VINA RESULT:    -5.292     19.776     24.193
REMARK INTER + INTRA:         -13.227
REMARK INTER:                 -10.106
REMARK INTRA:                  -3.121
REMARK UNBOUND:                -3.450
REMARK  Name = lig_assembled_66.pdb
REMARK  18 active torsions:
REMARK  status: ('A' for Active; 'I' for Inactive)
REMARK    1  A    between atoms: _2  and  _10
REMARK    2  A    between atoms: _5  and  _21
REMARK    3  A    between atoms: _7  and  _8
REMARK    4  A    between atoms: _7  and  _21
REMARK    5  A    between atoms: _10  and  _11
REMARK    6  A    between atoms: _15  and  _16
REMARK    7  A    between atoms: _17  and  _37
REMARK    8  A    between atoms: _19  and  _25
REMARK    9  A    between atoms: _20  and  _24
REMARK   10  A    between atoms: _24  and  _25
REMARK   11  A    between atoms: _27  and  _28
REMARK   12  A    between atoms: _29  and  _30
REMARK   13  A    between atoms: _31  and  _33
REMARK   14  A    between atoms: _33  and  _34
REMARK   15  A    between atoms: _33  and  _35
REMARK   16  A    between atoms: _35  and  _36
REMARK   17  A    between atoms: _35  and  _37
REMARK   18  A    between atoms: _38  and  _40
REMARK                            x       y       z     vdW  Elec       q    Type
REMARK                         _______ _______ _______ _____ _____    ______ ____
ROOT
ATOM      1  C   UNL     1       4.902  23.226  16.170  0.00  0.00    +0.163 C 
ENDROOT
BRANCH   1   2
ATOM      2  O   UNL     1       5.334  21.855  16.153  0.00  0.00    -0.388 OA
ATOM      3  H   UNL     1       6.089  21.750  16.737  0.00  0.00    +0.210 HD
ENDBRANCH   1   2
BRANCH   1   4
ATOM      4  C   UNL     1       3.548  23.385  15.457  0.00  0.00    +0.175 C 
BRANCH   4   5
ATOM      5  C   UNL     1       3.328  22.306  14.387  0.00  0.00    +0.176 C 
ATOM      6  O   UNL     1       4.554  22.185  13.615  0.00  0.00    -0.332 OA
ATOM      7  C   UNL     1       4.567  21.120  12.607  0.00  0.00    +0.277 C 
ATOM      8  C   UNL     1       3.358  21.267  11.650  0.00  0.00    +0.110 C 
ATOM      9  C   UNL     1       2.034  21.431  12.426  0.00  0.00    +0.143 C 
ATOM     10  C   UNL     1       2.134  22.563  13.449  0.00  0.00    +0.133 C 
BRANCH  10  11
ATOM     11  N   UNL     1       0.897  22.652  14.241  0.00  0.00    -0.308 N 
ATOM     12  H   UNL     1       0.693  21.898  14.883  0.00  0.00    +0.149 HD
ATOM     13  C   UNL     1       0.027  23.663  14.168  0.00  0.00    +0.210 C 
ATOM     14  C   UNL     1       0.354  24.782  13.161  0.00  0.00    +0.109 C 
ATOM     15  O   UNL     1      -0.994  23.718  14.854  0.00  0.00    -0.276 OA
ENDBRANCH  10  11
BRANCH   7  16
ATOM     16  C   UNL     1       4.528  19.732  13.278  0.00  0.00    +0.414 C 
ATOM     17  O   UNL     1       3.959  18.791  12.724  0.00  0.00    -0.240 OA
ATOM     18  O   UNL     1       5.064  19.551  14.372  0.00  0.00    -0.240 OA
ENDBRANCH   7  16
BRANCH   7  19
ATOM     19  O   UNL     1       5.785  21.253  11.830  0.00  0.00    -0.343 OA
ATOM     20  C   UNL     1       6.394  22.568  11.865  0.00  0.00    +0.198 C 
ENDBRANCH   7  19
BRANCH   9  21
ATOM     21  O   UNL     1       0.973  21.713  11.513  0.00  0.00    -0.390 OA
ATOM     22  H   UNL     1       0.153  21.345  11.851  0.00  0.00    +0.210 HD
ENDBRANCH   9  21
ENDBRANCH   4   5
BRANCH   4  23
ATOM     23  O   UNL     1       3.448  24.697  14.868  0.00  0.00    -0.387 OA
ATOM     24  H   UNL     1       3.724  25.357  15.508  0.00  0.00    +0.210 HD
ENDBRANCH   4  23
ENDBRANCH   1   4
BRANCH   1  25
ATOM     25  C   UNL     1       4.782  23.717  17.609  0.00  0.00    +0.141 C 
BRANCH  25  28
ATOM     26  C   UNL     1       3.014  23.864  19.329  0.00  0.00    +0.401 C 
ATOM     27  O   UNL     1       3.575  24.761  19.963  0.00  0.00    -0.226 OA
ATOM     28  N   UNL     1       3.509  23.313  18.220  0.00  0.00    -0.279 N 
ATOM     29  H   UNL     1       2.980  22.576  17.776  0.00  0.00    +0.152 HD
BRANCH  26  30
ATOM     30  O   UNL     1       1.757  23.366  19.794  0.00  0.00    -0.444 OA
BRANCH  30  31
ATOM     31  C   UNL     1       0.695  24.019  19.093  0.00  0.00    +0.292 C 
BRANCH  31  33
ATOM     32  N   UNL     1       0.463  22.123  17.515  0.00  0.00    -0.131 NA
ATOM     33  C   UNL     1      -0.120  23.032  18.358  0.00  0.00    +0.120 A 
ATOM     34  C   UNL     1      -1.477  22.806  18.393  0.00  0.00    +0.137 A 
ATOM     35  N   UNL     1      -1.651  21.712  17.595  0.00  0.00    -0.247 N 
ATOM     36  N   UNL     1      -0.484  21.317  17.053  0.00  0.00    -0.065 NA
BRANCH  35  37
ATOM     37  C   UNL     1      -2.822  20.859  17.512  0.00  0.00    +0.180 C 
BRANCH  37  38
ATOM     38  C   UNL     1      -3.100  20.100  18.784  0.00  0.00    -0.025 A 
ATOM     39  C   UNL     1      -4.412  19.734  19.119  0.00  0.00    +0.005 A 
ATOM     40  C   UNL     1      -4.669  18.959  20.253  0.00  0.00    +0.002 A 
ATOM     41  C   UNL     1      -3.618  18.557  21.078  0.00  0.00    +0.019 A 
ATOM     42  C   UNL     1      -2.309  18.944  20.778  0.00  0.00    +0.052 A 
ATOM     43  C   UNL     1      -2.051  19.711  19.634  0.00  0.00    +0.024 A 
BRANCH  42  44
ATOM     44  C   UNL     1      -1.228  18.545  21.633  0.00  0.00    +0.099 C 
ATOM     45  N   UNL     1      -0.359  18.218  22.329  0.00  0.00    -0.191 NA
ENDBRANCH  42  44
ENDBRANCH  37  38
ENDBRANCH  35  37
ENDBRANCH  31  33
ENDBRANCH  30  31
ENDBRANCH  26  30
ENDBRANCH  25  28
ENDBRANCH   1  25
TORSDOF 16
