REMARK VINA RESULT:    -6.248      1.882      3.773
REMARK INTER + INTRA:         -13.084
REMARK INTER:                 -12.656
REMARK INTRA:                  -0.427
REMARK UNBOUND:                -1.905
REMARK  Name = lig_assembled_38.pdb
REMARK  17 active torsions:
REMARK  status: ('A' for Active; 'I' for Inactive)
REMARK    1  A    between atoms: _2  and  _9
REMARK    2  A    between atoms: _4  and  _19
REMARK    3  A    between atoms: _6  and  _7
REMARK    4  A    between atoms: _6  and  _19
REMARK    5  A    between atoms: _9  and  _10
REMARK    6  A    between atoms: _15  and  _35
REMARK    7  A    between atoms: _17  and  _23
REMARK    8  A    between atoms: _18  and  _22
REMARK    9  A    between atoms: _22  and  _23
REMARK   10  A    between atoms: _25  and  _26
REMARK   11  A    between atoms: _27  and  _28
REMARK   12  A    between atoms: _29  and  _31
REMARK   13  A    between atoms: _31  and  _32
REMARK   14  A    between atoms: _31  and  _33
REMARK   15  A    between atoms: _33  and  _34
REMARK   16  A    between atoms: _33  and  _35
REMARK   17  A    between atoms: _36  and  _38
REMARK                            x       y       z     vdW  Elec       q    Type
REMARK                         _______ _______ _______ _____ _____    ______ ____
ROOT
ATOM      1  C   UNL     1       1.617   2.470  32.743  0.00  0.00    +0.163 C 
ENDROOT
BRANCH   1   2
ATOM      2  O   UNL     1       1.817   1.064  32.527  0.00  0.00    -0.388 OA
ATOM      3  H   UNL     1       2.487   0.739  33.134  0.00  0.00    +0.210 HD
ENDBRANCH   1   2
BRANCH   1   4
ATOM      4  C   UNL     1       0.257   2.893  32.198  0.00  0.00    +0.141 C 
BRANCH   4   7
ATOM      5  C   UNL     1      -0.160   3.672  29.890  0.00  0.00    +0.401 C 
ATOM      6  O   UNL     1      -0.430   4.827  30.229  0.00  0.00    -0.226 OA
ATOM      7  N   UNL     1       0.166   2.702  30.745  0.00  0.00    -0.279 N 
ATOM      8  H   UNL     1       0.361   1.783  30.372  0.00  0.00    +0.152 HD
BRANCH   5   9
ATOM      9  O   UNL     1      -0.197   3.329  28.503  0.00  0.00    -0.444 OA
BRANCH   9  10
ATOM     10  C   UNL     1      -1.041   4.248  27.805  0.00  0.00    +0.292 C 
BRANCH  10  12
ATOM     11  N   UNL     1      -1.001   5.576  25.714  0.00  0.00    -0.131 NA
ATOM     12  C   UNL     1      -0.456   4.590  26.493  0.00  0.00    +0.120 A 
ATOM     13  C   UNL     1       0.656   4.080  25.861  0.00  0.00    +0.137 A 
ATOM     14  N   UNL     1       0.768   4.835  24.729  0.00  0.00    -0.247 N 
ATOM     15  N   UNL     1      -0.240   5.723  24.639  0.00  0.00    -0.065 NA
BRANCH  14  16
ATOM     16  C   UNL     1       1.907   4.926  23.833  0.00  0.00    +0.180 C 
BRANCH  16  17
ATOM     17  C   UNL     1       1.931   3.847  22.779  0.00  0.00    -0.025 A 
ATOM     18  C   UNL     1       1.938   2.490  23.138  0.00  0.00    +0.005 A 
ATOM     19  C   UNL     1       1.869   1.494  22.157  0.00  0.00    +0.001 A 
ATOM     20  C   UNL     1       1.792   1.843  20.810  0.00  0.00    +0.015 A 
ATOM     21  C   UNL     1       1.795   3.186  20.447  0.00  0.00    +0.018 A 
ATOM     22 BR   UNL     1       1.682   3.664  18.620  0.00  0.00    -0.050 Br
ATOM     23  C   UNL     1       1.864   4.187  21.418  0.00  0.00    +0.020 A 
ENDBRANCH  16  17
ENDBRANCH  14  16
ENDBRANCH  10  12
ENDBRANCH   9  10
ENDBRANCH   5   9
ENDBRANCH   4   7
ENDBRANCH   1   4
BRANCH   1  24
ATOM     24  C   UNL     1       2.723   3.294  32.061  0.00  0.00    +0.175 C 
BRANCH  24  25
ATOM     25  C   UNL     1       3.976   3.419  32.940  0.00  0.00    +0.176 C 
ATOM     26  O   UNL     1       4.098   4.808  33.351  0.00  0.00    -0.332 OA
ATOM     27  C   UNL     1       5.187   5.099  34.288  0.00  0.00    +0.277 C 
ATOM     28  C   UNL     1       6.538   4.601  33.720  0.00  0.00    +0.110 C 
ATOM     29  C   UNL     1       6.449   3.137  33.240  0.00  0.00    +0.143 C 
ATOM     30  C   UNL     1       5.281   2.947  32.272  0.00  0.00    +0.133 C 
BRANCH  30  31
ATOM     31  N   UNL     1       5.154   1.532  31.890  0.00  0.00    -0.308 N 
ATOM     32  H   UNL     1       5.130   1.310  30.904  0.00  0.00    +0.149 HD
ATOM     33  C   UNL     1       5.067   0.522  32.760  0.00  0.00    +0.210 C 
ATOM     34  C   UNL     1       5.080   0.896  34.254  0.00  0.00    +0.109 C 
ATOM     35  O   UNL     1       4.976  -0.655  32.411  0.00  0.00    -0.276 OA
ENDBRANCH  30  31
BRANCH  27  36
ATOM     36  C   UNL     1       4.925   4.432  35.654  0.00  0.00    +0.414 C 
ATOM     37  O   UNL     1       3.807   4.485  36.167  0.00  0.00    -0.240 OA
ATOM     38  O   UNL     1       5.830   3.840  36.244  0.00  0.00    -0.240 OA
ENDBRANCH  27  36
BRANCH  27  39
ATOM     39  O   UNL     1       5.263   6.538  34.455  0.00  0.00    -0.343 OA
ATOM     40  C   UNL     1       6.528   7.030  34.965  0.00  0.00    +0.198 C 
ENDBRANCH  27  39
BRANCH  29  41
ATOM     41  O   UNL     1       7.665   2.769  32.588  0.00  0.00    -0.390 OA
ATOM     42  H   UNL     1       8.077   3.551  32.213  0.00  0.00    +0.210 HD
ENDBRANCH  29  41
ENDBRANCH  24  25
BRANCH  24  43
ATOM     43  O   UNL     1       2.226   4.603  31.716  0.00  0.00    -0.387 OA
ATOM     44  H   UNL     1       1.283   4.644  31.892  0.00  0.00    +0.210 HD
ENDBRANCH  24  43
ENDBRANCH   1  24
TORSDOF 15
