REMARK VINA RESULT:    -6.826      1.991      3.451
REMARK INTER + INTRA:         -14.922
REMARK INTER:                 -12.780
REMARK INTRA:                  -2.141
REMARK UNBOUND:                -1.911
REMARK  Name = lig_assembled_26.pdb
REMARK  20 active torsions:
REMARK  status: ('A' for Active; 'I' for Inactive)
REMARK    1  A    between atoms: _2  and  _9
REMARK    2  A    between atoms: _4  and  _23
REMARK    3  A    between atoms: _6  and  _7
REMARK    4  A    between atoms: _6  and  _23
REMARK    5  A    between atoms: _9  and  _10
REMARK    6  A    between atoms: _9  and  _11
REMARK    7  A    between atoms: _11  and  _12
REMARK    8  A    between atoms: _12  and  _13
REMARK    9  A    between atoms: _19  and  _39
REMARK   10  A    between atoms: _21  and  _27
REMARK   11  A    between atoms: _22  and  _26
REMARK   12  A    between atoms: _26  and  _27
REMARK   13  A    between atoms: _29  and  _30
REMARK   14  A    between atoms: _31  and  _32
REMARK   15  A    between atoms: _33  and  _35
REMARK   16  A    between atoms: _35  and  _36
REMARK   17  A    between atoms: _35  and  _37
REMARK   18  A    between atoms: _37  and  _38
REMARK   19  A    between atoms: _37  and  _39
REMARK   20  A    between atoms: _40  and  _42
REMARK                            x       y       z     vdW  Elec       q    Type
REMARK                         _______ _______ _______ _____ _____    ______ ____
ROOT
ATOM      1  C   UNL     1       6.911   2.295  33.612  0.00  0.00    +0.163 C 
ENDROOT
BRANCH   1   2
ATOM      2  O   UNL     1       7.558   1.053  33.935  0.00  0.00    -0.388 OA
ATOM      3  H   UNL     1       8.458   1.226  34.224  0.00  0.00    +0.210 HD
ENDBRANCH   1   2
BRANCH   1   4
ATOM      4  C   UNL     1       7.841   3.488  33.890  0.00  0.00    +0.175 C 
BRANCH   4   5
ATOM      5  C   UNL     1       7.444   4.247  35.165  0.00  0.00    +0.176 C 
ATOM      6  O   UNL     1       7.288   5.651  34.820  0.00  0.00    -0.332 OA
ATOM      7  C   UNL     1       6.804   6.519  35.898  0.00  0.00    +0.277 C 
ATOM      8  C   UNL     1       7.709   6.384  37.147  0.00  0.00    +0.110 C 
ATOM      9  C   UNL     1       7.930   4.907  37.534  0.00  0.00    +0.143 C 
ATOM     10  C   UNL     1       8.430   4.095  36.338  0.00  0.00    +0.133 C 
BRANCH  10  11
ATOM     11  N   UNL     1       8.553   2.673  36.696  0.00  0.00    -0.308 N 
ATOM     12  H   UNL     1       7.714   2.180  36.965  0.00  0.00    +0.149 HD
ATOM     13  C   UNL     1       9.702   1.992  36.687  0.00  0.00    +0.210 C 
ATOM     14  C   UNL     1      10.968   2.779  36.297  0.00  0.00    +0.109 C 
ATOM     15  O   UNL     1       9.773   0.798  36.978  0.00  0.00    -0.276 OA
ENDBRANCH  10  11
BRANCH   7  16
ATOM     16  C   UNL     1       5.350   6.166  36.273  0.00  0.00    +0.414 C 
ATOM     17  O   UNL     1       4.994   6.177  37.451  0.00  0.00    -0.240 OA
ATOM     18  O   UNL     1       4.534   5.870  35.399  0.00  0.00    -0.240 OA
ENDBRANCH   7  16
BRANCH   7  19
ATOM     19  O   UNL     1       6.869   7.891  35.432  0.00  0.00    -0.343 OA
ATOM     20  C   UNL     1       7.600   8.084  34.194  0.00  0.00    +0.198 C 
ENDBRANCH   7  19
BRANCH   9  21
ATOM     21  O   UNL     1       8.886   4.823  38.592  0.00  0.00    -0.390 OA
ATOM     22  H   UNL     1       8.544   4.258  39.289  0.00  0.00    +0.210 HD
ENDBRANCH   9  21
ENDBRANCH   4   5
BRANCH   4  23
ATOM     23  O   UNL     1       7.849   4.385  32.761  0.00  0.00    -0.387 OA
ATOM     24  H   UNL     1       8.729   4.755  32.652  0.00  0.00    +0.210 HD
ENDBRANCH   4  23
ENDBRANCH   1   4
BRANCH   1  25
ATOM     25  C   UNL     1       6.497   2.302  32.144  0.00  0.00    +0.141 C 
BRANCH  25  28
ATOM     26  C   UNL     1       4.069   2.312  31.686  0.00  0.00    +0.401 C 
ATOM     27  O   UNL     1       3.989   1.086  31.578  0.00  0.00    -0.226 OA
ATOM     28  N   UNL     1       5.203   2.965  31.944  0.00  0.00    -0.279 N 
ATOM     29  H   UNL     1       5.170   3.973  32.004  0.00  0.00    +0.152 HD
BRANCH  26  30
ATOM     30  O   UNL     1       2.888   3.102  31.525  0.00  0.00    -0.444 OA
BRANCH  30  31
ATOM     31  C   UNL     1       1.866   2.313  30.911  0.00  0.00    +0.292 C 
BRANCH  31  33
ATOM     32  N   UNL     1       1.598   3.834  28.969  0.00  0.00    -0.131 NA
ATOM     33  C   UNL     1       1.815   2.575  29.461  0.00  0.00    +0.120 A 
ATOM     34  C   UNL     1       1.967   1.700  28.411  0.00  0.00    +0.137 A 
ATOM     35  N   UNL     1       1.805   2.476  27.303  0.00  0.00    -0.248 N 
ATOM     36  N   UNL     1       1.611   3.766  27.643  0.00  0.00    -0.065 NA
BRANCH  35  37
ATOM     37  C   UNL     1       1.889   2.110  25.897  0.00  0.00    +0.113 C 
ATOM     38  C   UNL     1       1.762   0.604  25.625  0.00  0.00    +0.033 C 
BRANCH  37  39
ATOM     39  C   UNL     1       0.934   2.932  25.012  0.00  0.00    +0.106 C 
BRANCH  39  40
ATOM     40  C   UNL     1       1.637   3.882  24.060  0.00  0.00    +0.165 C 
ATOM     41  O   UNL     1       2.086   4.966  24.427  0.00  0.00    -0.292 OA
BRANCH  40  42
ATOM     42  C   UNL     1       1.753   3.503  22.619  0.00  0.00    +0.017 A 
ATOM     43  C   UNL     1       1.869   2.173  22.199  0.00  0.00    +0.011 A 
ATOM     44  C   UNL     1       1.932   1.874  20.835  0.00  0.00    +0.001 A 
ATOM     45  C   UNL     1       1.886   2.897  19.889  0.00  0.00    +0.000 A 
ATOM     46  C   UNL     1       1.783   4.223  20.300  0.00  0.00    +0.001 A 
ATOM     47  C   UNL     1       1.715   4.526  21.661  0.00  0.00    +0.011 A 
ENDBRANCH  40  42
ENDBRANCH  39  40
ENDBRANCH  37  39
ENDBRANCH  35  37
ENDBRANCH  31  33
ENDBRANCH  30  31
ENDBRANCH  26  30
ENDBRANCH  25  28
ENDBRANCH   1  25
TORSDOF 17
