REMARK VINA RESULT:    -6.493     15.173     17.407
REMARK INTER + INTRA:         -13.551
REMARK INTER:                 -11.159
REMARK INTRA:                  -2.391
REMARK UNBOUND:                -1.933
REMARK  Name = lig_assembled_39.pdb
REMARK  17 active torsions:
REMARK  status: ('A' for Active; 'I' for Inactive)
REMARK    1  A    between atoms: _2  and  _9
REMARK    2  A    between atoms: _4  and  _19
REMARK    3  A    between atoms: _6  and  _7
REMARK    4  A    between atoms: _6  and  _19
REMARK    5  A    between atoms: _9  and  _10
REMARK    6  A    between atoms: _15  and  _35
REMARK    7  A    between atoms: _17  and  _23
REMARK    8  A    between atoms: _18  and  _22
REMARK    9  A    between atoms: _22  and  _23
REMARK   10  A    between atoms: _25  and  _26
REMARK   11  A    between atoms: _27  and  _28
REMARK   12  A    between atoms: _29  and  _31
REMARK   13  A    between atoms: _31  and  _32
REMARK   14  A    between atoms: _31  and  _33
REMARK   15  A    between atoms: _33  and  _34
REMARK   16  A    between atoms: _33  and  _35
REMARK   17  A    between atoms: _36  and  _38
REMARK                            x       y       z     vdW  Elec       q    Type
REMARK                         _______ _______ _______ _____ _____    ______ ____
ROOT
ATOM      1  C   UNL     1       2.540   2.404  35.336  0.00  0.00    +0.163 C 
ENDROOT
BRANCH   1   2
ATOM      2  O   UNL     1       2.763   1.090  34.799  0.00  0.00    -0.388 OA
ATOM      3  H   UNL     1       2.750   0.446  35.512  0.00  0.00    +0.210 HD
ENDBRANCH   1   2
BRANCH   1   4
ATOM      4  C   UNL     1       1.579   3.178  34.439  0.00  0.00    +0.141 C 
BRANCH   4   7
ATOM      5  C   UNL     1       2.146   3.367  32.042  0.00  0.00    +0.401 C 
ATOM      6  O   UNL     1       2.665   4.480  32.156  0.00  0.00    -0.226 OA
ATOM      7  N   UNL     1       1.607   2.688  33.056  0.00  0.00    -0.279 N 
ATOM      8  H   UNL     1       1.196   1.786  32.861  0.00  0.00    +0.152 HD
BRANCH   5   9
ATOM      9  O   UNL     1       2.103   2.749  30.753  0.00  0.00    -0.444 OA
BRANCH   9  10
ATOM     10  C   UNL     1       0.824   2.981  30.155  0.00  0.00    +0.292 C 
BRANCH  10  12
ATOM     11  N   UNL     1      -0.034   3.885  28.016  0.00  0.00    -0.131 NA
ATOM     12  C   UNL     1       0.975   3.280  28.719  0.00  0.00    +0.120 A 
ATOM     13  C   UNL     1       2.044   3.063  27.878  0.00  0.00    +0.137 A 
ATOM     14  N   UNL     1       1.652   3.633  26.701  0.00  0.00    -0.247 N 
ATOM     15  N   UNL     1       0.381   4.070  26.771  0.00  0.00    -0.065 NA
BRANCH  14  16
ATOM     16  C   UNL     1       2.452   3.856  25.506  0.00  0.00    +0.181 C 
BRANCH  16  17
ATOM     17  C   UNL     1       2.151   2.870  24.391  0.00  0.00    -0.012 A 
ATOM     18  C   UNL     1       2.331   1.485  24.577  0.00  0.00    +0.006 A 
ATOM     19  C   UNL     1       2.063   0.568  23.558  0.00  0.00    +0.000 A 
ATOM     20  C   UNL     1       1.630   1.015  22.318  0.00  0.00    +0.001 A 
ATOM     21  C   UNL     1       1.484   2.381  22.090  0.00  0.00    +0.015 A 
ATOM     22  C   UNL     1       1.752   3.304  23.112  0.00  0.00    +0.023 A 
ATOM     23 BR   UNL     1       1.574   5.144  22.666  0.00  0.00    -0.050 Br
ENDBRANCH  16  17
ENDBRANCH  14  16
ENDBRANCH  10  12
ENDBRANCH   9  10
ENDBRANCH   5   9
ENDBRANCH   4   7
ENDBRANCH   1   4
BRANCH   1  24
ATOM     24  C   UNL     1       3.863   3.179  35.461  0.00  0.00    +0.175 C 
BRANCH  24  25
ATOM     25  C   UNL     1       4.854   2.815  34.346  0.00  0.00    +0.176 C 
ATOM     26  O   UNL     1       5.453   1.533  34.682  0.00  0.00    -0.332 OA
ATOM     27  C   UNL     1       6.354   0.970  33.672  0.00  0.00    +0.277 C 
ATOM     28  C   UNL     1       7.464   1.987  33.311  0.00  0.00    +0.110 C 
ATOM     29  C   UNL     1       6.878   3.375  32.977  0.00  0.00    +0.143 C 
ATOM     30  C   UNL     1       5.953   3.863  34.093  0.00  0.00    +0.133 C 
BRANCH  30  31
ATOM     31  N   UNL     1       5.333   5.146  33.724  0.00  0.00    -0.308 N 
ATOM     32  H   UNL     1       4.683   5.151  32.951  0.00  0.00    +0.149 HD
ATOM     33  C   UNL     1       5.573   6.304  34.345  0.00  0.00    +0.210 C 
ATOM     34  C   UNL     1       6.588   6.268  35.504  0.00  0.00    +0.109 C 
ATOM     35  O   UNL     1       5.028   7.360  34.024  0.00  0.00    -0.276 OA
ENDBRANCH  30  31
BRANCH  27  36
ATOM     36  C   UNL     1       5.575   0.583  32.398  0.00  0.00    +0.414 C 
ATOM     37  O   UNL     1       4.355   0.732  32.348  0.00  0.00    -0.240 OA
ATOM     38  O   UNL     1       6.166   0.123  31.421  0.00  0.00    -0.240 OA
ENDBRANCH  27  36
BRANCH  27  39
ATOM     39  O   UNL     1       6.981  -0.210  34.238  0.00  0.00    -0.343 OA
ATOM     40  C   UNL     1       8.430  -0.169  34.287  0.00  0.00    +0.198 C 
ENDBRANCH  27  39
BRANCH  29  41
ATOM     41  O   UNL     1       7.938   4.316  32.799  0.00  0.00    -0.390 OA
ATOM     42  H   UNL     1       8.592   3.952  32.198  0.00  0.00    +0.210 HD
ENDBRANCH  29  41
ENDBRANCH  24  25
BRANCH  24  43
ATOM     43  O   UNL     1       4.458   2.941  36.752  0.00  0.00    -0.387 OA
ATOM     44  H   UNL     1       5.402   3.110  36.706  0.00  0.00    +0.210 HD
ENDBRANCH  24  43
ENDBRANCH   1  24
TORSDOF 15
