REMARK VINA RESULT:    -6.014      6.582      8.185
REMARK INTER + INTRA:         -14.107
REMARK INTER:                 -11.742
REMARK INTRA:                  -2.365
REMARK UNBOUND:                -2.643
REMARK  Name = lig_assembled_21.pdb
REMARK  20 active torsions:
REMARK  status: ('A' for Active; 'I' for Inactive)
REMARK    1  A    between atoms: _2  and  _9
REMARK    2  A    between atoms: _4  and  _23
REMARK    3  A    between atoms: _6  and  _7
REMARK    4  A    between atoms: _6  and  _23
REMARK    5  A    between atoms: _9  and  _10
REMARK    6  A    between atoms: _11  and  _18
REMARK    7  A    between atoms: _12  and  _13
REMARK    8  A    between atoms: _12  and  _18
REMARK    9  A    between atoms: _19  and  _39
REMARK   10  A    between atoms: _21  and  _27
REMARK   11  A    between atoms: _22  and  _26
REMARK   12  A    between atoms: _26  and  _27
REMARK   13  A    between atoms: _29  and  _30
REMARK   14  A    between atoms: _31  and  _32
REMARK   15  A    between atoms: _33  and  _35
REMARK   16  A    between atoms: _35  and  _36
REMARK   17  A    between atoms: _35  and  _37
REMARK   18  A    between atoms: _37  and  _38
REMARK   19  A    between atoms: _37  and  _39
REMARK   20  A    between atoms: _40  and  _42
REMARK                            x       y       z     vdW  Elec       q    Type
REMARK                         _______ _______ _______ _____ _____    ______ ____
ROOT
ATOM      1  C   UNL     1       7.545   2.538  34.445  0.00  0.00    +0.163 C 
ENDROOT
BRANCH   1   2
ATOM      2  O   UNL     1       8.167   2.441  35.737  0.00  0.00    -0.388 OA
ATOM      3  H   UNL     1       7.817   3.125  36.313  0.00  0.00    +0.210 HD
ENDBRANCH   1   2
BRANCH   1   4
ATOM      4  C   UNL     1       7.842   3.900  33.793  0.00  0.00    +0.175 C 
BRANCH   4   5
ATOM      5  C   UNL     1       7.214   5.064  34.574  0.00  0.00    +0.176 C 
ATOM      6  O   UNL     1       7.954   5.218  35.817  0.00  0.00    -0.332 OA
ATOM      7  C   UNL     1       7.560   6.358  36.651  0.00  0.00    +0.277 C 
ATOM      8  C   UNL     1       6.041   6.312  36.948  0.00  0.00    +0.110 C 
ATOM      9  C   UNL     1       5.214   6.116  35.660  0.00  0.00    +0.143 C 
ATOM     10  C   UNL     1       5.711   4.906  34.868  0.00  0.00    +0.133 C 
BRANCH  10  11
ATOM     11  N   UNL     1       4.973   4.782  33.601  0.00  0.00    -0.308 N 
ATOM     12  H   UNL     1       5.150   5.471  32.883  0.00  0.00    +0.149 HD
ATOM     13  C   UNL     1       4.085   3.819  33.338  0.00  0.00    +0.210 C 
ATOM     14  C   UNL     1       3.819   2.800  34.462  0.00  0.00    +0.109 C 
ATOM     15  O   UNL     1       3.493   3.731  32.261  0.00  0.00    -0.276 OA
ENDBRANCH  10  11
BRANCH   7  16
ATOM     16  C   UNL     1       7.910   7.690  35.957  0.00  0.00    +0.414 C 
ATOM     17  O   UNL     1       8.227   8.673  36.626  0.00  0.00    -0.240 OA
ATOM     18  O   UNL     1       7.874   7.783  34.729  0.00  0.00    -0.240 OA
ENDBRANCH   7  16
BRANCH   9  19
ATOM     19  O   UNL     1       3.839   5.928  35.994  0.00  0.00    -0.390 OA
ATOM     20  H   UNL     1       3.502   6.719  36.422  0.00  0.00    +0.210 HD
ENDBRANCH   9  19
BRANCH   7  21
ATOM     21  O   UNL     1       8.275   6.260  37.910  0.00  0.00    -0.343 OA
ATOM     22  C   UNL     1       9.495   5.478  37.862  0.00  0.00    +0.198 C 
ENDBRANCH   7  21
ENDBRANCH   4   5
BRANCH   4  23
ATOM     23  O   UNL     1       7.376   3.909  32.429  0.00  0.00    -0.387 OA
ATOM     24  H   UNL     1       6.646   4.527  32.344  0.00  0.00    +0.210 HD
ENDBRANCH   4  23
ENDBRANCH   1   4
BRANCH   1  25
ATOM     25  C   UNL     1       8.048   1.419  33.539  0.00  0.00    +0.141 C 
BRANCH  25  28
ATOM     26  C   UNL     1       6.042   0.465  32.456  0.00  0.00    +0.401 C 
ATOM     27  O   UNL     1       5.864   1.435  31.716  0.00  0.00    -0.226 OA
ATOM     28  N   UNL     1       7.033   0.376  33.343  0.00  0.00    -0.279 N 
ATOM     29  H   UNL     1       7.090  -0.456  33.913  0.00  0.00    +0.152 HD
BRANCH  26  30
ATOM     30  O   UNL     1       5.139  -0.641  32.380  0.00  0.00    -0.444 OA
BRANCH  30  31
ATOM     31  C   UNL     1       5.855  -1.817  31.996  0.00  0.00    +0.292 C 
BRANCH  31  33
ATOM     32  N   UNL     1       7.366  -2.130  30.065  0.00  0.00    -0.131 NA
ATOM     33  C   UNL     1       6.131  -1.795  30.547  0.00  0.00    +0.120 A 
ATOM     34  C   UNL     1       5.299  -1.505  29.489  0.00  0.00    +0.137 A 
ATOM     35  N   UNL     1       6.062  -1.771  28.384  0.00  0.00    -0.247 N 
ATOM     36  N   UNL     1       7.314  -2.109  28.742  0.00  0.00    -0.065 NA
BRANCH  35  37
ATOM     37  C   UNL     1       5.593  -1.785  27.002  0.00  0.00    +0.184 C 
BRANCH  37  38
ATOM     38  C   UNL     1       6.303  -2.746  26.079  0.00  0.00    +0.016 A 
ATOM     39  C   UNL     1       5.954  -4.108  26.013  0.00  0.00    +0.137 A 
ATOM     40  C   UNL     1       6.620  -4.979  25.150  0.00  0.00    +0.047 A 
ATOM     41  C   UNL     1       7.637  -4.495  24.327  0.00  0.00    +0.004 A 
ATOM     42  C   UNL     1       8.006  -3.153  24.388  0.00  0.00    +0.001 A 
ATOM     43  C   UNL     1       7.343  -2.284  25.255  0.00  0.00    +0.009 A 
BRANCH  39  44
ATOM     44  O   UNL     1       4.964  -4.558  26.918  0.00  0.00    -0.426 OA
BRANCH  44  45
ATOM     45  C   UNL     1       3.948  -5.439  26.542  0.00  0.00    +0.309 C 
ATOM     46  O   UNL     1       3.872  -6.633  26.797  0.00  0.00    -0.251 OA
ATOM     47  C   UNL     1       2.882  -4.670  25.818  0.00  0.00    +0.136 C 
ENDBRANCH  44  45
ENDBRANCH  39  44
ENDBRANCH  37  38
ENDBRANCH  35  37
ENDBRANCH  31  33
ENDBRANCH  30  31
ENDBRANCH  26  30
ENDBRANCH  25  28
ENDBRANCH   1  25
TORSDOF 17
