REMARK VINA RESULT:    -6.381      6.411     11.914
REMARK INTER + INTRA:         -13.191
REMARK INTER:                 -11.030
REMARK INTRA:                  -2.161
REMARK UNBOUND:                -1.775
REMARK  Name = lig_assembled_69.pdb
REMARK  18 active torsions:
REMARK  status: ('A' for Active; 'I' for Inactive)
REMARK    1  A    between atoms: _2  and  _9
REMARK    2  A    between atoms: _4  and  _21
REMARK    3  A    between atoms: _6  and  _7
REMARK    4  A    between atoms: _6  and  _21
REMARK    5  A    between atoms: _11  and  _16
REMARK    6  A    between atoms: _14  and  _15
REMARK    7  A    between atoms: _17  and  _37
REMARK    8  A    between atoms: _19  and  _25
REMARK    9  A    between atoms: _20  and  _24
REMARK   10  A    between atoms: _24  and  _25
REMARK   11  A    between atoms: _27  and  _28
REMARK   12  A    between atoms: _29  and  _30
REMARK   13  A    between atoms: _31  and  _33
REMARK   14  A    between atoms: _33  and  _34
REMARK   15  A    between atoms: _33  and  _35
REMARK   16  A    between atoms: _35  and  _36
REMARK   17  A    between atoms: _35  and  _37
REMARK   18  A    between atoms: _38  and  _40
REMARK                            x       y       z     vdW  Elec       q    Type
REMARK                         _______ _______ _______ _____ _____    ______ ____
ROOT
ATOM      1  C   UNL     1       8.148   2.327  35.918  0.00  0.00    +0.163 C 
ENDROOT
BRANCH   1   2
ATOM      2  O   UNL     1       8.078   2.839  37.259  0.00  0.00    -0.388 OA
ATOM      3  H   UNL     1       8.221   2.123  37.883  0.00  0.00    +0.210 HD
ENDBRANCH   1   2
BRANCH   1   4
ATOM      4  C   UNL     1       8.521   3.441  34.924  0.00  0.00    +0.175 C 
BRANCH   4   5
ATOM      5  C   UNL     1       7.369   4.433  34.709  0.00  0.00    +0.176 C 
ATOM      6  O   UNL     1       7.214   5.209  35.929  0.00  0.00    -0.332 OA
ATOM      7  C   UNL     1       6.222   6.287  35.873  0.00  0.00    +0.277 C 
ATOM      8  C   UNL     1       4.847   5.734  35.427  0.00  0.00    +0.110 C 
ATOM      9  C   UNL     1       4.965   4.876  34.150  0.00  0.00    +0.143 C 
ATOM     10  C   UNL     1       6.027   3.788  34.317  0.00  0.00    +0.133 C 
BRANCH  10  11
ATOM     11  N   UNL     1       6.192   3.032  33.065  0.00  0.00    -0.308 N 
ATOM     12  H   UNL     1       6.610   3.509  32.278  0.00  0.00    +0.149 HD
ATOM     13  C   UNL     1       5.826   1.758  32.901  0.00  0.00    +0.210 C 
ATOM     14  C   UNL     1       5.168   1.068  34.111  0.00  0.00    +0.109 C 
ATOM     15  O   UNL     1       5.990   1.146  31.845  0.00  0.00    -0.276 OA
ENDBRANCH  10  11
BRANCH   7  16
ATOM     16  C   UNL     1       6.673   7.396  34.899  0.00  0.00    +0.414 C 
ATOM     17  O   UNL     1       5.838   8.067  34.294  0.00  0.00    -0.240 OA
ATOM     18  O   UNL     1       7.871   7.618  34.719  0.00  0.00    -0.240 OA
ENDBRANCH   7  16
BRANCH   7  19
ATOM     19  O   UNL     1       6.082   6.838  37.208  0.00  0.00    -0.343 OA
ATOM     20  C   UNL     1       7.324   6.995  37.939  0.00  0.00    +0.198 C 
ENDBRANCH   7  19
BRANCH   9  21
ATOM     21  O   UNL     1       3.707   4.265  33.861  0.00  0.00    -0.390 OA
ATOM     22  H   UNL     1       2.997   4.829  34.177  0.00  0.00    +0.210 HD
ENDBRANCH   9  21
ENDBRANCH   4   5
BRANCH   4  23
ATOM     23  O   UNL     1       8.924   2.867  33.664  0.00  0.00    -0.387 OA
ATOM     24  H   UNL     1       9.604   3.415  33.265  0.00  0.00    +0.210 HD
ENDBRANCH   4  23
ENDBRANCH   1   4
BRANCH   1  25
ATOM     25  C   UNL     1       9.181   1.208  35.840  0.00  0.00    +0.141 C 
BRANCH  25  28
ATOM     26  C   UNL     1      11.556   1.875  35.687  0.00  0.00    +0.401 C 
ATOM     27  O   UNL     1      11.596   1.798  34.456  0.00  0.00    -0.226 OA
ATOM     28  N   UNL     1      10.470   1.611  36.415  0.00  0.00    -0.279 N 
ATOM     29  H   UNL     1      10.539   1.693  37.420  0.00  0.00    +0.152 HD
BRANCH  26  30
ATOM     30  O   UNL     1      12.734   2.265  36.397  0.00  0.00    -0.444 OA
BRANCH  30  31
ATOM     31  C   UNL     1      12.665   3.659  36.707  0.00  0.00    +0.292 C 
BRANCH  31  33
ATOM     32  N   UNL     1      13.901   4.087  34.610  0.00  0.00    -0.131 NA
ATOM     33  C   UNL     1      13.657   4.411  35.917  0.00  0.00    +0.120 A 
ATOM     34  C   UNL     1      14.464   5.468  36.277  0.00  0.00    +0.137 A 
ATOM     35  N   UNL     1      15.184   5.730  35.150  0.00  0.00    -0.248 N 
ATOM     36  N   UNL     1      14.842   4.898  34.151  0.00  0.00    -0.065 NA
BRANCH  35  37
ATOM     37  C   UNL     1      16.245   6.719  34.968  0.00  0.00    +0.114 C 
ATOM     38  C   UNL     1      15.687   8.059  34.472  0.00  0.00    +0.062 C 
ATOM     39  C   UNL     1      15.483   8.188  32.961  0.00  0.00    +0.139 C 
ATOM     40  C   UNL     1      16.726   8.273  32.122  0.00  0.00    +0.002 C 
ATOM     41  C   UNL     1      17.972   7.873  32.425  0.00  0.00    +0.002 C 
ATOM     42  C   UNL     1      18.421   7.102  33.628  0.00  0.00    +0.139 C 
ATOM     43  C   UNL     1      17.397   6.106  34.159  0.00  0.00    +0.062 C 
BRANCH  39  44
ATOM     44  O   UNL     1      14.786   9.420  32.737  0.00  0.00    -0.388 OA
ATOM     45  H   UNL     1      14.450   9.724  33.597  0.00  0.00    +0.210 HD
ENDBRANCH  39  44
BRANCH  42  46
ATOM     46  O   UNL     1      18.809   8.008  34.649  0.00  0.00    -0.388 OA
ATOM     47  H   UNL     1      19.034   7.480  35.435  0.00  0.00    +0.210 HD
ENDBRANCH  42  46
ENDBRANCH  35  37
ENDBRANCH  31  33
ENDBRANCH  30  31
ENDBRANCH  26  30
ENDBRANCH  25  28
ENDBRANCH   1  25
TORSDOF 16
