REMARK VINA RESULT:    -6.733      7.263     11.877
REMARK INTER + INTRA:         -12.855
REMARK INTER:                 -10.458
REMARK INTRA:                  -2.398
REMARK UNBOUND:                -1.202
REMARK  Name = lig_assembled_40.pdb
REMARK  17 active torsions:
REMARK  status: ('A' for Active; 'I' for Inactive)
REMARK    1  A    between atoms: _2  and  _9
REMARK    2  A    between atoms: _4  and  _19
REMARK    3  A    between atoms: _6  and  _7
REMARK    4  A    between atoms: _6  and  _19
REMARK    5  A    between atoms: _12  and  _13
REMARK    6  A    between atoms: _15  and  _35
REMARK    7  A    between atoms: _17  and  _23
REMARK    8  A    between atoms: _18  and  _22
REMARK    9  A    between atoms: _22  and  _23
REMARK   10  A    between atoms: _25  and  _26
REMARK   11  A    between atoms: _27  and  _28
REMARK   12  A    between atoms: _29  and  _31
REMARK   13  A    between atoms: _31  and  _32
REMARK   14  A    between atoms: _31  and  _33
REMARK   15  A    between atoms: _33  and  _34
REMARK   16  A    between atoms: _33  and  _35
REMARK   17  A    between atoms: _36  and  _38
REMARK                            x       y       z     vdW  Elec       q    Type
REMARK                         _______ _______ _______ _____ _____    ______ ____
ROOT
ATOM      1  C   UNL     1       8.435   4.186  38.595  0.00  0.00    +0.163 C 
ENDROOT
BRANCH   1   2
ATOM      2  O   UNL     1       8.536   5.577  38.250  0.00  0.00    -0.388 OA
ATOM      3  H   UNL     1       8.827   6.077  39.016  0.00  0.00    +0.210 HD
ENDBRANCH   1   2
BRANCH   1   4
ATOM      4  C   UNL     1       9.791   3.663  39.056  0.00  0.00    +0.141 C 
BRANCH   4   7
ATOM      5  C   UNL     1      11.551   4.275  37.432  0.00  0.00    +0.401 C 
ATOM      6  O   UNL     1      11.685   5.421  37.868  0.00  0.00    -0.226 OA
ATOM      7  N   UNL     1      10.685   3.388  37.924  0.00  0.00    -0.279 N 
ATOM      8  H   UNL     1      10.641   2.475  37.493  0.00  0.00    +0.152 HD
BRANCH   5   9
ATOM      9  O   UNL     1      12.359   3.851  36.332  0.00  0.00    -0.444 OA
BRANCH   9  10
ATOM     10  C   UNL     1      13.741   4.015  36.663  0.00  0.00    +0.292 C 
BRANCH  10  12
ATOM     11  N   UNL     1      14.544   4.684  34.420  0.00  0.00    -0.131 NA
ATOM     12  C   UNL     1      14.380   4.974  35.743  0.00  0.00    +0.121 A 
ATOM     13  C   UNL     1      14.877   6.231  35.993  0.00  0.00    +0.143 A 
ATOM     14  N   UNL     1      15.312   6.693  34.771  0.00  0.00    -0.220 N 
ATOM     15  N   UNL     1      15.118   5.728  33.836  0.00  0.00    -0.060 NA
BRANCH  14  16
ATOM     16  C   UNL     1      15.843   7.968  34.445  0.00  0.00    +0.067 A 
ATOM     17  C   UNL     1      16.909   8.508  35.173  0.00  0.00    +0.028 A 
ATOM     18  C   UNL     1      17.377   9.794  34.886  0.00  0.00    +0.005 A 
ATOM     19  C   UNL     1      16.787  10.555  33.872  0.00  0.00    -0.050 A 
ATOM     20  C   UNL     1      15.745  10.000  33.121  0.00  0.00    +0.005 A 
ATOM     21  C   UNL     1      17.255  11.953  33.592  0.00  0.00    +0.044 C 
ATOM     22  C   UNL     1      15.273   8.714  33.403  0.00  0.00    +0.028 A 
ENDBRANCH  14  16
ENDBRANCH  10  12
ENDBRANCH   9  10
ENDBRANCH   5   9
ENDBRANCH   4   7
ENDBRANCH   1   4
BRANCH   1  23
ATOM     23  C   UNL     1       7.944   3.356  37.397  0.00  0.00    +0.175 C 
BRANCH  23  24
ATOM     24  C   UNL     1       7.544   4.240  36.206  0.00  0.00    +0.176 C 
ATOM     25  O   UNL     1       6.147   4.609  36.372  0.00  0.00    -0.332 OA
ATOM     26  C   UNL     1       5.617   5.546  35.377  0.00  0.00    +0.277 C 
ATOM     27  C   UNL     1       5.848   5.003  33.945  0.00  0.00    +0.110 C 
ATOM     28  C   UNL     1       7.313   4.568  33.731  0.00  0.00    +0.143 C 
ATOM     29  C   UNL     1       7.763   3.597  34.824  0.00  0.00    +0.133 C 
BRANCH  29  30
ATOM     30  N   UNL     1       9.185   3.258  34.659  0.00  0.00    -0.308 N 
ATOM     31  H   UNL     1       9.856   4.013  34.689  0.00  0.00    +0.149 HD
ATOM     32  C   UNL     1       9.647   2.019  34.472  0.00  0.00    +0.210 C 
ATOM     33  C   UNL     1       8.596   0.894  34.405  0.00  0.00    +0.109 C 
ATOM     34  O   UNL     1      10.845   1.763  34.352  0.00  0.00    -0.276 OA
ENDBRANCH  29  30
BRANCH  26  35
ATOM     35  C   UNL     1       6.284   6.930  35.518  0.00  0.00    +0.414 C 
ATOM     36  O   UNL     1       6.273   7.722  34.577  0.00  0.00    -0.240 OA
ATOM     37  O   UNL     1       6.832   7.253  36.572  0.00  0.00    -0.240 OA
ENDBRANCH  26  35
BRANCH  28  38
ATOM     38  O   UNL     1       7.448   3.938  32.457  0.00  0.00    -0.390 OA
ATOM     39  H   UNL     1       7.858   4.547  31.839  0.00  0.00    +0.210 HD
ENDBRANCH  28  38
BRANCH  26  40
ATOM     40  O   UNL     1       4.187   5.668  35.594  0.00  0.00    -0.343 OA
ATOM     41  C   UNL     1       3.752   5.431  36.956  0.00  0.00    +0.198 C 
ENDBRANCH  26  40
ENDBRANCH  23  24
BRANCH  23  42
ATOM     42  O   UNL     1       6.835   2.523  37.791  0.00  0.00    -0.387 OA
ATOM     43  H   UNL     1       7.118   1.918  38.481  0.00  0.00    +0.210 HD
ENDBRANCH  23  42
ENDBRANCH   1  23
TORSDOF 14
