REMARK VINA RESULT:    -6.705     12.583     15.098
REMARK INTER + INTRA:         -14.526
REMARK INTER:                 -12.123
REMARK INTRA:                  -2.403
REMARK UNBOUND:                -2.138
REMARK  Name = lig_assembled_92.pdb
REMARK  18 active torsions:
REMARK  status: ('A' for Active; 'I' for Inactive)
REMARK    1  A    between atoms: _2  and  _11
REMARK    2  A    between atoms: _3  and  _46
REMARK    3  A    between atoms: _6  and  _25
REMARK    4  A    between atoms: _8  and  _9
REMARK    5  A    between atoms: _8  and  _25
REMARK    6  A    between atoms: _14  and  _46
REMARK    7  A    between atoms: _21  and  _41
REMARK    8  A    between atoms: _23  and  _29
REMARK    9  A    between atoms: _24  and  _28
REMARK   10  A    between atoms: _28  and  _29
REMARK   11  A    between atoms: _31  and  _32
REMARK   12  A    between atoms: _33  and  _34
REMARK   13  A    between atoms: _35  and  _37
REMARK   14  A    between atoms: _37  and  _38
REMARK   15  A    between atoms: _37  and  _39
REMARK   16  A    between atoms: _39  and  _40
REMARK   17  A    between atoms: _39  and  _41
REMARK   18  A    between atoms: _42  and  _44
REMARK                            x       y       z     vdW  Elec       q    Type
REMARK                         _______ _______ _______ _____ _____    ______ ____
ROOT
ATOM      1  C   UNL     1       7.218  -0.756  33.393  0.00  0.00    +0.401 C 
ATOM      2  O   UNL     1       7.827  -1.240  34.350  0.00  0.00    -0.226 OA
ATOM      3  N   UNL     1       7.505   0.425  32.846  0.00  0.00    -0.279 N 
ATOM      4  H   UNL     1       6.954   0.733  32.057  0.00  0.00    +0.152 HD
ENDROOT
BRANCH   3   5
ATOM      5  C   UNL     1       8.577   1.306  33.326  0.00  0.00    +0.141 C 
BRANCH   5   6
ATOM      6  C   UNL     1       8.032   2.472  34.145  0.00  0.00    +0.163 C 
BRANCH   6   7
ATOM      7  O   UNL     1       8.905   2.745  35.253  0.00  0.00    -0.388 OA
ATOM      8  H   UNL     1       9.656   2.147  35.225  0.00  0.00    +0.210 HD
ENDBRANCH   6   7
BRANCH   6   9
ATOM      9  C   UNL     1       7.886   3.709  33.242  0.00  0.00    +0.175 C 
BRANCH   9  10
ATOM     10  C   UNL     1       7.023   4.800  33.893  0.00  0.00    +0.176 C 
ATOM     11  O   UNL     1       7.784   5.376  34.991  0.00  0.00    -0.332 OA
ATOM     12  C   UNL     1       7.156   6.515  35.668  0.00  0.00    +0.277 C 
ATOM     13  C   UNL     1       5.736   6.138  36.156  0.00  0.00    +0.110 C 
ATOM     14  C   UNL     1       4.900   5.493  35.032  0.00  0.00    +0.143 C 
ATOM     15  C   UNL     1       5.648   4.321  34.394  0.00  0.00    +0.133 C 
BRANCH  15  16
ATOM     16  N   UNL     1       4.879   3.770  33.268  0.00  0.00    -0.308 N 
ATOM     17  H   UNL     1       4.770   4.346  32.444  0.00  0.00    +0.149 HD
ATOM     18  C   UNL     1       4.315   2.560  33.262  0.00  0.00    +0.210 C 
ATOM     19  C   UNL     1       4.476   1.718  34.542  0.00  0.00    +0.109 C 
ATOM     20  O   UNL     1       3.688   2.118  32.298  0.00  0.00    -0.276 OA
ENDBRANCH  15  16
BRANCH  12  21
ATOM     21  C   UNL     1       7.071   7.733  34.725  0.00  0.00    +0.414 C 
ATOM     22  O   UNL     1       5.976   8.183  34.391  0.00  0.00    -0.240 OA
ATOM     23  O   UNL     1       8.097   8.265  34.299  0.00  0.00    -0.240 OA
ENDBRANCH  12  21
BRANCH  14  24
ATOM     24  O   UNL     1       3.658   5.026  35.562  0.00  0.00    -0.390 OA
ATOM     25  H   UNL     1       3.718   4.974  36.519  0.00  0.00    +0.210 HD
ENDBRANCH  14  24
BRANCH  12  26
ATOM     26  O   UNL     1       7.965   6.849  36.826  0.00  0.00    -0.343 OA
ATOM     27  C   UNL     1       8.979   5.871  37.167  0.00  0.00    +0.198 C 
ENDBRANCH  12  26
ENDBRANCH   9  10
BRANCH   9  28
ATOM     28  O   UNL     1       7.329   3.330  31.967  0.00  0.00    -0.387 OA
ATOM     29  H   UNL     1       6.598   2.723  32.104  0.00  0.00    +0.210 HD
ENDBRANCH   9  28
ENDBRANCH   6   9
ENDBRANCH   5   6
ENDBRANCH   3   5
BRANCH   1  30
ATOM     30  O   UNL     1       6.136  -1.492  32.815  0.00  0.00    -0.444 OA
BRANCH  30  31
ATOM     31  C   UNL     1       6.651  -2.623  32.108  0.00  0.00    +0.292 C 
BRANCH  31  33
ATOM     32  N   UNL     1       6.453  -3.644  29.858  0.00  0.00    -0.131 NA
ATOM     33  C   UNL     1       6.183  -2.612  30.710  0.00  0.00    +0.121 A 
ATOM     34  C   UNL     1       5.443  -1.663  30.045  0.00  0.00    +0.143 A 
ATOM     35  N   UNL     1       5.257  -2.177  28.782  0.00  0.00    -0.220 N 
ATOM     36  N   UNL     1       5.892  -3.370  28.686  0.00  0.00    -0.060 NA
BRANCH  35  37
ATOM     37  C   UNL     1       4.506  -1.630  27.711  0.00  0.00    +0.067 A 
ATOM     38  C   UNL     1       4.909  -1.837  26.382  0.00  0.00    +0.030 A 
ATOM     39  C   UNL     1       4.201  -1.248  25.335  0.00  0.00    +0.031 A 
ATOM     40  C   UNL     1       3.082  -0.460  25.609  0.00  0.00    +0.109 A 
ATOM     41  C   UNL     1       2.661  -0.253  26.926  0.00  0.00    +0.031 A 
ATOM     42  C   UNL     1       3.369  -0.848  27.977  0.00  0.00    +0.030 A 
BRANCH  40  43
ATOM     43  S   UNL     1       2.300   0.394  24.266  0.00  0.00    +0.074 S 
ATOM     44  O   UNL     1       3.193   1.457  23.847  0.00  0.00    -0.150 OA
ATOM     45  O   UNL     1       1.834  -0.580  23.308  0.00  0.00    -0.150 OA
BRANCH  43  46
ATOM     46  N   UNL     1       0.999   1.179  25.003  0.00  0.00    -0.194 N 
ATOM     47  H   UNL     1       1.130   1.066  26.004  0.00  0.00    +0.176 HD
ATOM     48  C   UNL     1       0.893   2.526  24.597  0.00  0.00    +0.177 A 
ATOM     49  S   UNL     1       1.516   3.820  25.523  0.00  0.00    -0.059 S 
ATOM     50  C   UNL     1       0.837   4.922  24.396  0.00  0.00    +0.068 A 
ATOM     51  C   UNL     1       0.122   4.225  23.445  0.00  0.00    +0.120 A 
ATOM     52  N   UNL     1       0.183   2.847  23.544  0.00  0.00    -0.232 NA
ENDBRANCH  43  46
ENDBRANCH  40  43
ENDBRANCH  35  37
ENDBRANCH  31  33
ENDBRANCH  30  31
ENDBRANCH   1  30
TORSDOF 16
