REMARK VINA RESULT:    -6.365     15.593     17.581
REMARK INTER + INTRA:         -13.495
REMARK INTER:                 -10.875
REMARK INTRA:                  -2.620
REMARK UNBOUND:                -1.921
REMARK  Name = lig_assembled_23.pdb
REMARK  18 active torsions:
REMARK  status: ('A' for Active; 'I' for Inactive)
REMARK    1  A    between atoms: _2  and  _10
REMARK    2  A    between atoms: _3  and  _41
REMARK    3  A    between atoms: _5  and  _21
REMARK    4  A    between atoms: _7  and  _8
REMARK    5  A    between atoms: _7  and  _21
REMARK    6  A    between atoms: _12  and  _41
REMARK    7  A    between atoms: _17  and  _37
REMARK    8  A    between atoms: _19  and  _25
REMARK    9  A    between atoms: _20  and  _24
REMARK   10  A    between atoms: _24  and  _25
REMARK   11  A    between atoms: _27  and  _28
REMARK   12  A    between atoms: _29  and  _30
REMARK   13  A    between atoms: _31  and  _33
REMARK   14  A    between atoms: _33  and  _34
REMARK   15  A    between atoms: _33  and  _35
REMARK   16  A    between atoms: _35  and  _36
REMARK   17  A    between atoms: _35  and  _37
REMARK   18  A    between atoms: _38  and  _40
REMARK                            x       y       z     vdW  Elec       q    Type
REMARK                         _______ _______ _______ _____ _____    ______ ____
ROOT
ATOM      1  C   UNL     1      -2.384   3.305  28.047  0.00  0.00    +0.141 C 
ENDROOT
BRANCH   1   4
ATOM      2  C   UNL     1      -0.591   3.269  29.746  0.00  0.00    +0.401 C 
ATOM      3  O   UNL     1      -0.360   4.477  29.664  0.00  0.00    -0.226 OA
ATOM      4  N   UNL     1      -1.516   2.636  29.024  0.00  0.00    -0.279 N 
ATOM      5  H   UNL     1      -1.625   1.640  29.156  0.00  0.00    +0.152 HD
BRANCH   2   6
ATOM      6  O   UNL     1       0.169   2.478  30.664  0.00  0.00    -0.444 OA
BRANCH   6   7
ATOM      7  C   UNL     1      -0.125   2.884  32.003  0.00  0.00    +0.292 C 
BRANCH   7   9
ATOM      8  N   UNL     1       1.094   3.610  34.028  0.00  0.00    -0.131 NA
ATOM      9  C   UNL     1       1.117   3.228  32.717  0.00  0.00    +0.121 A 
ATOM     10  C   UNL     1       2.420   3.238  32.271  0.00  0.00    +0.143 A 
ATOM     11  N   UNL     1       3.166   3.626  33.359  0.00  0.00    -0.220 N 
ATOM     12  N   UNL     1       2.340   3.853  34.409  0.00  0.00    -0.060 NA
BRANCH  11  13
ATOM     13  C   UNL     1       4.571   3.801  33.460  0.00  0.00    +0.069 A 
ATOM     14  C   UNL     1       5.080   4.859  34.227  0.00  0.00    +0.056 A 
ATOM     15  C   UNL     1       6.463   5.056  34.300  0.00  0.00    +0.107 A 
ATOM     16  C   UNL     1       7.346   4.198  33.642  0.00  0.00    +0.028 A 
ATOM     17  C   UNL     1       6.838   3.138  32.892  0.00  0.00    +0.004 A 
ATOM     18  C   UNL     1       5.456   2.940  32.795  0.00  0.00    +0.028 A 
BRANCH  15  19
ATOM     19  S   UNL     1       7.085   6.428  35.224  0.00  0.00    +0.056 S 
ATOM     20  O   UNL     1       6.007   6.993  36.000  0.00  0.00    -0.153 OA
ATOM     21  O   UNL     1       8.361   6.075  35.802  0.00  0.00    -0.153 OA
BRANCH  19  22
ATOM     22  N   UNL     1       7.437   7.535  34.011  0.00  0.00    -0.204 NA
ATOM     23  H   UNL     1       6.582   7.802  33.524  0.00  0.00    +0.144 HD
ATOM     24  H   UNL     1       8.165   7.163  33.400  0.00  0.00    +0.144 HD
ENDBRANCH  19  22
ENDBRANCH  15  19
ENDBRANCH  11  13
ENDBRANCH   7   9
ENDBRANCH   6   7
ENDBRANCH   2   6
ENDBRANCH   1   4
BRANCH   1  25
ATOM     25  C   UNL     1      -1.918   3.067  26.614  0.00  0.00    +0.163 C 
BRANCH  25  26
ATOM     26  O   UNL     1      -2.957   2.423  25.859  0.00  0.00    -0.388 OA
ATOM     27  H   UNL     1      -2.965   1.484  26.061  0.00  0.00    +0.210 HD
ENDBRANCH  25  26
BRANCH  25  28
ATOM     28  C   UNL     1      -1.522   4.408  25.973  0.00  0.00    +0.175 C 
BRANCH  28  29
ATOM     29  C   UNL     1      -0.595   4.220  24.764  0.00  0.00    +0.176 C 
ATOM     30  O   UNL     1      -1.387   3.669  23.675  0.00  0.00    -0.332 OA
ATOM     31  C   UNL     1      -0.687   3.519  22.395  0.00  0.00    +0.277 C 
ATOM     32  C   UNL     1       0.603   2.683  22.579  0.00  0.00    +0.110 C 
ATOM     33  C   UNL     1       1.463   3.211  23.747  0.00  0.00    +0.143 C 
ATOM     34  C   UNL     1       0.635   3.331  25.027  0.00  0.00    +0.133 C 
BRANCH  34  35
ATOM     35  N   UNL     1       1.442   3.917  26.109  0.00  0.00    -0.308 N 
ATOM     36  H   UNL     1       1.681   4.896  26.042  0.00  0.00    +0.149 HD
ATOM     37  C   UNL     1       1.878   3.239  27.174  0.00  0.00    +0.210 C 
ATOM     38  C   UNL     1       1.518   1.742  27.234  0.00  0.00    +0.109 C 
ATOM     39  O   UNL     1       2.540   3.759  28.073  0.00  0.00    -0.276 OA
ENDBRANCH  34  35
BRANCH  31  40
ATOM     40  C   UNL     1      -0.328   4.898  21.803  0.00  0.00    +0.414 C 
ATOM     41  O   UNL     1       0.776   5.085  21.293  0.00  0.00    -0.240 OA
ATOM     42  O   UNL     1      -1.142   5.822  21.835  0.00  0.00    -0.240 OA
ENDBRANCH  31  40
BRANCH  33  43
ATOM     43  O   UNL     1       2.559   2.325  23.977  0.00  0.00    -0.390 OA
ATOM     44  H   UNL     1       3.315   2.826  24.293  0.00  0.00    +0.210 HD
ENDBRANCH  33  43
BRANCH  31  45
ATOM     45  O   UNL     1      -1.566   2.810  21.484  0.00  0.00    -0.343 OA
ATOM     46  C   UNL     1      -2.911   2.589  21.978  0.00  0.00    +0.198 C 
ENDBRANCH  31  45
ENDBRANCH  28  29
BRANCH  28  47
ATOM     47  O   UNL     1      -0.895   5.261  26.952  0.00  0.00    -0.387 OA
ATOM     48  H   UNL     1      -0.275   5.849  26.514  0.00  0.00    +0.210 HD
ENDBRANCH  28  47
ENDBRANCH  25  28
ENDBRANCH   1  25
TORSDOF 16
