REMARK VINA RESULT:    -5.354     11.435     15.356
REMARK INTER + INTRA:         -12.541
REMARK INTER:                 -10.116
REMARK INTRA:                  -2.425
REMARK UNBOUND:                -2.805
REMARK  Name = lig_assembled_72.pdb
REMARK  20 active torsions:
REMARK  status: ('A' for Active; 'I' for Inactive)
REMARK    1  A    between atoms: _2  and  _9
REMARK    2  A    between atoms: _4  and  _17
REMARK    3  A    between atoms: _5  and  _9
REMARK    4  A    between atoms: _5  and  _12
REMARK    5  A    between atoms: _6  and  _7
REMARK    6  A    between atoms: _6  and  _17
REMARK    7  A    between atoms: _9  and  _10
REMARK    8  A    between atoms: _9  and  _11
REMARK    9  A    between atoms: _13  and  _33
REMARK   10  A    between atoms: _15  and  _21
REMARK   11  A    between atoms: _16  and  _20
REMARK   12  A    between atoms: _20  and  _21
REMARK   13  A    between atoms: _23  and  _24
REMARK   14  A    between atoms: _25  and  _26
REMARK   15  A    between atoms: _27  and  _29
REMARK   16  A    between atoms: _29  and  _30
REMARK   17  A    between atoms: _29  and  _31
REMARK   18  A    between atoms: _31  and  _32
REMARK   19  A    between atoms: _31  and  _33
REMARK   20  A    between atoms: _34  and  _36
REMARK                            x       y       z     vdW  Elec       q    Type
REMARK                         _______ _______ _______ _____ _____    ______ ____
ROOT
ATOM      1  C   UNL     1       9.692   4.111  37.368  0.00  0.00    +0.163 C 
ENDROOT
BRANCH   1   2
ATOM      2  O   UNL     1       9.826   5.505  37.046  0.00  0.00    -0.388 OA
ATOM      3  H   UNL     1       8.955   5.905  36.988  0.00  0.00    +0.210 HD
ENDBRANCH   1   2
BRANCH   1   4
ATOM      4  C   UNL     1       8.906   3.367  36.275  0.00  0.00    +0.175 C 
BRANCH   4   5
ATOM      5  C   UNL     1       7.952   4.298  35.514  0.00  0.00    +0.176 C 
ATOM      6  O   UNL     1       7.189   5.055  36.494  0.00  0.00    -0.332 OA
ATOM      7  C   UNL     1       6.294   6.079  35.947  0.00  0.00    +0.277 C 
ATOM      8  C   UNL     1       5.334   5.457  34.904  0.00  0.00    +0.110 C 
ATOM      9  C   UNL     1       6.096   4.617  33.858  0.00  0.00    +0.143 C 
ATOM     10  C   UNL     1       6.999   3.586  34.536  0.00  0.00    +0.133 C 
BRANCH  10  11
ATOM     11  N   UNL     1       7.785   2.850  33.532  0.00  0.00    -0.308 N 
ATOM     12  H   UNL     1       8.466   3.368  32.995  0.00  0.00    +0.149 HD
ATOM     13  C   UNL     1       7.657   1.544  33.286  0.00  0.00    +0.210 C 
ATOM     14  C   UNL     1       6.592   0.789  34.103  0.00  0.00    +0.109 C 
ATOM     15  O   UNL     1       8.339   0.951  32.449  0.00  0.00    -0.276 OA
ENDBRANCH  10  11
BRANCH   7  16
ATOM     16  C   UNL     1       7.102   7.218  35.291  0.00  0.00    +0.414 C 
ATOM     17  O   UNL     1       6.598   7.902  34.401  0.00  0.00    -0.240 OA
ATOM     18  O   UNL     1       8.256   7.452  35.651  0.00  0.00    -0.240 OA
ENDBRANCH   7  16
BRANCH   9  19
ATOM     19  O   UNL     1       5.165   3.943  33.011  0.00  0.00    -0.390 OA
ATOM     20  H   UNL     1       5.215   2.997  33.168  0.00  0.00    +0.210 HD
ENDBRANCH   9  19
BRANCH   7  21
ATOM     21  O   UNL     1       5.500   6.610  37.040  0.00  0.00    -0.343 OA
ATOM     22  C   UNL     1       4.523   5.692  37.590  0.00  0.00    +0.198 C 
ENDBRANCH   7  21
ENDBRANCH   4   5
BRANCH   4  23
ATOM     23  O   UNL     1       8.173   2.267  36.851  0.00  0.00    -0.387 OA
ATOM     24  H   UNL     1       8.374   1.461  36.369  0.00  0.00    +0.210 HD
ENDBRANCH   4  23
ENDBRANCH   1   4
BRANCH   1  25
ATOM     25  C   UNL     1      11.070   3.477  37.526  0.00  0.00    +0.141 C 
BRANCH  25  28
ATOM     26  C   UNL     1      12.386   2.860  35.527  0.00  0.00    +0.401 C 
ATOM     27  O   UNL     1      12.115   1.660  35.604  0.00  0.00    -0.226 OA
ATOM     28  N   UNL     1      11.945   3.780  36.386  0.00  0.00    -0.279 N 
ATOM     29  H   UNL     1      12.230   4.739  36.246  0.00  0.00    +0.152 HD
BRANCH  26  30
ATOM     30  O   UNL     1      13.224   3.316  34.463  0.00  0.00    -0.444 OA
BRANCH  30  31
ATOM     31  C   UNL     1      14.575   3.408  34.924  0.00  0.00    +0.292 C 
BRANCH  31  33
ATOM     32  N   UNL     1      14.363   5.859  35.182  0.00  0.00    -0.131 NA
ATOM     33  C   UNL     1      15.084   4.780  34.749  0.00  0.00    +0.120 A 
ATOM     34  C   UNL     1      16.258   5.224  34.180  0.00  0.00    +0.137 A 
ATOM     35  N   UNL     1      16.196   6.586  34.297  0.00  0.00    -0.244 N 
ATOM     36  N   UNL     1      15.049   6.955  34.901  0.00  0.00    -0.065 NA
BRANCH  35  37
ATOM     37  C   UNL     1      17.185   7.583  33.862  0.00  0.00    +0.083 C 
ATOM     38  C   UNL     1      18.513   6.871  33.541  0.00  0.00    +0.038 C 
ATOM     39  C   UNL     1      17.413   8.610  34.989  0.00  0.00    +0.038 C 
BRANCH  37  40
ATOM     40  C   UNL     1      16.724   8.327  32.579  0.00  0.00    +0.185 C 
BRANCH  40  41
ATOM     41  O   UNL     1      15.586   7.720  31.969  0.00  0.00    -0.393 OA
ATOM     42  H   UNL     1      14.806   8.217  32.298  0.00  0.00    +0.209 HD
ENDBRANCH  40  41
ENDBRANCH  37  40
ENDBRANCH  35  37
ENDBRANCH  31  33
ENDBRANCH  30  31
ENDBRANCH  26  30
ENDBRANCH  25  28
ENDBRANCH   1  25
TORSDOF 16
