REMARK VINA RESULT:    -6.299     17.814     23.318
REMARK INTER + INTRA:         -16.184
REMARK INTER:                 -12.928
REMARK INTRA:                  -3.256
REMARK UNBOUND:                -3.256
REMARK  Name = lig_assembled_47.pdb
REMARK  22 active torsions:
REMARK  status: ('A' for Active; 'I' for Inactive)
REMARK    1  A    between atoms: _2  and  _9
REMARK    2  A    between atoms: _4  and  _30
REMARK    3  A    between atoms: _6  and  _7
REMARK    4  A    between atoms: _6  and  _30
REMARK    5  A    between atoms: _9  and  _10
REMARK    6  A    between atoms: _10  and  _11
REMARK    7  A    between atoms: _10  and  _12
REMARK    8  A    between atoms: _11  and  _24
REMARK    9  A    between atoms: _12  and  _13
REMARK   10  A    between atoms: _12  and  _19
REMARK   11  A    between atoms: _26  and  _46
REMARK   12  A    between atoms: _28  and  _34
REMARK   13  A    between atoms: _29  and  _33
REMARK   14  A    between atoms: _33  and  _34
REMARK   15  A    between atoms: _36  and  _37
REMARK   16  A    between atoms: _38  and  _39
REMARK   17  A    between atoms: _40  and  _42
REMARK   18  A    between atoms: _42  and  _43
REMARK   19  A    between atoms: _42  and  _44
REMARK   20  A    between atoms: _44  and  _45
REMARK   21  A    between atoms: _44  and  _46
REMARK   22  A    between atoms: _47  and  _49
REMARK                            x       y       z     vdW  Elec       q    Type
REMARK                         _______ _______ _______ _____ _____    ______ ____
ROOT
ATOM      1  C   UNL     1      -2.551   4.009  29.643  0.00  0.00    +0.401 C 
ATOM      2  O   UNL     1      -3.010   3.305  30.546  0.00  0.00    -0.226 OA
ATOM      3  N   UNL     1      -1.435   4.730  29.756  0.00  0.00    -0.279 N 
ATOM      4  H   UNL     1      -1.133   5.269  28.956  0.00  0.00    +0.152 HD
ENDROOT
BRANCH   3   5
ATOM      5  C   UNL     1      -0.620   4.785  30.976  0.00  0.00    +0.141 C 
BRANCH   5   6
ATOM      6  C   UNL     1       0.763   4.180  30.764  0.00  0.00    +0.163 C 
BRANCH   6   7
ATOM      7  O   UNL     1       1.777   5.137  31.113  0.00  0.00    -0.388 OA
ATOM      8  H   UNL     1       2.423   4.724  31.690  0.00  0.00    +0.210 HD
ENDBRANCH   6   7
BRANCH   6   9
ATOM      9  C   UNL     1       0.900   2.902  31.608  0.00  0.00    +0.175 C 
BRANCH   9  10
ATOM     10  C   UNL     1       2.000   1.972  31.075  0.00  0.00    +0.176 C 
ATOM     11  O   UNL     1       1.397   0.678  30.798  0.00  0.00    -0.332 OA
ATOM     12  C   UNL     1       2.281  -0.314  30.178  0.00  0.00    +0.277 C 
ATOM     13  C   UNL     1       3.560  -0.505  31.029  0.00  0.00    +0.110 C 
ATOM     14  C   UNL     1       4.220   0.846  31.376  0.00  0.00    +0.143 C 
ATOM     15  C   UNL     1       3.211   1.803  32.012  0.00  0.00    +0.133 C 
BRANCH  15  16
ATOM     16  N   UNL     1       3.829   3.115  32.258  0.00  0.00    -0.308 N 
ATOM     17  H   UNL     1       4.200   3.618  31.464  0.00  0.00    +0.149 HD
ATOM     18  C   UNL     1       3.932   3.685  33.462  0.00  0.00    +0.210 C 
ATOM     19  C   UNL     1       3.381   2.881  34.655  0.00  0.00    +0.109 C 
ATOM     20  O   UNL     1       4.442   4.792  33.637  0.00  0.00    -0.276 OA
ENDBRANCH  15  16
BRANCH  12  21
ATOM     21  C   UNL     1       2.671   0.118  28.749  0.00  0.00    +0.414 C 
ATOM     22  O   UNL     1       2.083   1.050  28.201  0.00  0.00    -0.240 OA
ATOM     23  O   UNL     1       3.572  -0.464  28.145  0.00  0.00    -0.240 OA
ENDBRANCH  12  21
BRANCH  12  24
ATOM     24  O   UNL     1       1.571  -1.578  30.129  0.00  0.00    -0.343 OA
ATOM     25  C   UNL     1       0.150  -1.473  29.859  0.00  0.00    +0.198 C 
ENDBRANCH  12  24
BRANCH  14  26
ATOM     26  O   UNL     1       5.304   0.635  32.282  0.00  0.00    -0.390 OA
ATOM     27  H   UNL     1       5.039   0.901  33.166  0.00  0.00    +0.210 HD
ENDBRANCH  14  26
ENDBRANCH   9  10
BRANCH   9  28
ATOM     28  O   UNL     1      -0.359   2.203  31.659  0.00  0.00    -0.387 OA
ATOM     29  H   UNL     1      -0.437   1.626  30.895  0.00  0.00    +0.210 HD
ENDBRANCH   9  28
ENDBRANCH   6   9
ENDBRANCH   5   6
ENDBRANCH   3   5
BRANCH   1  30
ATOM     30  O   UNL     1      -3.237   4.068  28.390  0.00  0.00    -0.444 OA
BRANCH  30  31
ATOM     31  C   UNL     1      -2.654   3.131  27.481  0.00  0.00    +0.292 C 
BRANCH  31  33
ATOM     32  N   UNL     1      -1.519   5.080  26.443  0.00  0.00    -0.131 NA
ATOM     33  C   UNL     1      -1.535   3.741  26.735  0.00  0.00    +0.120 A 
ATOM     34  C   UNL     1      -0.406   3.156  26.205  0.00  0.00    +0.137 A 
ATOM     35  N   UNL     1       0.227   4.179  25.563  0.00  0.00    -0.251 N 
ATOM     36  N   UNL     1      -0.433   5.337  25.726  0.00  0.00    -0.065 NA
BRANCH  35  37
ATOM     37  C   UNL     1       1.367   4.103  24.659  0.00  0.00    +0.160 C 
BRANCH  37  38
ATOM     38  C   UNL     1       0.981   3.988  23.182  0.00  0.00    +0.131 C 
BRANCH  38  39
ATOM     39  C   UNL     1       1.036   5.388  22.584  0.00  0.00    +0.311 C 
ATOM     40  O   UNL     1       0.082   5.909  22.028  0.00  0.00    -0.251 OA
BRANCH  39  41
ATOM     41  O   UNL     1       2.168   6.093  22.790  0.00  0.00    -0.480 OA
ATOM     42  H   UNL     1       2.162   7.048  22.613  0.00  0.00    +0.295 HD
ENDBRANCH  39  41
ENDBRANCH  38  39
BRANCH  38  43
ATOM     43  C   UNL     1       1.836   2.970  22.362  0.00  0.00    +0.064 C 
BRANCH  43  44
ATOM     44  C   UNL     1       2.006   1.586  22.992  0.00  0.00    -0.039 A 
ATOM     45  C   UNL     1       2.923   1.407  24.046  0.00  0.00    +0.004 A 
ATOM     46  C   UNL     1       3.103   0.155  24.645  0.00  0.00    +0.000 A 
ATOM     47  C   UNL     1       2.383  -0.945  24.190  0.00  0.00    +0.000 A 
ATOM     48  C   UNL     1       1.487  -0.792  23.137  0.00  0.00    +0.000 A 
ATOM     49  C   UNL     1       1.292   0.463  22.550  0.00  0.00    +0.004 A 
ENDBRANCH  43  44
BRANCH  43  50
ATOM     50  C   UNL     1       1.341   2.910  20.911  0.00  0.00    -0.039 A 
ATOM     51  C   UNL     1       2.233   3.121  19.847  0.00  0.00    +0.004 A 
ATOM     52  C   UNL     1       1.759   3.238  18.536  0.00  0.00    +0.000 A 
ATOM     53  C   UNL     1       0.398   3.120  18.268  0.00  0.00    +0.000 A 
ATOM     54  C   UNL     1      -0.493   2.873  19.305  0.00  0.00    +0.000 A 
ATOM     55  C   UNL     1      -0.025   2.769  20.614  0.00  0.00    +0.004 A 
ENDBRANCH  43  50
ENDBRANCH  38  43
ENDBRANCH  37  38
ENDBRANCH  35  37
ENDBRANCH  31  33
ENDBRANCH  30  31
ENDBRANCH   1  30
TORSDOF 20
