REMARK VINA RESULT:    -5.949      2.547      4.815
REMARK INTER + INTRA:         -13.908
REMARK INTER:                 -11.597
REMARK INTRA:                  -2.311
REMARK UNBOUND:                -2.569
REMARK  Name = lig_assembled_18.pdb
REMARK  19 active torsions:
REMARK  status: ('A' for Active; 'I' for Inactive)
REMARK    1  A    between atoms: _2  and  _10
REMARK    2  A    between atoms: _3  and  _12
REMARK    3  A    between atoms: _5  and  _21
REMARK    4  A    between atoms: _7  and  _8
REMARK    5  A    between atoms: _7  and  _21
REMARK    6  A    between atoms: _10  and  _11
REMARK    7  A    between atoms: _12  and  _13
REMARK    8  A    between atoms: _17  and  _37
REMARK    9  A    between atoms: _19  and  _25
REMARK   10  A    between atoms: _20  and  _24
REMARK   11  A    between atoms: _24  and  _25
REMARK   12  A    between atoms: _27  and  _28
REMARK   13  A    between atoms: _29  and  _30
REMARK   14  A    between atoms: _31  and  _33
REMARK   15  A    between atoms: _33  and  _34
REMARK   16  A    between atoms: _33  and  _35
REMARK   17  A    between atoms: _35  and  _36
REMARK   18  A    between atoms: _35  and  _37
REMARK   19  A    between atoms: _38  and  _40
REMARK                            x       y       z     vdW  Elec       q    Type
REMARK                         _______ _______ _______ _____ _____    ______ ____
ROOT
ATOM      1  C   UNL     1       3.349   3.691  32.466  0.00  0.00    +0.163 C 
ENDROOT
BRANCH   1   2
ATOM      2  O   UNL     1       2.538   4.032  33.603  0.00  0.00    -0.388 OA
ATOM      3  H   UNL     1       2.283   4.956  33.549  0.00  0.00    +0.210 HD
ENDBRANCH   1   2
BRANCH   1   4
ATOM      4  C   UNL     1       4.666   3.031  32.908  0.00  0.00    +0.175 C 
BRANCH   4   5
ATOM      5  C   UNL     1       5.234   3.672  34.183  0.00  0.00    +0.176 C 
ATOM      6  O   UNL     1       5.255   5.113  33.988  0.00  0.00    -0.332 OA
ATOM      7  C   UNL     1       5.672   5.903  35.150  0.00  0.00    +0.277 C 
ATOM      8  C   UNL     1       7.052   5.424  35.664  0.00  0.00    +0.110 C 
ATOM      9  C   UNL     1       7.088   3.893  35.856  0.00  0.00    +0.143 C 
ATOM     10  C   UNL     1       6.633   3.171  34.588  0.00  0.00    +0.133 C 
BRANCH  10  11
ATOM     11  N   UNL     1       6.589   1.717  34.811  0.00  0.00    -0.308 N 
ATOM     12  H   UNL     1       5.903   1.360  35.462  0.00  0.00    +0.149 HD
ATOM     13  C   UNL     1       7.395   0.838  34.210  0.00  0.00    +0.210 C 
ATOM     14  C   UNL     1       8.446   1.415  33.243  0.00  0.00    +0.109 C 
ATOM     15  O   UNL     1       7.325  -0.376  34.405  0.00  0.00    -0.276 OA
ENDBRANCH  10  11
BRANCH   7  16
ATOM     16  C   UNL     1       4.634   5.796  36.286  0.00  0.00    +0.414 C 
ATOM     17  O   UNL     1       4.978   5.945  37.458  0.00  0.00    -0.240 OA
ATOM     18  O   UNL     1       3.452   5.559  36.031  0.00  0.00    -0.240 OA
ENDBRANCH   7  16
BRANCH   7  19
ATOM     19  O   UNL     1       5.795   7.287  34.731  0.00  0.00    -0.343 OA
ATOM     20  C   UNL     1       7.148   7.719  34.437  0.00  0.00    +0.198 C 
ENDBRANCH   7  19
BRANCH   9  21
ATOM     21  O   UNL     1       8.416   3.480  36.182  0.00  0.00    -0.390 OA
ATOM     22  H   UNL     1       8.666   3.849  37.033  0.00  0.00    +0.210 HD
ENDBRANCH   9  21
ENDBRANCH   4   5
BRANCH   4  23
ATOM     23  O   UNL     1       5.636   3.098  31.844  0.00  0.00    -0.387 OA
ATOM     24  H   UNL     1       6.293   3.768  32.050  0.00  0.00    +0.210 HD
ENDBRANCH   4  23
ENDBRANCH   1   4
BRANCH   1  25
ATOM     25  C   UNL     1       2.586   2.742  31.548  0.00  0.00    +0.141 C 
BRANCH  25  28
ATOM     26  C   UNL     1       1.858   3.528  29.322  0.00  0.00    +0.401 C 
ATOM     27  O   UNL     1       0.695   3.739  29.673  0.00  0.00    -0.226 OA
ATOM     28  N   UNL     1       2.807   3.056  30.131  0.00  0.00    -0.279 N 
ATOM     29  H   UNL     1       3.729   2.906  29.748  0.00  0.00    +0.152 HD
BRANCH  26  30
ATOM     30  O   UNL     1       2.234   3.793  27.968  0.00  0.00    -0.444 OA
BRANCH  30  31
ATOM     31  C   UNL     1       1.625   2.829  27.105  0.00  0.00    +0.292 C 
BRANCH  31  33
ATOM     32  N   UNL     1       2.321   2.444  24.757  0.00  0.00    -0.131 NA
ATOM     33  C   UNL     1       1.741   3.254  25.697  0.00  0.00    +0.120 A 
ATOM     34  C   UNL     1       1.337   4.423  25.094  0.00  0.00    +0.137 A 
ATOM     35  N   UNL     1       1.672   4.254  23.783  0.00  0.00    -0.242 N 
ATOM     36  N   UNL     1       2.284   3.071  23.588  0.00  0.00    -0.065 NA
BRANCH  35  37
ATOM     37  C   UNL     1       1.559   5.195  22.694  0.00  0.00    +0.240 C 
BRANCH  37  38
ATOM     38  C   UNL     1       0.481   4.805  21.709  0.00  0.00    +0.235 C 
ATOM     39  O   UNL     1      -0.289   5.630  21.223  0.00  0.00    -0.274 OA
ATOM     40  N   UNL     1       0.464   3.471  21.355  0.00  0.00    -0.309 N 
ATOM     41  H   UNL     1       0.993   2.796  21.890  0.00  0.00    +0.149 HD
BRANCH  40  42
ATOM     42  C   UNL     1      -0.502   2.952  20.409  0.00  0.00    +0.146 C 
BRANCH  42  43
ATOM     43  C   UNL     1       0.198   2.524  19.160  0.00  0.00    +0.007 A 
ATOM     44  S   UNL     1       0.353   3.596  17.832  0.00  0.00    -0.100 S 
ATOM     45  C   UNL     1       1.141   2.411  16.884  0.00  0.00    +0.045 A 
ATOM     46  C   UNL     1       1.301   1.224  17.565  0.00  0.00    +0.008 A 
ATOM     47  C   UNL     1       0.764   1.293  18.882  0.00  0.00    +0.013 A 
ENDBRANCH  42  43
ENDBRANCH  40  42
ENDBRANCH  37  38
ENDBRANCH  35  37
ENDBRANCH  31  33
ENDBRANCH  30  31
ENDBRANCH  26  30
ENDBRANCH  25  28
ENDBRANCH   1  25
TORSDOF 17
