REMARK VINA RESULT:    -6.602     14.425     16.554
REMARK INTER + INTRA:         -13.761
REMARK INTER:                 -11.215
REMARK INTRA:                  -2.546
REMARK UNBOUND:                -2.334
REMARK  Name = lig_assembled_15.pdb
REMARK  16 active torsions:
REMARK  status: ('A' for Active; 'I' for Inactive)
REMARK    1  A    between atoms: _2  and  _9
REMARK    2  A    between atoms: _4  and  _18
REMARK    3  A    between atoms: _6  and  _7
REMARK    4  A    between atoms: _6  and  _18
REMARK    5  A    between atoms: _14  and  _34
REMARK    6  A    between atoms: _16  and  _22
REMARK    7  A    between atoms: _17  and  _21
REMARK    8  A    between atoms: _21  and  _22
REMARK    9  A    between atoms: _24  and  _25
REMARK   10  A    between atoms: _26  and  _27
REMARK   11  A    between atoms: _28  and  _30
REMARK   12  A    between atoms: _30  and  _31
REMARK   13  A    between atoms: _30  and  _32
REMARK   14  A    between atoms: _32  and  _33
REMARK   15  A    between atoms: _32  and  _34
REMARK   16  A    between atoms: _35  and  _37
REMARK                            x       y       z     vdW  Elec       q    Type
REMARK                         _______ _______ _______ _____ _____    ______ ____
ROOT
ATOM      1  C   UNL     1      17.755   4.049  22.630  0.00  0.00    +0.163 C 
ENDROOT
BRANCH   1   2
ATOM      2  O   UNL     1      17.128   5.266  23.065  0.00  0.00    -0.388 OA
ATOM      3  H   UNL     1      16.484   5.547  22.411  0.00  0.00    +0.210 HD
ENDBRANCH   1   2
BRANCH   1   4
ATOM      4  C   UNL     1      16.759   3.199  21.848  0.00  0.00    +0.141 C 
BRANCH   4   7
ATOM      5  C   UNL     1      17.933   1.355  20.696  0.00  0.00    +0.401 C 
ATOM      6  O   UNL     1      18.293   2.053  19.745  0.00  0.00    -0.226 OA
ATOM      7  N   UNL     1      17.208   1.808  21.720  0.00  0.00    -0.279 N 
ATOM      8  H   UNL     1      16.954   1.156  22.449  0.00  0.00    +0.152 HD
BRANCH   5   9
ATOM      9  O   UNL     1      18.301  -0.026  20.722  0.00  0.00    -0.444 OA
BRANCH   9  10
ATOM     10  C   UNL     1      19.005  -0.311  21.934  0.00  0.00    +0.292 C 
BRANCH  10  12
ATOM     11  N   UNL     1      18.811  -2.727  22.428  0.00  0.00    -0.131 NA
ATOM     12  C   UNL     1      18.380  -1.449  22.634  0.00  0.00    +0.121 A 
ATOM     13  C   UNL     1      17.352  -1.465  23.549  0.00  0.00    +0.143 A 
ATOM     14  N   UNL     1      17.208  -2.787  23.900  0.00  0.00    -0.220 N 
ATOM     15  N   UNL     1      18.092  -3.535  23.195  0.00  0.00    -0.060 NA
BRANCH  14  16
ATOM     16  C   UNL     1      16.330  -3.361  24.857  0.00  0.00    +0.067 A 
ATOM     17  C   UNL     1      16.061  -2.711  26.070  0.00  0.00    +0.029 A 
ATOM     18  C   UNL     1      15.226  -3.312  27.017  0.00  0.00    +0.017 A 
ATOM     19  C   UNL     1      14.656  -4.556  26.753  0.00  0.00    +0.018 A 
ATOM     20 BR   UNL     1      13.549  -5.373  28.050  0.00  0.00    -0.050 Br
ATOM     21  C   UNL     1      14.903  -5.204  25.544  0.00  0.00    +0.017 A 
ATOM     22  C   UNL     1      15.737  -4.607  24.595  0.00  0.00    +0.029 A 
ENDBRANCH  14  16
ENDBRANCH  10  12
ENDBRANCH   9  10
ENDBRANCH   5   9
ENDBRANCH   4   7
ENDBRANCH   1   4
BRANCH   1  23
ATOM     23  C   UNL     1      18.287   3.245  23.829  0.00  0.00    +0.175 C 
BRANCH  23  24
ATOM     24  C   UNL     1      18.357   4.092  25.107  0.00  0.00    +0.176 C 
ATOM     25  O   UNL     1      19.630   4.796  25.108  0.00  0.00    -0.332 OA
ATOM     26  C   UNL     1      19.830   5.742  26.210  0.00  0.00    +0.277 C 
ATOM     27  C   UNL     1      19.621   5.038  27.573  0.00  0.00    +0.110 C 
ATOM     28  C   UNL     1      18.294   4.250  27.609  0.00  0.00    +0.143 C 
ATOM     29  C   UNL     1      18.189   3.298  26.416  0.00  0.00    +0.133 C 
BRANCH  29  30
ATOM     30  N   UNL     1      16.885   2.618  26.414  0.00  0.00    -0.308 N 
ATOM     31  H   UNL     1      16.056   3.186  26.303  0.00  0.00    +0.149 HD
ATOM     32  C   UNL     1      16.724   1.299  26.549  0.00  0.00    +0.210 C 
ATOM     33  C   UNL     1      18.004   0.464  26.742  0.00  0.00    +0.109 C 
ATOM     34  O   UNL     1      15.619   0.754  26.529  0.00  0.00    -0.276 OA
ENDBRANCH  29  30
BRANCH  26  35
ATOM     35  C   UNL     1      18.859   6.934  26.090  0.00  0.00    +0.414 C 
ATOM     36  O   UNL     1      18.722   7.719  27.028  0.00  0.00    -0.240 OA
ATOM     37  O   UNL     1      18.212   7.111  25.057  0.00  0.00    -0.240 OA
ENDBRANCH  26  35
BRANCH  28  38
ATOM     38  O   UNL     1      18.214   3.497  28.820  0.00  0.00    -0.390 OA
ATOM     39  H   UNL     1      18.288   2.561  28.621  0.00  0.00    +0.210 HD
ENDBRANCH  28  38
BRANCH  26  40
ATOM     40  O   UNL     1      21.199   6.220  26.147  0.00  0.00    -0.343 OA
ATOM     41  C   UNL     1      21.906   5.895  24.924  0.00  0.00    +0.198 C 
ENDBRANCH  26  40
ENDBRANCH  23  24
BRANCH  23  42
ATOM     42  O   UNL     1      19.585   2.698  23.523  0.00  0.00    -0.387 OA
ATOM     43  H   UNL     1      19.837   2.949  22.631  0.00  0.00    +0.210 HD
ENDBRANCH  23  42
ENDBRANCH   1  23
TORSDOF 14
