REMARK VINA RESULT:    -5.620      2.225      4.264
REMARK INTER + INTRA:         -12.303
REMARK INTER:                  -9.201
REMARK INTRA:                  -3.102
REMARK UNBOUND:                -2.083
REMARK  Name = lig_assembled_35.pdb
REMARK  19 active torsions:
REMARK  status: ('A' for Active; 'I' for Inactive)
REMARK    1  A    between atoms: _2  and  _9
REMARK    2  A    between atoms: _4  and  _17
REMARK    3  A    between atoms: _5  and  _9
REMARK    4  A    between atoms: _5  and  _11
REMARK    5  A    between atoms: _6  and  _7
REMARK    6  A    between atoms: _6  and  _17
REMARK    7  A    between atoms: _9  and  _10
REMARK    8  A    between atoms: _13  and  _33
REMARK    9  A    between atoms: _15  and  _21
REMARK   10  A    between atoms: _16  and  _20
REMARK   11  A    between atoms: _20  and  _21
REMARK   12  A    between atoms: _23  and  _24
REMARK   13  A    between atoms: _25  and  _26
REMARK   14  A    between atoms: _27  and  _29
REMARK   15  A    between atoms: _29  and  _30
REMARK   16  A    between atoms: _29  and  _31
REMARK   17  A    between atoms: _31  and  _32
REMARK   18  A    between atoms: _31  and  _33
REMARK   19  A    between atoms: _34  and  _36
REMARK                            x       y       z     vdW  Elec       q    Type
REMARK                         _______ _______ _______ _____ _____    ______ ____
ROOT
ATOM      1  C   UNL     1      21.082   2.218  25.899  0.00  0.00    +0.163 C 
ENDROOT
BRANCH   1   2
ATOM      2  O   UNL     1      21.540   2.662  27.186  0.00  0.00    -0.388 OA
ATOM      3  H   UNL     1      21.297   3.582  27.314  0.00  0.00    +0.210 HD
ENDBRANCH   1   2
BRANCH   1   4
ATOM      4  C   UNL     1      20.698   3.414  25.010  0.00  0.00    +0.175 C 
BRANCH   4   5
ATOM      5  C   UNL     1      19.274   3.284  24.449  0.00  0.00    +0.176 C 
ATOM      6  O   UNL     1      19.283   2.231  23.446  0.00  0.00    -0.332 OA
ATOM      7  C   UNL     1      17.978   1.891  22.872  0.00  0.00    +0.277 C 
ATOM      8  C   UNL     1      17.294   3.155  22.298  0.00  0.00    +0.110 C 
ATOM      9  C   UNL     1      17.288   4.313  23.317  0.00  0.00    +0.143 C 
ATOM     10  C   UNL     1      18.696   4.580  23.852  0.00  0.00    +0.133 C 
BRANCH  10  11
ATOM     11  N   UNL     1      18.664   5.626  24.886  0.00  0.00    -0.308 N 
ATOM     12  H   UNL     1      18.098   5.462  25.706  0.00  0.00    +0.149 HD
ATOM     13  C   UNL     1      19.335   6.779  24.812  0.00  0.00    +0.210 C 
ATOM     14  C   UNL     1      20.169   7.010  23.537  0.00  0.00    +0.109 C 
ATOM     15  O   UNL     1      19.302   7.631  25.700  0.00  0.00    -0.276 OA
ENDBRANCH  10  11
BRANCH   7  16
ATOM     16  C   UNL     1      17.064   1.248  23.936  0.00  0.00    +0.414 C 
ATOM     17  O   UNL     1      17.307   0.120  24.363  0.00  0.00    -0.240 OA
ATOM     18  O   UNL     1      16.083   1.857  24.367  0.00  0.00    -0.240 OA
ENDBRANCH   7  16
BRANCH   7  19
ATOM     19  O   UNL     1      18.196   0.954  21.786  0.00  0.00    -0.343 OA
ATOM     20  C   UNL     1      17.810   1.438  20.474  0.00  0.00    +0.198 C 
ENDBRANCH   7  19
BRANCH   9  21
ATOM     21  O   UNL     1      16.788   5.498  22.698  0.00  0.00    -0.390 OA
ATOM     22  H   UNL     1      17.428   6.207  22.796  0.00  0.00    +0.210 HD
ENDBRANCH   9  21
ENDBRANCH   4   5
BRANCH   4  23
ATOM     23  O   UNL     1      21.645   3.556  23.933  0.00  0.00    -0.387 OA
ATOM     24  H   UNL     1      21.994   2.694  23.697  0.00  0.00    +0.210 HD
ENDBRANCH   4  23
ENDBRANCH   1   4
BRANCH   1  25
ATOM     25  C   UNL     1      22.170   1.401  25.211  0.00  0.00    +0.141 C 
BRANCH  25  28
ATOM     26  C   UNL     1      21.768   0.269  23.051  0.00  0.00    +0.401 C 
ATOM     27  O   UNL     1      22.396   1.100  22.391  0.00  0.00    -0.226 OA
ATOM     28  N   UNL     1      21.607   0.335  24.373  0.00  0.00    -0.279 N 
ATOM     29  H   UNL     1      21.066  -0.390  24.824  0.00  0.00    +0.152 HD
BRANCH  26  30
ATOM     30  O   UNL     1      21.164  -0.839  22.379  0.00  0.00    -0.444 OA
BRANCH  30  31
ATOM     31  C   UNL     1      20.997  -1.922  23.297  0.00  0.00    +0.292 C 
BRANCH  31  33
ATOM     32  N   UNL     1      18.817  -2.186  22.157  0.00  0.00    -0.131 NA
ATOM     33  C   UNL     1      19.612  -2.429  23.245  0.00  0.00    +0.120 A 
ATOM     34  C   UNL     1      18.900  -3.162  24.168  0.00  0.00    +0.138 A 
ATOM     35  N   UNL     1      17.685  -3.347  23.576  0.00  0.00    -0.238 N 
ATOM     36  N   UNL     1      17.633  -2.740  22.378  0.00  0.00    -0.065 NA
BRANCH  35  37
ATOM     37  C   UNL     1      16.512  -4.045  24.066  0.00  0.00    +0.214 C 
ATOM     38  C   UNL     1      16.903  -5.335  24.781  0.00  0.00    +0.045 C 
BRANCH  37  39
ATOM     39  C   UNL     1      15.656  -3.147  24.936  0.00  0.00    +0.329 C 
ATOM     40  O   UNL     1      15.288  -3.428  26.069  0.00  0.00    -0.249 OA
BRANCH  39  41
ATOM     41  O   UNL     1      15.288  -1.983  24.346  0.00  0.00    -0.479 OA
ATOM     42  H   UNL     1      15.296  -1.980  23.367  0.00  0.00    +0.295 HD
ENDBRANCH  39  41
ENDBRANCH  37  39
ENDBRANCH  35  37
ENDBRANCH  31  33
ENDBRANCH  30  31
ENDBRANCH  26  30
ENDBRANCH  25  28
ENDBRANCH   1  25
TORSDOF 16
