REMARK VINA RESULT:    -6.599     11.268     18.894
REMARK INTER + INTRA:         -13.539
REMARK INTER:                 -11.483
REMARK INTRA:                  -2.056
REMARK UNBOUND:                -2.118
REMARK  Name = lig_assembled_7.pdb
REMARK  19 active torsions:
REMARK  status: ('A' for Active; 'I' for Inactive)
REMARK    1  A    between atoms: _2  and  _9
REMARK    2  A    between atoms: _4  and  _21
REMARK    3  A    between atoms: _5  and  _16
REMARK    4  A    between atoms: _6  and  _7
REMARK    5  A    between atoms: _6  and  _21
REMARK    6  A    between atoms: _10  and  _11
REMARK    7  A    between atoms: _13  and  _14
REMARK    8  A    between atoms: _17  and  _37
REMARK    9  A    between atoms: _19  and  _25
REMARK   10  A    between atoms: _20  and  _24
REMARK   11  A    between atoms: _24  and  _25
REMARK   12  A    between atoms: _27  and  _28
REMARK   13  A    between atoms: _29  and  _30
REMARK   14  A    between atoms: _31  and  _33
REMARK   15  A    between atoms: _33  and  _34
REMARK   16  A    between atoms: _33  and  _35
REMARK   17  A    between atoms: _35  and  _36
REMARK   18  A    between atoms: _35  and  _37
REMARK   19  A    between atoms: _38  and  _40
REMARK                            x       y       z     vdW  Elec       q    Type
REMARK                         _______ _______ _______ _____ _____    ______ ____
ROOT
ATOM      1  C   UNL     1      -3.420   8.050  13.808  0.00  0.00    +0.163 C 
ENDROOT
BRANCH   1   2
ATOM      2  O   UNL     1      -4.519   7.981  14.731  0.00  0.00    -0.388 OA
ATOM      3  H   UNL     1      -4.868   7.086  14.748  0.00  0.00    +0.210 HD
ENDBRANCH   1   2
BRANCH   1   4
ATOM      4  C   UNL     1      -2.530   6.821  13.963  0.00  0.00    +0.141 C 
BRANCH   4   7
ATOM      5  C   UNL     1      -1.347   6.537  16.114  0.00  0.00    +0.401 C 
ATOM      6  O   UNL     1      -0.299   7.048  15.713  0.00  0.00    -0.226 OA
ATOM      7  N   UNL     1      -2.438   6.385  15.362  0.00  0.00    -0.279 N 
ATOM      8  H   UNL     1      -3.247   5.945  15.778  0.00  0.00    +0.152 HD
BRANCH   5   9
ATOM      9  O   UNL     1      -1.419   6.068  17.463  0.00  0.00    -0.444 OA
BRANCH   9  10
ATOM     10  C   UNL     1      -1.310   4.643  17.479  0.00  0.00    +0.292 C 
BRANCH  10  12
ATOM     11  N   UNL     1       0.999   4.107  18.156  0.00  0.00    -0.131 NA
ATOM     12  C   UNL     1      -0.316   4.218  18.483  0.00  0.00    +0.121 A 
ATOM     13  C   UNL     1      -0.473   3.886  19.814  0.00  0.00    +0.143 A 
ATOM     14  N   UNL     1       0.784   3.529  20.253  0.00  0.00    -0.219 N 
ATOM     15  N   UNL     1       1.660   3.720  19.235  0.00  0.00    -0.060 NA
BRANCH  14  16
ATOM     16  C   UNL     1       1.201   3.044  21.536  0.00  0.00    +0.073 A 
ATOM     17  C   UNL     1       1.162   1.642  21.801  0.00  0.00    -0.024 A 
ATOM     18  C   UNL     1       1.571   1.156  23.061  0.00  0.00    +0.008 A 
ATOM     19  C   UNL     1       2.026   2.013  24.060  0.00  0.00    -0.050 A 
ATOM     20  C   UNL     1       2.456   1.463  25.387  0.00  0.00    +0.044 C 
ATOM     21  C   UNL     1       2.065   3.379  23.796  0.00  0.00    +0.008 A 
ATOM     22  C   UNL     1       0.751   0.589  20.794  0.00  0.00    +0.046 C 
ATOM     23  C   UNL     1       1.641   3.922  22.561  0.00  0.00    -0.024 A 
ATOM     24  C   UNL     1       1.646   5.429  22.528  0.00  0.00    +0.046 C 
ENDBRANCH  14  16
ENDBRANCH  10  12
ENDBRANCH   9  10
ENDBRANCH   5   9
ENDBRANCH   4   7
ENDBRANCH   1   4
BRANCH   1  25
ATOM     25  C   UNL     1      -2.586   9.321  14.039  0.00  0.00    +0.175 C 
BRANCH  25  26
ATOM     26  C   UNL     1      -3.020  10.472  13.119  0.00  0.00    +0.176 C 
ATOM     27  O   UNL     1      -1.834  10.975  12.444  0.00  0.00    -0.332 OA
ATOM     28  C   UNL     1      -2.071  12.016  11.439  0.00  0.00    +0.277 C 
ATOM     29  C   UNL     1      -2.862  13.195  12.056  0.00  0.00    +0.110 C 
ATOM     30  C   UNL     1      -4.115  12.706  12.813  0.00  0.00    +0.143 C 
ATOM     31  C   UNL     1      -3.754  11.624  13.830  0.00  0.00    +0.133 C 
BRANCH  31  32
ATOM     32  N   UNL     1      -4.967  11.105  14.483  0.00  0.00    -0.308 N 
ATOM     33  H   UNL     1      -5.604  10.554  13.924  0.00  0.00    +0.149 HD
ATOM     34  C   UNL     1      -5.281  11.314  15.764  0.00  0.00    +0.210 C 
ATOM     35  C   UNL     1      -4.302  12.179  16.581  0.00  0.00    +0.109 C 
ATOM     36  O   UNL     1      -6.296  10.855  16.287  0.00  0.00    -0.276 OA
ENDBRANCH  31  32
BRANCH  28  37
ATOM     37  C   UNL     1      -2.851  11.446  10.235  0.00  0.00    +0.414 C 
ATOM     38  O   UNL     1      -3.620  12.165   9.598  0.00  0.00    -0.240 OA
ATOM     39  O   UNL     1      -2.711  10.269   9.901  0.00  0.00    -0.240 OA
ENDBRANCH  28  37
BRANCH  30  40
ATOM     40  O   UNL     1      -4.728  13.804  13.490  0.00  0.00    -0.390 OA
ATOM     41  H   UNL     1      -5.356  14.232  12.904  0.00  0.00    +0.210 HD
ENDBRANCH  30  40
BRANCH  28  42
ATOM     42  O   UNL     1      -0.782  12.512  10.994  0.00  0.00    -0.343 OA
ATOM     43  C   UNL     1      -0.455  13.853  11.441  0.00  0.00    +0.198 C 
ENDBRANCH  28  42
ENDBRANCH  25  26
BRANCH  25  44
ATOM     44  O   UNL     1      -1.185   9.037  13.853  0.00  0.00    -0.387 OA
ATOM     45  H   UNL     1      -0.928   9.269  12.957  0.00  0.00    +0.210 HD
ENDBRANCH  25  44
ENDBRANCH   1  25
TORSDOF 14
