REMARK VINA RESULT:    -5.659      2.127      3.739
REMARK INTER + INTRA:         -12.785
REMARK INTER:                 -10.742
REMARK INTRA:                  -2.043
REMARK UNBOUND:                -1.667
REMARK  Name = lig_assembled_43.pdb
REMARK  20 active torsions:
REMARK  status: ('A' for Active; 'I' for Inactive)
REMARK    1  A    between atoms: _2  and  _9
REMARK    2  A    between atoms: _4  and  _18
REMARK    3  A    between atoms: _6  and  _7
REMARK    4  A    between atoms: _6  and  _18
REMARK    5  A    between atoms: _9  and  _10
REMARK    6  A    between atoms: _10  and  _11
REMARK    7  A    between atoms: _11  and  _12
REMARK    8  A    between atoms: _12  and  _13
REMARK    9  A    between atoms: _14  and  _34
REMARK   10  A    between atoms: _16  and  _22
REMARK   11  A    between atoms: _17  and  _21
REMARK   12  A    between atoms: _21  and  _22
REMARK   13  A    between atoms: _24  and  _25
REMARK   14  A    between atoms: _26  and  _27
REMARK   15  A    between atoms: _28  and  _30
REMARK   16  A    between atoms: _30  and  _31
REMARK   17  A    between atoms: _30  and  _32
REMARK   18  A    between atoms: _32  and  _33
REMARK   19  A    between atoms: _32  and  _34
REMARK   20  A    between atoms: _35  and  _37
REMARK                            x       y       z     vdW  Elec       q    Type
REMARK                         _______ _______ _______ _____ _____    ______ ____
ROOT
ATOM      1  C   UNL     1       4.304   3.651  32.419  0.00  0.00    +0.163 C 
ENDROOT
BRANCH   1   2
ATOM      2  O   UNL     1       3.576   4.224  33.517  0.00  0.00    -0.388 OA
ATOM      3  H   UNL     1       4.099   4.923  33.918  0.00  0.00    +0.210 HD
ENDBRANCH   1   2
BRANCH   1   4
ATOM      4  C   UNL     1       5.640   3.055  32.896  0.00  0.00    +0.175 C 
BRANCH   4   5
ATOM      5  C   UNL     1       6.082   3.636  34.246  0.00  0.00    +0.176 C 
ATOM      6  O   UNL     1       6.466   5.023  34.033  0.00  0.00    -0.332 OA
ATOM      7  C   UNL     1       6.819   5.776  35.239  0.00  0.00    +0.277 C 
ATOM      8  C   UNL     1       7.930   5.042  36.029  0.00  0.00    +0.110 C 
ATOM      9  C   UNL     1       7.582   3.555  36.254  0.00  0.00    +0.143 C 
ATOM     10  C   UNL     1       7.228   2.870  34.934  0.00  0.00    +0.133 C 
BRANCH  10  11
ATOM     11  N   UNL     1       6.814   1.478  35.171  0.00  0.00    -0.308 N 
ATOM     12  H   UNL     1       6.076   1.313  35.842  0.00  0.00    +0.149 HD
ATOM     13  C   UNL     1       7.350   0.418  34.559  0.00  0.00    +0.210 C 
ATOM     14  C   UNL     1       8.490   0.701  33.563  0.00  0.00    +0.109 C 
ATOM     15  O   UNL     1       6.973  -0.736  34.767  0.00  0.00    -0.276 OA
ENDBRANCH  10  11
BRANCH   7  16
ATOM     16  C   UNL     1       5.585   5.969  36.145  0.00  0.00    +0.414 C 
ATOM     17  O   UNL     1       4.456   5.990  35.657  0.00  0.00    -0.240 OA
ATOM     18  O   UNL     1       5.719   6.105  37.362  0.00  0.00    -0.240 OA
ENDBRANCH   7  16
BRANCH   9  19
ATOM     19  O   UNL     1       8.694   2.885  36.848  0.00  0.00    -0.390 OA
ATOM     20  H   UNL     1       8.390   2.352  37.587  0.00  0.00    +0.210 HD
ENDBRANCH   9  19
BRANCH   7  21
ATOM     21  O   UNL     1       7.330   7.070  34.827  0.00  0.00    -0.343 OA
ATOM     22  C   UNL     1       8.159   7.742  35.809  0.00  0.00    +0.198 C 
ENDBRANCH   7  21
ENDBRANCH   4   5
BRANCH   4  23
ATOM     23  O   UNL     1       6.663   3.271  31.903  0.00  0.00    -0.387 OA
ATOM     24  H   UNL     1       7.443   3.640  32.322  0.00  0.00    +0.210 HD
ENDBRANCH   4  23
ENDBRANCH   1   4
BRANCH   1  25
ATOM     25  C   UNL     1       3.470   2.562  31.751  0.00  0.00    +0.141 C 
BRANCH  25  28
ATOM     26  C   UNL     1       1.558   3.703  30.681  0.00  0.00    +0.401 C 
ATOM     27  O   UNL     1       0.967   3.913  31.743  0.00  0.00    -0.226 OA
ATOM     28  N   UNL     1       2.730   3.074  30.591  0.00  0.00    -0.279 N 
ATOM     29  H   UNL     1       3.131   2.941  29.674  0.00  0.00    +0.152 HD
BRANCH  26  30
ATOM     30  O   UNL     1       0.967   4.150  29.458  0.00  0.00    -0.444 OA
BRANCH  30  31
ATOM     31  C   UNL     1       0.408   3.034  28.761  0.00  0.00    +0.292 C 
BRANCH  31  33
ATOM     32  N   UNL     1       1.851   3.767  26.887  0.00  0.00    -0.131 NA
ATOM     33  C   UNL     1       1.170   2.764  27.528  0.00  0.00    +0.120 A 
ATOM     34  C   UNL     1       1.339   1.589  26.831  0.00  0.00    +0.137 A 
ATOM     35  N   UNL     1       2.125   1.945  25.778  0.00  0.00    -0.251 N 
ATOM     36  N   UNL     1       2.433   3.251  25.813  0.00  0.00    -0.065 NA
BRANCH  35  37
ATOM     37  C   UNL     1       2.592   1.111  24.690  0.00  0.00    +0.145 C 
BRANCH  37  38
ATOM     38  C   UNL     1       2.381   1.784  23.338  0.00  0.00    +0.024 C 
BRANCH  38  39
ATOM     39  C   UNL     1       0.900   1.861  22.958  0.00  0.00    +0.006 C 
BRANCH  39  40
ATOM     40  C   UNL     1       0.546   3.264  22.459  0.00  0.00    +0.026 C 
BRANCH  40  41
ATOM     41  C   UNL     1       1.706   4.209  22.568  0.00  0.00    -0.034 C 
ATOM     42  C   UNL     1       1.608   5.533  22.393  0.00  0.00    +0.004 C 
ENDBRANCH  40  41
ENDBRANCH  39  40
ENDBRANCH  38  39
ENDBRANCH  37  38
ENDBRANCH  35  37
ENDBRANCH  31  33
ENDBRANCH  30  31
ENDBRANCH  26  30
ENDBRANCH  25  28
ENDBRANCH   1  25
TORSDOF 18
