REMARK VINA RESULT:    -6.651     13.696     15.443
REMARK INTER + INTRA:         -14.090
REMARK INTER:                 -12.539
REMARK INTRA:                  -1.551
REMARK UNBOUND:                -1.802
REMARK  Name = lig_assembled_36.pdb
REMARK  18 active torsions:
REMARK  status: ('A' for Active; 'I' for Inactive)
REMARK    1  A    between atoms: _2  and  _10
REMARK    2  A    between atoms: _5  and  _21
REMARK    3  A    between atoms: _7  and  _8
REMARK    4  A    between atoms: _7  and  _21
REMARK    5  A    between atoms: _10  and  _11
REMARK    6  A    between atoms: _14  and  _15
REMARK    7  A    between atoms: _17  and  _37
REMARK    8  A    between atoms: _19  and  _25
REMARK    9  A    between atoms: _20  and  _24
REMARK   10  A    between atoms: _24  and  _25
REMARK   11  A    between atoms: _27  and  _28
REMARK   12  A    between atoms: _29  and  _30
REMARK   13  A    between atoms: _31  and  _33
REMARK   14  A    between atoms: _33  and  _34
REMARK   15  A    between atoms: _33  and  _35
REMARK   16  A    between atoms: _35  and  _36
REMARK   17  A    between atoms: _35  and  _37
REMARK   18  A    between atoms: _38  and  _40
REMARK                            x       y       z     vdW  Elec       q    Type
REMARK                         _______ _______ _______ _____ _____    ______ ____
ROOT
ATOM      1  C   UNL     1       6.532   2.879  32.793  0.00  0.00    +0.163 C 
ENDROOT
BRANCH   1   2
ATOM      2  O   UNL     1       6.277   3.222  31.420  0.00  0.00    -0.388 OA
ATOM      3  H   UNL     1       5.851   2.483  30.979  0.00  0.00    +0.210 HD
ENDBRANCH   1   2
BRANCH   1   4
ATOM      4  C   UNL     1       7.696   3.709  33.360  0.00  0.00    +0.175 C 
BRANCH   4   5
ATOM      5  C   UNL     1       7.402   4.224  34.777  0.00  0.00    +0.176 C 
ATOM      6  O   UNL     1       7.356   5.676  34.724  0.00  0.00    -0.332 OA
ATOM      7  C   UNL     1       6.980   6.345  35.973  0.00  0.00    +0.277 C 
ATOM      8  C   UNL     1       7.906   5.892  37.129  0.00  0.00    +0.110 C 
ATOM      9  C   UNL     1       8.012   4.355  37.205  0.00  0.00    +0.143 C 
ATOM     10  C   UNL     1       8.406   3.764  35.851  0.00  0.00    +0.133 C 
BRANCH  10  11
ATOM     11  N   UNL     1       8.419   2.294  35.914  0.00  0.00    -0.308 N 
ATOM     12  H   UNL     1       7.564   1.826  36.180  0.00  0.00    +0.149 HD
ATOM     13  C   UNL     1       9.486   1.538  35.642  0.00  0.00    +0.210 C 
ATOM     14  C   UNL     1      10.780   2.283  35.264  0.00  0.00    +0.109 C 
ATOM     15  O   UNL     1       9.464   0.308  35.689  0.00  0.00    -0.276 OA
ENDBRANCH  10  11
BRANCH   7  16
ATOM     16  C   UNL     1       5.513   6.037  36.338  0.00  0.00    +0.414 C 
ATOM     17  O   UNL     1       4.665   5.920  35.453  0.00  0.00    -0.240 OA
ATOM     18  O   UNL     1       5.177   5.905  37.515  0.00  0.00    -0.240 OA
ENDBRANCH   7  16
BRANCH   7  19
ATOM     19  O   UNL     1       7.147   7.774  35.785  0.00  0.00    -0.343 OA
ATOM     20  C   UNL     1       7.556   8.173  34.453  0.00  0.00    +0.198 C 
ENDBRANCH   7  19
BRANCH   9  21
ATOM     21  O   UNL     1       8.988   3.987  38.180  0.00  0.00    -0.390 OA
ATOM     22  H   UNL     1       9.770   4.534  38.074  0.00  0.00    +0.210 HD
ENDBRANCH   9  21
ENDBRANCH   4   5
BRANCH   4  23
ATOM     23  O   UNL     1       7.994   4.812  32.482  0.00  0.00    -0.387 OA
ATOM     24  H   UNL     1       7.197   5.072  32.012  0.00  0.00    +0.210 HD
ENDBRANCH   4  23
ENDBRANCH   1   4
BRANCH   1  25
ATOM     25  C   UNL     1       5.280   3.117  33.631  0.00  0.00    +0.141 C 
BRANCH  25  28
ATOM     26  C   UNL     1       3.053   3.541  32.647  0.00  0.00    +0.401 C 
ATOM     27  O   UNL     1       2.605   2.432  32.950  0.00  0.00    -0.226 OA
ATOM     28  N   UNL     1       4.295   3.943  32.921  0.00  0.00    -0.279 N 
ATOM     29  H   UNL     1       4.574   4.867  32.623  0.00  0.00    +0.152 HD
BRANCH  26  30
ATOM     30  O   UNL     1       2.210   4.466  31.957  0.00  0.00    -0.444 OA
BRANCH  30  31
ATOM     31  C   UNL     1       0.966   3.834  31.640  0.00  0.00    +0.292 C 
BRANCH  31  33
ATOM     32  N   UNL     1       0.086   4.270  29.366  0.00  0.00    -0.131 NA
ATOM     33  C   UNL     1       0.895   3.541  30.196  0.00  0.00    +0.120 A 
ATOM     34  C   UNL     1       1.568   2.596  29.455  0.00  0.00    +0.137 A 
ATOM     35  N   UNL     1       1.197   2.867  28.171  0.00  0.00    -0.247 N 
ATOM     36  N   UNL     1       0.265   3.836  28.126  0.00  0.00    -0.065 NA
BRANCH  35  37
ATOM     37  C   UNL     1       1.696   2.263  26.951  0.00  0.00    +0.180 C 
BRANCH  37  38
ATOM     38  C   UNL     1       1.246   3.036  25.732  0.00  0.00    -0.026 A 
ATOM     39  C   UNL     1       2.073   4.009  25.151  0.00  0.00    +0.007 A 
ATOM     40  C   UNL     1       1.651   4.717  24.021  0.00  0.00    +0.019 A 
ATOM     41  C   UNL     1       0.395   4.464  23.460  0.00  0.00    +0.052 A 
ATOM     42  C   UNL     1      -0.444   3.514  24.047  0.00  0.00    +0.019 A 
ATOM     43  C   UNL     1      -0.023   2.808  25.178  0.00  0.00    +0.007 A 
BRANCH  41  44
ATOM     44  C   UNL     1      -0.028   5.176  22.287  0.00  0.00    +0.099 C 
ATOM     45  N   UNL     1      -0.366   5.742  21.333  0.00  0.00    -0.191 NA
ENDBRANCH  41  44
ENDBRANCH  37  38
ENDBRANCH  35  37
ENDBRANCH  31  33
ENDBRANCH  30  31
ENDBRANCH  26  30
ENDBRANCH  25  28
ENDBRANCH   1  25
TORSDOF 16
