REMARK VINA RESULT:    -6.232      2.115      3.909
REMARK INTER + INTRA:         -13.757
REMARK INTER:                 -11.573
REMARK INTRA:                  -2.184
REMARK UNBOUND:                -2.608
REMARK  Name = lig_assembled_4.pdb
REMARK  19 active torsions:
REMARK  status: ('A' for Active; 'I' for Inactive)
REMARK    1  A    between atoms: _2  and  _9
REMARK    2  A    between atoms: _4  and  _21
REMARK    3  A    between atoms: _6  and  _7
REMARK    4  A    between atoms: _6  and  _21
REMARK    5  A    between atoms: _10  and  _11
REMARK    6  A    between atoms: _11  and  _12
REMARK    7  A    between atoms: _11  and  _13
REMARK    8  A    between atoms: _17  and  _37
REMARK    9  A    between atoms: _19  and  _25
REMARK   10  A    between atoms: _20  and  _24
REMARK   11  A    between atoms: _24  and  _25
REMARK   12  A    between atoms: _27  and  _28
REMARK   13  A    between atoms: _29  and  _30
REMARK   14  A    between atoms: _31  and  _33
REMARK   15  A    between atoms: _33  and  _34
REMARK   16  A    between atoms: _33  and  _35
REMARK   17  A    between atoms: _35  and  _36
REMARK   18  A    between atoms: _35  and  _37
REMARK   19  A    between atoms: _38  and  _40
REMARK                            x       y       z     vdW  Elec       q    Type
REMARK                         _______ _______ _______ _____ _____    ______ ____
ROOT
ATOM      1  C   UNL     1       2.236   2.181  32.658  0.00  0.00    +0.163 C 
ENDROOT
BRANCH   1   2
ATOM      2  O   UNL     1       1.976   1.192  31.649  0.00  0.00    -0.388 OA
ATOM      3  H   UNL     1       1.504   1.597  30.917  0.00  0.00    +0.210 HD
ENDBRANCH   1   2
BRANCH   1   4
ATOM      4  C   UNL     1       1.055   3.141  32.764  0.00  0.00    +0.141 C 
BRANCH   4   7
ATOM      5  C   UNL     1       0.457   4.362  30.701  0.00  0.00    +0.401 C 
ATOM      6  O   UNL     1       1.145   5.349  30.974  0.00  0.00    -0.226 OA
ATOM      7  N   UNL     1       0.352   3.288  31.484  0.00  0.00    -0.279 N 
ATOM      8  H   UNL     1      -0.244   2.532  31.178  0.00  0.00    +0.152 HD
BRANCH   5   9
ATOM      9  O   UNL     1      -0.284   4.349  29.479  0.00  0.00    -0.444 OA
BRANCH   9  10
ATOM     10  C   UNL     1      -0.088   3.098  28.814  0.00  0.00    +0.292 C 
BRANCH  10  12
ATOM     11  N   UNL     1       2.027   3.674  27.680  0.00  0.00    -0.131 NA
ATOM     12  C   UNL     1       0.729   3.275  27.600  0.00  0.00    +0.121 A 
ATOM     13  C   UNL     1       0.381   3.132  26.275  0.00  0.00    +0.143 A 
ATOM     14  N   UNL     1       1.479   3.588  25.570  0.00  0.00    -0.219 N 
ATOM     15  N   UNL     1       2.479   3.836  26.443  0.00  0.00    -0.060 NA
BRANCH  14  16
ATOM     16  C   UNL     1       1.579   3.804  24.162  0.00  0.00    +0.070 A 
ATOM     17  C   UNL     1       1.718   2.749  23.219  0.00  0.00    -0.019 A 
ATOM     18  C   UNL     1       1.838   3.106  21.857  0.00  0.00    +0.006 A 
ATOM     19  C   UNL     1       1.835   4.436  21.435  0.00  0.00    +0.000 A 
ATOM     20  C   UNL     1       1.691   5.456  22.363  0.00  0.00    +0.002 A 
ATOM     21  C   UNL     1       1.565   5.144  23.716  0.00  0.00    +0.028 A 
BRANCH  17  22
ATOM     22  C   UNL     1       1.758   1.265  23.585  0.00  0.00    +0.015 C 
ATOM     23  C   UNL     1       3.088   0.775  24.179  0.00  0.00    +0.012 C 
ATOM     24  C   UNL     1       1.391   0.416  22.365  0.00  0.00    +0.012 C 
ENDBRANCH  17  22
ENDBRANCH  14  16
ENDBRANCH  10  12
ENDBRANCH   9  10
ENDBRANCH   5   9
ENDBRANCH   4   7
ENDBRANCH   1   4
BRANCH   1  25
ATOM     25  C   UNL     1       3.514   2.974  32.336  0.00  0.00    +0.175 C 
BRANCH  25  26
ATOM     26  C   UNL     1       4.696   2.548  33.219  0.00  0.00    +0.176 C 
ATOM     27  O   UNL     1       5.132   1.232  32.778  0.00  0.00    -0.332 OA
ATOM     28  C   UNL     1       6.328   0.705  33.442  0.00  0.00    +0.277 C 
ATOM     29  C   UNL     1       6.138   0.706  34.979  0.00  0.00    +0.110 C 
ATOM     30  C   UNL     1       5.644   2.075  35.491  0.00  0.00    +0.143 C 
ATOM     31  C   UNL     1       4.398   2.529  34.730  0.00  0.00    +0.133 C 
BRANCH  31  32
ATOM     32  N   UNL     1       3.989   3.873  35.166  0.00  0.00    -0.308 N 
ATOM     33  H   UNL     1       4.565   4.655  34.889  0.00  0.00    +0.149 HD
ATOM     34  C   UNL     1       2.906   4.127  35.906  0.00  0.00    +0.210 C 
ATOM     35  C   UNL     1       2.063   2.911  36.335  0.00  0.00    +0.109 C 
ATOM     36  O   UNL     1       2.579   5.265  36.244  0.00  0.00    -0.276 OA
ENDBRANCH  31  32
BRANCH  28  37
ATOM     37  C   UNL     1       7.571   1.542  33.076  0.00  0.00    +0.414 C 
ATOM     38  O   UNL     1       7.456   2.552  32.383  0.00  0.00    -0.240 OA
ATOM     39  O   UNL     1       8.688   1.209  33.474  0.00  0.00    -0.240 OA
ENDBRANCH  28  37
BRANCH  30  40
ATOM     40  O   UNL     1       5.339   1.987  36.884  0.00  0.00    -0.390 OA
ATOM     41  H   UNL     1       4.655   2.624  37.103  0.00  0.00    +0.210 HD
ENDBRANCH  30  40
BRANCH  28  42
ATOM     42  O   UNL     1       6.517  -0.666  33.005  0.00  0.00    -0.343 OA
ATOM     43  C   UNL     1       6.050  -1.675  33.937  0.00  0.00    +0.198 C 
ENDBRANCH  28  42
ENDBRANCH  25  26
BRANCH  25  44
ATOM     44  O   UNL     1       3.271   4.388  32.479  0.00  0.00    -0.387 OA
ATOM     45  H   UNL     1       2.669   4.537  33.212  0.00  0.00    +0.210 HD
ENDBRANCH  25  44
ENDBRANCH   1  25
TORSDOF 15
