REMARK VINA RESULT:    -6.124     14.444     17.256
REMARK INTER + INTRA:         -13.254
REMARK INTER:                 -10.811
REMARK INTRA:                  -2.443
REMARK UNBOUND:                -2.296
REMARK  Name = lig_assembled_63.pdb
REMARK  17 active torsions:
REMARK  status: ('A' for Active; 'I' for Inactive)
REMARK    1  A    between atoms: _2  and  _11
REMARK    2  A    between atoms: _6  and  _20
REMARK    3  A    between atoms: _7  and  _15
REMARK    4  A    between atoms: _8  and  _9
REMARK    5  A    between atoms: _8  and  _20
REMARK    6  A    between atoms: _16  and  _36
REMARK    7  A    between atoms: _18  and  _24
REMARK    8  A    between atoms: _19  and  _23
REMARK    9  A    between atoms: _23  and  _24
REMARK   10  A    between atoms: _26  and  _27
REMARK   11  A    between atoms: _28  and  _29
REMARK   12  A    between atoms: _30  and  _32
REMARK   13  A    between atoms: _32  and  _33
REMARK   14  A    between atoms: _32  and  _34
REMARK   15  A    between atoms: _34  and  _35
REMARK   16  A    between atoms: _34  and  _36
REMARK   17  A    between atoms: _37  and  _39
REMARK                            x       y       z     vdW  Elec       q    Type
REMARK                         _______ _______ _______ _____ _____    ______ ____
ROOT
ATOM      1  C   UNL     1       2.906   2.670  35.827  0.00  0.00    +0.163 C 
ENDROOT
BRANCH   1   2
ATOM      2  O   UNL     1       2.895   1.361  35.233  0.00  0.00    -0.388 OA
ATOM      3  H   UNL     1       2.981   1.441  34.280  0.00  0.00    +0.210 HD
ENDBRANCH   1   2
BRANCH   1   4
ATOM      4  C   UNL     1       2.016   3.614  35.025  0.00  0.00    +0.141 C 
BRANCH   4   7
ATOM      5  C   UNL     1       2.060   3.411  32.563  0.00  0.00    +0.401 C 
ATOM      6  O   UNL     1       2.880   4.319  32.409  0.00  0.00    -0.226 OA
ATOM      7  N   UNL     1       1.596   3.019  33.750  0.00  0.00    -0.279 N 
ATOM      8  H   UNL     1       0.917   2.271  33.774  0.00  0.00    +0.152 HD
BRANCH   5   9
ATOM      9  O   UNL     1       1.559   2.725  31.413  0.00  0.00    -0.444 OA
BRANCH   9  10
ATOM     10  C   UNL     1       2.539   2.758  30.372  0.00  0.00    +0.292 C 
BRANCH  10  12
ATOM     11  N   UNL     1       0.598   3.492  29.029  0.00  0.00    -0.131 NA
ATOM     12  C   UNL     1       1.920   3.158  29.094  0.00  0.00    +0.121 A 
ATOM     13  C   UNL     1       2.466   3.254  27.837  0.00  0.00    +0.145 A 
ATOM     14  N   UNL     1       1.416   3.619  27.018  0.00  0.00    -0.200 N 
ATOM     15  N   UNL     1       0.304   3.777  27.768  0.00  0.00    -0.059 NA
BRANCH  14  16
ATOM     16  C   UNL     1       1.456   3.754  25.598  0.00  0.00    +0.173 A 
ATOM     17  C   UNL     1       1.864   2.714  24.759  0.00  0.00    +0.096 A 
ATOM     18  C   UNL     1       1.959   2.986  23.384  0.00  0.00    +0.024 A 
ATOM     19  C   UNL     1       1.627   4.243  22.887  0.00  0.00    +0.021 A 
ATOM     20  C   UNL     1       1.196   5.201  23.782  0.00  0.00    +0.113 A 
ATOM     21  N   UNL     1       1.107   4.988  25.112  0.00  0.00    -0.235 NA
BRANCH  17  22
ATOM     22  C   UNL     1       2.179   1.380  25.178  0.00  0.00    +0.103 C 
ATOM     23  N   UNL     1       2.458   0.340  25.614  0.00  0.00    -0.191 NA
ENDBRANCH  17  22
ENDBRANCH  14  16
ENDBRANCH  10  12
ENDBRANCH   9  10
ENDBRANCH   5   9
ENDBRANCH   4   7
ENDBRANCH   1   4
BRANCH   1  24
ATOM     24  C   UNL     1       4.335   3.236  35.884  0.00  0.00    +0.175 C 
BRANCH  24  25
ATOM     25  C   UNL     1       5.153   2.869  34.637  0.00  0.00    +0.176 C 
ATOM     26  O   UNL     1       5.820   1.603  34.896  0.00  0.00    -0.332 OA
ATOM     27  C   UNL     1       6.568   1.038  33.769  0.00  0.00    +0.277 C 
ATOM     28  C   UNL     1       7.591   2.068  33.229  0.00  0.00    +0.110 C 
ATOM     29  C   UNL     1       6.935   3.440  32.969  0.00  0.00    +0.143 C 
ATOM     30  C   UNL     1       6.181   3.931  34.205  0.00  0.00    +0.133 C 
BRANCH  30  31
ATOM     31  N   UNL     1       5.488   5.197  33.917  0.00  0.00    -0.308 N 
ATOM     32  H   UNL     1       4.740   5.181  33.237  0.00  0.00    +0.149 HD
ATOM     33  C   UNL     1       5.783   6.365  34.494  0.00  0.00    +0.210 C 
ATOM     34  C   UNL     1       6.944   6.360  35.506  0.00  0.00    +0.109 C 
ATOM     35  O   UNL     1       5.175   7.406  34.244  0.00  0.00    -0.276 OA
ENDBRANCH  30  31
BRANCH  27  36
ATOM     36  C   UNL     1       5.612   0.617  32.633  0.00  0.00    +0.414 C 
ATOM     37  O   UNL     1       6.032   0.492  31.484  0.00  0.00    -0.240 OA
ATOM     38  O   UNL     1       4.422   0.403  32.867  0.00  0.00    -0.240 OA
ENDBRANCH  27  36
BRANCH  27  39
ATOM     39  O   UNL     1       7.296  -0.121  34.249  0.00  0.00    -0.343 OA
ATOM     40  C   UNL     1       6.717  -0.771  35.409  0.00  0.00    +0.198 C 
ENDBRANCH  27  39
BRANCH  29  41
ATOM     41  O   UNL     1       7.938   4.395  32.619  0.00  0.00    -0.390 OA
ATOM     42  H   UNL     1       7.914   5.127  33.240  0.00  0.00    +0.210 HD
ENDBRANCH  29  41
ENDBRANCH  24  25
BRANCH  24  43
ATOM     43  O   UNL     1       5.006   2.771  37.072  0.00  0.00    -0.387 OA
ATOM     44  H   UNL     1       5.582   3.462  37.406  0.00  0.00    +0.210 HD
ENDBRANCH  24  43
ENDBRANCH   1  24
TORSDOF 15
