REMARK VINA RESULT:    -5.549      4.568     11.567
REMARK INTER + INTRA:         -13.217
REMARK INTER:                 -10.577
REMARK INTRA:                  -2.640
REMARK UNBOUND:                -2.640
REMARK  Name = lig_assembled_29.pdb
REMARK  21 active torsions:
REMARK  status: ('A' for Active; 'I' for Inactive)
REMARK    1  A    between atoms: _2  and  _9
REMARK    2  A    between atoms: _4  and  _23
REMARK    3  A    between atoms: _6  and  _7
REMARK    4  A    between atoms: _6  and  _23
REMARK    5  A    between atoms: _9  and  _10
REMARK    6  A    between atoms: _12  and  _18
REMARK    7  A    between atoms: _13  and  _18
REMARK    8  A    between atoms: _14  and  _17
REMARK    9  A    between atoms: _15  and  _17
REMARK   10  A    between atoms: _19  and  _39
REMARK   11  A    between atoms: _21  and  _27
REMARK   12  A    between atoms: _22  and  _26
REMARK   13  A    between atoms: _26  and  _27
REMARK   14  A    between atoms: _29  and  _30
REMARK   15  A    between atoms: _31  and  _32
REMARK   16  A    between atoms: _33  and  _35
REMARK   17  A    between atoms: _35  and  _36
REMARK   18  A    between atoms: _35  and  _37
REMARK   19  A    between atoms: _37  and  _38
REMARK   20  A    between atoms: _37  and  _39
REMARK   21  A    between atoms: _40  and  _42
REMARK                            x       y       z     vdW  Elec       q    Type
REMARK                         _______ _______ _______ _____ _____    ______ ____
ROOT
ATOM      1  C   UNL     1      -2.007   3.603  22.642  0.00  0.00    +0.163 C 
ENDROOT
BRANCH   1   2
ATOM      2  O   UNL     1      -2.923   2.666  22.053  0.00  0.00    -0.388 OA
ATOM      3  H   UNL     1      -2.672   2.502  21.141  0.00  0.00    +0.210 HD
ENDBRANCH   1   2
BRANCH   1   4
ATOM      4  C   UNL     1      -1.637   4.713  21.642  0.00  0.00    +0.175 C 
BRANCH   4   5
ATOM      5  C   UNL     1      -0.622   4.232  20.595  0.00  0.00    +0.176 C 
ATOM      6  O   UNL     1      -1.347   3.478  19.584  0.00  0.00    -0.332 OA
ATOM      7  C   UNL     1      -0.551   3.026  18.439  0.00  0.00    +0.277 C 
ATOM      8  C   UNL     1       0.676   2.213  18.920  0.00  0.00    +0.110 C 
ATOM      9  C   UNL     1       1.460   2.961  20.018  0.00  0.00    +0.143 C 
ATOM     10  C   UNL     1       0.535   3.387  21.159  0.00  0.00    +0.133 C 
BRANCH  10  11
ATOM     11  N   UNL     1       1.277   4.174  22.157  0.00  0.00    -0.308 N 
ATOM     12  H   UNL     1       1.570   5.106  21.900  0.00  0.00    +0.149 HD
ATOM     13  C   UNL     1       1.587   3.737  23.381  0.00  0.00    +0.210 C 
ATOM     14  C   UNL     1       1.147   2.303  23.733  0.00  0.00    +0.109 C 
ATOM     15  O   UNL     1       2.196   4.424  24.201  0.00  0.00    -0.276 OA
ENDBRANCH  10  11
BRANCH   7  16
ATOM     16  C   UNL     1      -0.074   4.227  17.596  0.00  0.00    +0.414 C 
ATOM     17  O   UNL     1       0.865   4.101  16.811  0.00  0.00    -0.240 OA
ATOM     18  O   UNL     1      -0.629   5.322  17.699  0.00  0.00    -0.240 OA
ENDBRANCH   7  16
BRANCH   7  19
ATOM     19  O   UNL     1      -1.384   2.160  17.627  0.00  0.00    -0.343 OA
ATOM     20  C   UNL     1      -0.816   0.857  17.340  0.00  0.00    +0.198 C 
ENDBRANCH   7  19
BRANCH   9  21
ATOM     21  O   UNL     1       2.488   2.115  20.537  0.00  0.00    -0.390 OA
ATOM     22  H   UNL     1       3.338   2.551  20.445  0.00  0.00    +0.210 HD
ENDBRANCH   9  21
ENDBRANCH   4   5
BRANCH   4  23
ATOM     23  O   UNL     1      -1.120   5.861  22.344  0.00  0.00    -0.387 OA
ATOM     24  H   UNL     1      -1.596   5.972  23.171  0.00  0.00    +0.210 HD
ENDBRANCH   4  23
ENDBRANCH   1   4
BRANCH   1  25
ATOM     25  C   UNL     1      -2.627   4.226  23.888  0.00  0.00    +0.141 C 
BRANCH  25  28
ATOM     26  C   UNL     1      -1.100   5.070  25.638  0.00  0.00    +0.401 C 
ATOM     27  O   UNL     1      -1.127   6.234  25.232  0.00  0.00    -0.226 OA
ATOM     28  N   UNL     1      -1.766   4.066  25.067  0.00  0.00    -0.279 N 
ATOM     29  H   UNL     1      -1.674   3.143  25.467  0.00  0.00    +0.152 HD
BRANCH  26  30
ATOM     30  O   UNL     1      -0.310   4.753  26.787  0.00  0.00    -0.444 OA
BRANCH  30  31
ATOM     31  C   UNL     1      -0.356   3.344  27.024  0.00  0.00    +0.292 C 
BRANCH  31  33
ATOM     32  N   UNL     1       1.763   3.620  28.282  0.00  0.00    -0.131 NA
ATOM     33  C   UNL     1       0.567   2.974  28.113  0.00  0.00    +0.120 A 
ATOM     34  C   UNL     1       0.425   2.025  29.100  0.00  0.00    +0.137 A 
ATOM     35  N   UNL     1       1.523   2.209  29.890  0.00  0.00    -0.247 N 
ATOM     36  N   UNL     1       2.347   3.135  29.371  0.00  0.00    -0.065 NA
BRANCH  35  37
ATOM     37  C   UNL     1       1.824   1.582  31.164  0.00  0.00    +0.180 C 
BRANCH  37  38
ATOM     38  C   UNL     1       3.198   0.951  31.141  0.00  0.00    -0.022 A 
ATOM     39  C   UNL     1       4.275   1.581  31.789  0.00  0.00    +0.054 A 
ATOM     40  C   UNL     1       5.536   0.969  31.843  0.00  0.00    +0.162 A 
ATOM     41  C   UNL     1       5.726  -0.287  31.233  0.00  0.00    +0.162 A 
ATOM     42  C   UNL     1       4.654  -0.910  30.589  0.00  0.00    +0.050 A 
ATOM     43  C   UNL     1       3.401  -0.295  30.542  0.00  0.00    +0.009 A 
BRANCH  40  44
ATOM     44  O   UNL     1       6.631   1.507  32.473  0.00  0.00    -0.491 OA
ATOM     45  C   UNL     1       6.595   1.614  33.889  0.00  0.00    +0.277 C 
ENDBRANCH  40  44
BRANCH  41  46
ATOM     46  O   UNL     1       6.990  -0.818  31.323  0.00  0.00    -0.491 OA
ATOM     47  C   UNL     1       7.261  -2.007  30.594  0.00  0.00    +0.277 C 
ENDBRANCH  41  46
ENDBRANCH  37  38
ENDBRANCH  35  37
ENDBRANCH  31  33
ENDBRANCH  30  31
ENDBRANCH  26  30
ENDBRANCH  25  28
ENDBRANCH   1  25
TORSDOF 17
