REMARK VINA RESULT:    -5.426     13.564     17.855
REMARK INTER + INTRA:         -12.245
REMARK INTER:                 -10.116
REMARK INTRA:                  -2.129
REMARK UNBOUND:                -1.902
REMARK  Name = lig_assembled_13.pdb
REMARK  20 active torsions:
REMARK  status: ('A' for Active; 'I' for Inactive)
REMARK    1  A    between atoms: _2  and  _9
REMARK    2  A    between atoms: _4  and  _18
REMARK    3  A    between atoms: _5  and  _11
REMARK    4  A    between atoms: _6  and  _7
REMARK    5  A    between atoms: _6  and  _18
REMARK    6  A    between atoms: _9  and  _10
REMARK    7  A    between atoms: _10  and  _12
REMARK    8  A    between atoms: _11  and  _12
REMARK    9  A    between atoms: _14  and  _34
REMARK   10  A    between atoms: _16  and  _22
REMARK   11  A    between atoms: _17  and  _21
REMARK   12  A    between atoms: _21  and  _22
REMARK   13  A    between atoms: _24  and  _25
REMARK   14  A    between atoms: _26  and  _27
REMARK   15  A    between atoms: _28  and  _30
REMARK   16  A    between atoms: _30  and  _31
REMARK   17  A    between atoms: _30  and  _32
REMARK   18  A    between atoms: _32  and  _33
REMARK   19  A    between atoms: _32  and  _34
REMARK   20  A    between atoms: _35  and  _37
REMARK                            x       y       z     vdW  Elec       q    Type
REMARK                         _______ _______ _______ _____ _____    ______ ____
ROOT
ATOM      1  C   UNL     1      18.760   4.119  25.980  0.00  0.00    +0.163 C 
ENDROOT
BRANCH   1   2
ATOM      2  O   UNL     1      19.921   4.122  25.133  0.00  0.00    -0.388 OA
ATOM      3  H   UNL     1      20.496   3.392  25.376  0.00  0.00    +0.210 HD
ENDBRANCH   1   2
BRANCH   1   4
ATOM      4  C   UNL     1      18.250   2.686  26.210  0.00  0.00    +0.175 C 
BRANCH   4   5
ATOM      5  C   UNL     1      18.476   1.789  24.985  0.00  0.00    +0.176 C 
ATOM      6  O   UNL     1      18.046   2.524  23.806  0.00  0.00    -0.332 OA
ATOM      7  C   UNL     1      18.287   1.860  22.522  0.00  0.00    +0.277 C 
ATOM      8  C   UNL     1      17.654   0.447  22.516  0.00  0.00    +0.110 C 
ATOM      9  C   UNL     1      18.057  -0.363  23.767  0.00  0.00    +0.143 C 
ATOM     10  C   UNL     1      17.766   0.423  25.046  0.00  0.00    +0.133 C 
BRANCH  10  11
ATOM     11  N   UNL     1      18.234  -0.321  26.226  0.00  0.00    -0.308 N 
ATOM     12  H   UNL     1      19.231  -0.431  26.349  0.00  0.00    +0.149 HD
ATOM     13  C   UNL     1      17.428  -0.861  27.144  0.00  0.00    +0.210 C 
ATOM     14  C   UNL     1      15.913  -0.698  26.913  0.00  0.00    +0.109 C 
ATOM     15  O   UNL     1      17.848  -1.467  28.130  0.00  0.00    -0.276 OA
ENDBRANCH  10  11
BRANCH   7  16
ATOM     16  C   UNL     1      19.799   1.748  22.238  0.00  0.00    +0.414 C 
ATOM     17  O   UNL     1      20.210   1.012  21.342  0.00  0.00    -0.240 OA
ATOM     18  O   UNL     1      20.609   2.394  22.906  0.00  0.00    -0.240 OA
ENDBRANCH   7  16
BRANCH   7  19
ATOM     19  O   UNL     1      17.652   2.649  21.483  0.00  0.00    -0.343 OA
ATOM     20  C   UNL     1      17.023   1.879  20.427  0.00  0.00    +0.198 C 
ENDBRANCH   7  19
BRANCH   9  21
ATOM     21  O   UNL     1      17.335  -1.594  23.797  0.00  0.00    -0.390 OA
ATOM     22  H   UNL     1      16.668  -1.558  24.486  0.00  0.00    +0.210 HD
ENDBRANCH   9  21
ENDBRANCH   4   5
BRANCH   4  23
ATOM     23  O   UNL     1      16.852   2.707  26.559  0.00  0.00    -0.387 OA
ATOM     24  H   UNL     1      16.752   3.005  27.467  0.00  0.00    +0.210 HD
ENDBRANCH   4  23
ENDBRANCH   1   4
BRANCH   1  25
ATOM     25  C   UNL     1      19.092   4.763  27.322  0.00  0.00    +0.141 C 
BRANCH  25  28
ATOM     26  C   UNL     1      19.360   7.173  26.843  0.00  0.00    +0.401 C 
ATOM     27  O   UNL     1      20.437   7.033  26.259  0.00  0.00    -0.226 OA
ATOM     28  N   UNL     1      18.665   6.167  27.376  0.00  0.00    -0.279 N 
ATOM     29  H   UNL     1      17.796   6.383  27.843  0.00  0.00    +0.152 HD
BRANCH  26  30
ATOM     30  O   UNL     1      18.804   8.484  26.971  0.00  0.00    -0.444 OA
BRANCH  30  31
ATOM     31  C   UNL     1      19.583   9.244  27.900  0.00  0.00    +0.292 C 
BRANCH  31  33
ATOM     32  N   UNL     1      17.897  10.416  29.282  0.00  0.00    -0.131 NA
ATOM     33  C   UNL     1      18.841   9.433  29.159  0.00  0.00    +0.120 A 
ATOM     34  C   UNL     1      18.934   8.747  30.346  0.00  0.00    +0.137 A 
ATOM     35  N   UNL     1      18.070   9.404  31.173  0.00  0.00    -0.241 N 
ATOM     36  N   UNL     1      17.414  10.374  30.518  0.00  0.00    -0.065 NA
BRANCH  35  37
ATOM     37  C   UNL     1      17.744   9.104  32.550  0.00  0.00    +0.265 C 
BRANCH  37  38
ATOM     38  C   UNL     1      16.687   8.044  32.660  0.00  0.00    +0.329 C 
ATOM     39  O   UNL     1      15.584   8.057  32.132  0.00  0.00    -0.249 OA
BRANCH  38  40
ATOM     40  O   UNL     1      17.107   7.088  33.543  0.00  0.00    -0.464 OA
BRANCH  40  41
ATOM     41  C   UNL     1      16.676   5.753  33.239  0.00  0.00    +0.229 C 
ATOM     42  C   UNL     1      15.680   5.331  34.304  0.00  0.00    +0.048 C 
ENDBRANCH  40  41
ENDBRANCH  38  40
ENDBRANCH  37  38
ENDBRANCH  35  37
ENDBRANCH  31  33
ENDBRANCH  30  31
ENDBRANCH  26  30
ENDBRANCH  25  28
ENDBRANCH   1  25
TORSDOF 17
