REMARK VINA RESULT:    -5.236     17.591     20.066
REMARK INTER + INTRA:         -12.492
REMARK INTER:                  -8.774
REMARK INTRA:                  -3.719
REMARK UNBOUND:                -2.970
REMARK  Name = lig_assembled_22.pdb
REMARK  20 active torsions:
REMARK  status: ('A' for Active; 'I' for Inactive)
REMARK    1  A    between atoms: _2  and  _9
REMARK    2  A    between atoms: _4  and  _18
REMARK    3  A    between atoms: _5  and  _9
REMARK    4  A    between atoms: _5  and  _12
REMARK    5  A    between atoms: _6  and  _7
REMARK    6  A    between atoms: _6  and  _18
REMARK    7  A    between atoms: _9  and  _10
REMARK    8  A    between atoms: _9  and  _11
REMARK    9  A    between atoms: _14  and  _34
REMARK   10  A    between atoms: _16  and  _22
REMARK   11  A    between atoms: _17  and  _21
REMARK   12  A    between atoms: _21  and  _22
REMARK   13  A    between atoms: _24  and  _25
REMARK   14  A    between atoms: _26  and  _27
REMARK   15  A    between atoms: _28  and  _30
REMARK   16  A    between atoms: _30  and  _31
REMARK   17  A    between atoms: _30  and  _32
REMARK   18  A    between atoms: _32  and  _33
REMARK   19  A    between atoms: _32  and  _34
REMARK   20  A    between atoms: _35  and  _37
REMARK                            x       y       z     vdW  Elec       q    Type
REMARK                         _______ _______ _______ _____ _____    ______ ____
ROOT
ATOM      1  C   UNL     1       1.206   2.840  23.976  0.00  0.00    +0.163 C 
ENDROOT
BRANCH   1   2
ATOM      2  O   UNL     1       1.018   4.264  23.962  0.00  0.00    -0.388 OA
ATOM      3  H   UNL     1       1.772   4.683  23.539  0.00  0.00    +0.210 HD
ENDBRANCH   1   2
BRANCH   1   4
ATOM      4  C   UNL     1       1.738   2.397  25.335  0.00  0.00    +0.141 C 
BRANCH   4   7
ATOM      5  C   UNL     1       0.746   2.993  27.518  0.00  0.00    +0.401 C 
ATOM      6  O   UNL     1       1.708   3.678  27.874  0.00  0.00    -0.226 OA
ATOM      7  N   UNL     1       0.678   2.353  26.350  0.00  0.00    -0.279 N 
ATOM      8  H   UNL     1      -0.149   1.807  26.152  0.00  0.00    +0.152 HD
BRANCH   5   9
ATOM      9  O   UNL     1      -0.374   2.859  28.397  0.00  0.00    -0.444 OA
BRANCH   9  10
ATOM     10  C   UNL     1      -1.175   4.041  28.334  0.00  0.00    +0.292 C 
BRANCH  10  12
ATOM     11  N   UNL     1      -0.788   5.407  26.313  0.00  0.00    -0.131 NA
ATOM     12  C   UNL     1      -1.461   4.390  26.929  0.00  0.00    +0.120 A 
ATOM     13  C   UNL     1      -2.358   3.840  26.038  0.00  0.00    +0.138 A 
ATOM     14  N   UNL     1      -2.182   4.567  24.894  0.00  0.00    -0.235 N 
ATOM     15  N   UNL     1      -1.238   5.510  25.073  0.00  0.00    -0.064 NA
BRANCH  14  16
ATOM     16  C   UNL     1      -2.873   4.454  23.607  0.00  0.00    +0.155 C 
ATOM     17  C   UNL     1      -4.408   4.505  23.763  0.00  0.00    +0.048 C 
ATOM     18  C   UNL     1      -2.493   3.110  22.959  0.00  0.00    +0.048 C 
BRANCH  16  19
ATOM     19  C   UNL     1      -2.465   5.604  22.682  0.00  0.00    +0.332 C 
ATOM     20  O   UNL     1      -3.159   6.591  22.464  0.00  0.00    -0.248 OA
BRANCH  19  21
ATOM     21  O   UNL     1      -1.251   5.473  22.095  0.00  0.00    -0.479 OA
ATOM     22  H   UNL     1      -0.787   4.626  22.241  0.00  0.00    +0.295 HD
ENDBRANCH  19  21
ENDBRANCH  16  19
ENDBRANCH  14  16
ENDBRANCH  10  12
ENDBRANCH   9  10
ENDBRANCH   5   9
ENDBRANCH   4   7
ENDBRANCH   1   4
BRANCH   1  23
ATOM     23  C   UNL     1       2.186   2.403  22.873  0.00  0.00    +0.175 C 
BRANCH  23  24
ATOM     24  C   UNL     1       1.475   2.148  21.536  0.00  0.00    +0.176 C 
ATOM     25  O   UNL     1       0.994   3.426  21.035  0.00  0.00    -0.332 OA
ATOM     26  C   UNL     1       0.377   3.393  19.705  0.00  0.00    +0.277 C 
ATOM     27  C   UNL     1      -0.769   2.352  19.667  0.00  0.00    +0.110 C 
ATOM     28  C   UNL     1      -0.315   0.985  20.220  0.00  0.00    +0.143 C 
ATOM     29  C   UNL     1       0.316   1.136  21.605  0.00  0.00    +0.133 C 
BRANCH  29  30
ATOM     30  N   UNL     1       0.823  -0.159  22.085  0.00  0.00    -0.308 N 
ATOM     31  H   UNL     1       1.609  -0.567  21.599  0.00  0.00    +0.149 HD
ATOM     32  C   UNL     1       0.311  -0.831  23.120  0.00  0.00    +0.210 C 
ATOM     33  C   UNL     1      -0.903  -0.196  23.823  0.00  0.00    +0.109 C 
ATOM     34  O   UNL     1       0.766  -1.908  23.509  0.00  0.00    -0.276 OA
ENDBRANCH  29  30
BRANCH  26  35
ATOM     35  C   UNL     1       1.422   3.050  18.624  0.00  0.00    +0.414 C 
ATOM     36  O   UNL     1       2.462   3.702  18.538  0.00  0.00    -0.240 OA
ATOM     37  O   UNL     1       1.227   2.121  17.839  0.00  0.00    -0.240 OA
ENDBRANCH  26  35
BRANCH  26  38
ATOM     38  O   UNL     1      -0.187   4.703  19.441  0.00  0.00    -0.343 OA
ATOM     39  C   UNL     1      -0.972   4.798  18.225  0.00  0.00    +0.198 C 
ENDBRANCH  26  38
BRANCH  28  40
ATOM     40  O   UNL     1      -1.435   0.104  20.307  0.00  0.00    -0.390 OA
ATOM     41  H   UNL     1      -1.824  -0.008  19.436  0.00  0.00    +0.210 HD
ENDBRANCH  28  40
ENDBRANCH  23  24
BRANCH  23  42
ATOM     42  O   UNL     1       2.905   1.224  23.286  0.00  0.00    -0.387 OA
ATOM     43  H   UNL     1       3.503   1.448  24.003  0.00  0.00    +0.210 HD
ENDBRANCH  23  42
ENDBRANCH   1  23
TORSDOF 16
