REMARK VINA RESULT:    -6.109     14.100     15.718
REMARK INTER + INTRA:         -14.350
REMARK INTER:                 -11.971
REMARK INTRA:                  -2.380
REMARK UNBOUND:                -1.813
REMARK  Name = lig_assembled_33.pdb
REMARK  22 active torsions:
REMARK  status: ('A' for Active; 'I' for Inactive)
REMARK    1  A    between atoms: _2  and  _9
REMARK    2  A    between atoms: _4  and  _20
REMARK    3  A    between atoms: _5  and  _13
REMARK    4  A    between atoms: _5  and  _14
REMARK    5  A    between atoms: _6  and  _7
REMARK    6  A    between atoms: _6  and  _20
REMARK    7  A    between atoms: _9  and  _10
REMARK    8  A    between atoms: _10  and  _11
REMARK    9  A    between atoms: _11  and  _12
REMARK   10  A    between atoms: _12  and  _13
REMARK   11  A    between atoms: _16  and  _36
REMARK   12  A    between atoms: _18  and  _24
REMARK   13  A    between atoms: _19  and  _23
REMARK   14  A    between atoms: _23  and  _24
REMARK   15  A    between atoms: _26  and  _27
REMARK   16  A    between atoms: _28  and  _29
REMARK   17  A    between atoms: _30  and  _32
REMARK   18  A    between atoms: _32  and  _33
REMARK   19  A    between atoms: _32  and  _34
REMARK   20  A    between atoms: _34  and  _35
REMARK   21  A    between atoms: _34  and  _36
REMARK   22  A    between atoms: _37  and  _39
REMARK                            x       y       z     vdW  Elec       q    Type
REMARK                         _______ _______ _______ _____ _____    ______ ____
ROOT
ATOM      1  C   UNL     1      18.659  10.588  29.062  0.00  0.00    +0.163 C 
ENDROOT
BRANCH   1   2
ATOM      2  O   UNL     1      17.329  11.132  29.094  0.00  0.00    -0.388 OA
ATOM      3  H   UNL     1      16.693  10.417  29.172  0.00  0.00    +0.210 HD
ENDBRANCH   1   2
BRANCH   1   4
ATOM      4  C   UNL     1      18.704   9.203  29.729  0.00  0.00    +0.175 C 
BRANCH   4   5
ATOM      5  C   UNL     1      17.983   9.191  31.085  0.00  0.00    +0.176 C 
ATOM      6  O   UNL     1      18.244  10.462  31.741  0.00  0.00    -0.332 OA
ATOM      7  C   UNL     1      17.544  10.675  33.012  0.00  0.00    +0.277 C 
ATOM      8  C   UNL     1      17.835   9.511  33.991  0.00  0.00    +0.110 C 
ATOM      9  C   UNL     1      17.602   8.137  33.328  0.00  0.00    +0.143 C 
ATOM     10  C   UNL     1      18.374   8.025  32.012  0.00  0.00    +0.133 C 
BRANCH  10  11
ATOM     11  N   UNL     1      18.075   6.747  31.347  0.00  0.00    -0.308 N 
ATOM     12  H   UNL     1      17.151   6.622  30.958  0.00  0.00    +0.149 HD
ATOM     13  C   UNL     1      18.946   5.741  31.224  0.00  0.00    +0.210 C 
ATOM     14  C   UNL     1      20.337   5.953  31.850  0.00  0.00    +0.109 C 
ATOM     15  O   UNL     1      18.673   4.687  30.648  0.00  0.00    -0.276 OA
ENDBRANCH  10  11
BRANCH   7  16
ATOM     16  C   UNL     1      16.023  10.791  32.786  0.00  0.00    +0.414 C 
ATOM     17  O   UNL     1      15.585  11.394  31.807  0.00  0.00    -0.240 OA
ATOM     18  O   UNL     1      15.233  10.281  33.581  0.00  0.00    -0.240 OA
ENDBRANCH   7  16
BRANCH   9  19
ATOM     19  O   UNL     1      18.025   7.098  34.211  0.00  0.00    -0.390 OA
ATOM     20  H   UNL     1      17.502   6.309  34.051  0.00  0.00    +0.210 HD
ENDBRANCH   9  19
BRANCH   7  21
ATOM     21  O   UNL     1      18.046  11.903  33.600  0.00  0.00    -0.343 OA
ATOM     22  C   UNL     1      18.201  11.873  35.041  0.00  0.00    +0.198 C 
ENDBRANCH   7  21
ENDBRANCH   4   5
BRANCH   4  23
ATOM     23  O   UNL     1      20.071   8.773  29.889  0.00  0.00    -0.387 OA
ATOM     24  H   UNL     1      20.600   9.503  30.218  0.00  0.00    +0.210 HD
ENDBRANCH   4  23
ENDBRANCH   1   4
BRANCH   1  25
ATOM     25  C   UNL     1      19.141  10.475  27.619  0.00  0.00    +0.141 C 
BRANCH  25  28
ATOM     26  C   UNL     1      19.326   8.246  26.569  0.00  0.00    +0.401 C 
ATOM     27  O   UNL     1      20.547   8.168  26.727  0.00  0.00    -0.226 OA
ATOM     28  N   UNL     1      18.590   9.290  26.949  0.00  0.00    -0.279 N 
ATOM     29  H   UNL     1      17.596   9.265  26.767  0.00  0.00    +0.152 HD
BRANCH  26  30
ATOM     30  O   UNL     1      18.638   7.163  25.936  0.00  0.00    -0.444 OA
BRANCH  30  31
ATOM     31  C   UNL     1      19.430   6.659  24.857  0.00  0.00    +0.292 C 
BRANCH  31  33
ATOM     32  N   UNL     1      17.692   6.314  23.131  0.00  0.00    -0.131 NA
ATOM     33  C   UNL     1      18.620   5.785  23.989  0.00  0.00    +0.120 A 
ATOM     34  C   UNL     1      18.614   4.412  23.868  0.00  0.00    +0.137 A 
ATOM     35  N   UNL     1      17.669   4.173  22.917  0.00  0.00    -0.251 N 
ATOM     36  N   UNL     1      17.105   5.314  22.489  0.00  0.00    -0.065 NA
BRANCH  35  37
ATOM     37  C   UNL     1      17.242   2.898  22.378  0.00  0.00    +0.145 C 
BRANCH  37  38
ATOM     38  C   UNL     1      18.039   1.732  22.960  0.00  0.00    +0.023 C 
BRANCH  38  39
ATOM     39  C   UNL     1      17.171   0.499  23.225  0.00  0.00    +0.002 C 
BRANCH  39  40
ATOM     40  C   UNL     1      17.251   0.115  24.704  0.00  0.00    +0.011 C 
BRANCH  40  41
ATOM     41  C   UNL     1      17.659   1.283  25.598  0.00  0.00    +0.120 C 
BRANCH  41  42
ATOM     42  C   UNL     1      16.523   1.704  26.505  0.00  0.00    +0.305 C 
ATOM     43  O   UNL     1      16.531   2.675  27.243  0.00  0.00    -0.251 OA
BRANCH  42  44
ATOM     44  O   UNL     1      15.457   0.876  26.412  0.00  0.00    -0.481 OA
ATOM     45  H   UNL     1      15.538   0.206  25.709  0.00  0.00    +0.295 HD
ENDBRANCH  42  44
ENDBRANCH  41  42
ENDBRANCH  40  41
ENDBRANCH  39  40
ENDBRANCH  38  39
ENDBRANCH  37  38
ENDBRANCH  35  37
ENDBRANCH  31  33
ENDBRANCH  30  31
ENDBRANCH  26  30
ENDBRANCH  25  28
ENDBRANCH   1  25
TORSDOF 20
