REMARK VINA RESULT:    -5.601     13.562     15.416
REMARK INTER + INTRA:         -12.771
REMARK INTER:                 -10.184
REMARK INTRA:                  -2.586
REMARK UNBOUND:                -2.094
REMARK  Name = lig_assembled_19.pdb
REMARK  20 active torsions:
REMARK  status: ('A' for Active; 'I' for Inactive)
REMARK    1  A    between atoms: _2  and  _9
REMARK    2  A    between atoms: _4  and  _18
REMARK    3  A    between atoms: _5  and  _11
REMARK    4  A    between atoms: _6  and  _7
REMARK    5  A    between atoms: _6  and  _18
REMARK    6  A    between atoms: _9  and  _10
REMARK    7  A    between atoms: _10  and  _13
REMARK    8  A    between atoms: _11  and  _13
REMARK    9  A    between atoms: _14  and  _34
REMARK   10  A    between atoms: _16  and  _22
REMARK   11  A    between atoms: _17  and  _21
REMARK   12  A    between atoms: _21  and  _22
REMARK   13  A    between atoms: _24  and  _25
REMARK   14  A    between atoms: _26  and  _27
REMARK   15  A    between atoms: _28  and  _30
REMARK   16  A    between atoms: _30  and  _31
REMARK   17  A    between atoms: _30  and  _32
REMARK   18  A    between atoms: _32  and  _33
REMARK   19  A    between atoms: _32  and  _34
REMARK   20  A    between atoms: _35  and  _37
REMARK                            x       y       z     vdW  Elec       q    Type
REMARK                         _______ _______ _______ _____ _____    ______ ____
ROOT
ATOM      1  C   UNL     1      18.491  10.214  30.232  0.00  0.00    +0.163 C 
ENDROOT
BRANCH   1   2
ATOM      2  O   UNL     1      17.138  10.590  30.538  0.00  0.00    -0.388 OA
ATOM      3  H   UNL     1      16.598  10.513  29.748  0.00  0.00    +0.210 HD
ENDBRANCH   1   2
BRANCH   1   4
ATOM      4  C   UNL     1      18.660   8.685  30.277  0.00  0.00    +0.175 C 
BRANCH   4   5
ATOM      5  C   UNL     1      17.885   8.052  31.442  0.00  0.00    +0.176 C 
ATOM      6  O   UNL     1      17.921   8.981  32.560  0.00  0.00    -0.332 OA
ATOM      7  C   UNL     1      17.137   8.589  33.735  0.00  0.00    +0.277 C 
ATOM      8  C   UNL     1      17.552   7.176  34.215  0.00  0.00    +0.110 C 
ATOM      9  C   UNL     1      17.559   6.160  33.054  0.00  0.00    +0.143 C 
ATOM     10  C   UNL     1      18.401   6.670  31.884  0.00  0.00    +0.133 C 
BRANCH  10  11
ATOM     11  N   UNL     1      18.330   5.734  30.751  0.00  0.00    -0.308 N 
ATOM     12  H   UNL     1      17.462   5.681  30.236  0.00  0.00    +0.149 HD
ATOM     13  C   UNL     1      19.337   4.949  30.359  0.00  0.00    +0.210 C 
ATOM     14  C   UNL     1      20.638   5.034  31.180  0.00  0.00    +0.109 C 
ATOM     15  O   UNL     1      19.254   4.185  29.397  0.00  0.00    -0.276 OA
ENDBRANCH  10  11
BRANCH   7  16
ATOM     16  C   UNL     1      15.628   8.603  33.416  0.00  0.00    +0.414 C 
ATOM     17  O   UNL     1      14.877   7.775  33.932  0.00  0.00    -0.240 OA
ATOM     18  O   UNL     1      15.161   9.441  32.644  0.00  0.00    -0.240 OA
ENDBRANCH   7  16
BRANCH   9  19
ATOM     19  O   UNL     1      18.090   4.914  33.508  0.00  0.00    -0.390 OA
ATOM     20  H   UNL     1      18.902   5.070  33.997  0.00  0.00    +0.210 HD
ENDBRANCH   9  19
BRANCH   7  21
ATOM     21  O   UNL     1      17.420   9.534  34.799  0.00  0.00    -0.343 OA
ATOM     22  C   UNL     1      17.755  10.873  34.355  0.00  0.00    +0.198 C 
ENDBRANCH   7  21
ENDBRANCH   4   5
BRANCH   4  23
ATOM     23  O   UNL     1      20.058   8.343  30.366  0.00  0.00    -0.387 OA
ATOM     24  H   UNL     1      20.200   7.773  31.125  0.00  0.00    +0.210 HD
ENDBRANCH   4  23
ENDBRANCH   1   4
BRANCH   1  25
ATOM     25  C   UNL     1      18.876  10.728  28.849  0.00  0.00    +0.141 C 
BRANCH  25  28
ATOM     26  C   UNL     1      19.667   9.408  26.916  0.00  0.00    +0.401 C 
ATOM     27  O   UNL     1      20.752   9.990  26.843  0.00  0.00    -0.226 OA
ATOM     28  N   UNL     1      18.728   9.693  27.819  0.00  0.00    -0.279 N 
ATOM     29  H   UNL     1      17.866   9.166  27.793  0.00  0.00    +0.152 HD
BRANCH  26  30
ATOM     30  O   UNL     1      19.375   8.364  25.984  0.00  0.00    -0.444 OA
BRANCH  30  31
ATOM     31  C   UNL     1      19.077   7.159  26.694  0.00  0.00    +0.292 C 
BRANCH  31  33
ATOM     32  N   UNL     1      18.770   6.229  24.418  0.00  0.00    -0.131 NA
ATOM     33  C   UNL     1      18.966   6.024  25.759  0.00  0.00    +0.120 A 
ATOM     34  C   UNL     1      19.027   4.671  26.003  0.00  0.00    +0.137 A 
ATOM     35  N   UNL     1      18.851   4.110  24.774  0.00  0.00    -0.248 N 
ATOM     36  N   UNL     1      18.702   5.045  23.823  0.00  0.00    -0.065 NA
BRANCH  35  37
ATOM     37  C   UNL     1      18.827   2.704  24.436  0.00  0.00    +0.186 C 
BRANCH  37  38
ATOM     38  C   UNL     1      17.433   2.245  24.019  0.00  0.00    +0.255 C 
BRANCH  38  39
ATOM     39  O   UNL     1      17.462   1.412  22.842  0.00  0.00    -0.463 OA
BRANCH  39  40
ATOM     40  C   UNL     1      17.671   2.054  21.663  0.00  0.00    +0.304 C 
ATOM     41  O   UNL     1      18.577   1.802  20.881  0.00  0.00    -0.251 OA
ATOM     42  C   UNL     1      16.622   3.096  21.428  0.00  0.00    +0.136 C 
ENDBRANCH  39  40
ENDBRANCH  38  39
ENDBRANCH  37  38
ENDBRANCH  35  37
ENDBRANCH  31  33
ENDBRANCH  30  31
ENDBRANCH  26  30
ENDBRANCH  25  28
ENDBRANCH   1  25
TORSDOF 17
