REMARK VINA RESULT:    -6.073      8.670     13.740
REMARK INTER + INTRA:         -12.880
REMARK INTER:                 -10.887
REMARK INTRA:                  -1.993
REMARK UNBOUND:                -2.370
REMARK  Name = lig_assembled_87.pdb
REMARK  17 active torsions:
REMARK  status: ('A' for Active; 'I' for Inactive)
REMARK    1  A    between atoms: _2  and  _10
REMARK    2  A    between atoms: _3  and  _13
REMARK    3  A    between atoms: _5  and  _21
REMARK    4  A    between atoms: _7  and  _8
REMARK    5  A    between atoms: _7  and  _21
REMARK    6  A    between atoms: _17  and  _37
REMARK    7  A    between atoms: _19  and  _25
REMARK    8  A    between atoms: _20  and  _24
REMARK    9  A    between atoms: _24  and  _25
REMARK   10  A    between atoms: _27  and  _28
REMARK   11  A    between atoms: _29  and  _30
REMARK   12  A    between atoms: _31  and  _33
REMARK   13  A    between atoms: _33  and  _34
REMARK   14  A    between atoms: _33  and  _35
REMARK   15  A    between atoms: _35  and  _36
REMARK   16  A    between atoms: _35  and  _37
REMARK   17  A    between atoms: _38  and  _40
REMARK                            x       y       z     vdW  Elec       q    Type
REMARK                         _______ _______ _______ _____ _____    ______ ____
ROOT
ATOM      1  C   UNL     1       9.015   5.169  38.338  0.00  0.00    +0.163 C 
ENDROOT
BRANCH   1   2
ATOM      2  O   UNL     1       8.914   6.474  37.745  0.00  0.00    -0.388 OA
ATOM      3  H   UNL     1       9.194   7.137  38.380  0.00  0.00    +0.210 HD
ENDBRANCH   1   2
BRANCH   1   4
ATOM      4  C   UNL     1      10.463   4.881  38.721  0.00  0.00    +0.141 C 
BRANCH   4   7
ATOM      5  C   UNL     1      12.414   4.118  37.410  0.00  0.00    +0.401 C 
ATOM      6  O   UNL     1      12.763   3.278  38.242  0.00  0.00    -0.226 OA
ATOM      7  N   UNL     1      11.354   4.915  37.555  0.00  0.00    -0.279 N 
ATOM      8  H   UNL     1      11.154   5.580  36.821  0.00  0.00    +0.152 HD
BRANCH   5   9
ATOM      9  O   UNL     1      13.179   4.268  36.211  0.00  0.00    -0.444 OA
BRANCH   9  10
ATOM     10  C   UNL     1      14.376   4.996  36.496  0.00  0.00    +0.292 C 
BRANCH  10  12
ATOM     11  N   UNL     1      14.887   5.033  34.079  0.00  0.00    -0.131 NA
ATOM     12  C   UNL     1      14.852   5.682  35.282  0.00  0.00    +0.120 A 
ATOM     13  C   UNL     1      15.295   6.974  35.109  0.00  0.00    +0.137 A 
ATOM     14  N   UNL     1      15.469   7.095  33.756  0.00  0.00    -0.248 N 
ATOM     15  N   UNL     1      15.332   5.886  33.172  0.00  0.00    -0.065 NA
BRANCH  14  16
ATOM     16  C   UNL     1      15.775   8.270  32.919  0.00  0.00    +0.112 C 
ATOM     17  C   UNL     1      17.145   8.212  32.189  0.00  0.00    +0.045 C 
ATOM     18  C   UNL     1      18.129   9.344  32.526  0.00  0.00    +0.059 C 
ATOM     19  C   UNL     1      17.782  10.646  31.792  0.00  0.00    +0.020 C 
ATOM     20  C   UNL     1      16.961  11.451  32.799  0.00  0.00    +0.020 C 
ATOM     21  C   UNL     1      16.748  10.479  33.960  0.00  0.00    +0.059 C 
ATOM     22  N   UNL     1      18.028   9.780  33.913  0.00  0.00    -0.299 NA
ATOM     23  C   UNL     1      18.297   8.801  34.944  0.00  0.00    +0.105 C 
ATOM     24  C   UNL     1      15.526   9.595  33.702  0.00  0.00    +0.045 C 
ENDBRANCH  14  16
ENDBRANCH  10  12
ENDBRANCH   9  10
ENDBRANCH   5   9
ENDBRANCH   4   7
ENDBRANCH   1   4
BRANCH   1  25
ATOM     25  C   UNL     1       8.513   4.084  37.370  0.00  0.00    +0.175 C 
BRANCH  25  26
ATOM     26  C   UNL     1       7.890   4.685  36.101  0.00  0.00    +0.176 C 
ATOM     27  O   UNL     1       6.496   4.983  36.386  0.00  0.00    -0.332 OA
ATOM     28  C   UNL     1       5.762   5.665  35.316  0.00  0.00    +0.277 C 
ATOM     29  C   UNL     1       5.867   4.867  33.993  0.00  0.00    +0.110 C 
ATOM     30  C   UNL     1       7.330   4.499  33.665  0.00  0.00    +0.143 C 
ATOM     31  C   UNL     1       7.998   3.798  34.847  0.00  0.00    +0.133 C 
BRANCH  31  32
ATOM     32  N   UNL     1       9.415   3.531  34.554  0.00  0.00    -0.308 N 
ATOM     33  H   UNL     1       9.989   4.306  34.253  0.00  0.00    +0.149 HD
ATOM     34  C   UNL     1       9.993   2.331  34.660  0.00  0.00    +0.210 C 
ATOM     35  C   UNL     1       9.086   1.165  35.096  0.00  0.00    +0.109 C 
ATOM     36  O   UNL     1      11.186   2.140  34.422  0.00  0.00    -0.276 OA
ENDBRANCH  31  32
BRANCH  28  37
ATOM     37  C   UNL     1       6.308   7.092  35.101  0.00  0.00    +0.414 C 
ATOM     38  O   UNL     1       7.067   7.596  35.928  0.00  0.00    -0.240 OA
ATOM     39  O   UNL     1       5.991   7.738  34.102  0.00  0.00    -0.240 OA
ENDBRANCH  28  37
BRANCH  30  40
ATOM     40  O   UNL     1       7.366   3.639  32.525  0.00  0.00    -0.390 OA
ATOM     41  H   UNL     1       7.883   4.051  31.829  0.00  0.00    +0.210 HD
ENDBRANCH  30  40
BRANCH  28  42
ATOM     42  O   UNL     1       4.364   5.730  35.701  0.00  0.00    -0.343 OA
ATOM     43  C   UNL     1       4.121   5.694  37.129  0.00  0.00    +0.198 C 
ENDBRANCH  28  42
ENDBRANCH  25  26
BRANCH  25  44
ATOM     44  O   UNL     1       7.562   3.228  38.032  0.00  0.00    -0.387 OA
ATOM     45  H   UNL     1       7.425   3.536  38.931  0.00  0.00    +0.210 HD
ENDBRANCH  25  44
ENDBRANCH   1  25
TORSDOF 14
