REMARK VINA RESULT:    -5.353     12.245     15.213
REMARK INTER + INTRA:         -12.405
REMARK INTER:                 -10.458
REMARK INTRA:                  -1.947
REMARK UNBOUND:                -2.671
REMARK  Name = lig_assembled_1.pdb
REMARK  18 active torsions:
REMARK  status: ('A' for Active; 'I' for Inactive)
REMARK    1  A    between atoms: _2  and  _9
REMARK    2  A    between atoms: _4  and  _15
REMARK    3  A    between atoms: _5  and  _9
REMARK    4  A    between atoms: _5  and  _10
REMARK    5  A    between atoms: _6  and  _7
REMARK    6  A    between atoms: _6  and  _15
REMARK    7  A    between atoms: _11  and  _31
REMARK    8  A    between atoms: _13  and  _19
REMARK    9  A    between atoms: _14  and  _18
REMARK   10  A    between atoms: _18  and  _19
REMARK   11  A    between atoms: _21  and  _22
REMARK   12  A    between atoms: _23  and  _24
REMARK   13  A    between atoms: _25  and  _27
REMARK   14  A    between atoms: _27  and  _28
REMARK   15  A    between atoms: _27  and  _29
REMARK   16  A    between atoms: _29  and  _30
REMARK   17  A    between atoms: _29  and  _31
REMARK   18  A    between atoms: _32  and  _34
REMARK                            x       y       z     vdW  Elec       q    Type
REMARK                         _______ _______ _______ _____ _____    ______ ____
ROOT
ATOM      1  C   UNL     1       8.548   3.140  35.741  0.00  0.00    +0.175 C 
ENDROOT
BRANCH   1   2
ATOM      2  C   UNL     1       7.773   4.399  35.325  0.00  0.00    +0.176 C 
ATOM      3  O   UNL     1       7.517   5.182  36.523  0.00  0.00    -0.332 OA
ATOM      4  C   UNL     1       6.873   6.481  36.306  0.00  0.00    +0.277 C 
ATOM      5  C   UNL     1       5.560   6.307  35.504  0.00  0.00    +0.110 C 
ATOM      6  C   UNL     1       5.776   5.454  34.237  0.00  0.00    +0.143 C 
ATOM      7  C   UNL     1       6.454   4.126  34.578  0.00  0.00    +0.133 C 
BRANCH   7   8
ATOM      8  N   UNL     1       6.733   3.360  33.353  0.00  0.00    -0.308 N 
ATOM      9  H   UNL     1       7.374   3.760  32.682  0.00  0.00    +0.149 HD
ATOM     10  C   UNL     1       6.193   2.171  33.070  0.00  0.00    +0.210 C 
ATOM     11  C   UNL     1       5.200   1.601  34.100  0.00  0.00    +0.109 C 
ATOM     12  O   UNL     1       6.457   1.545  32.043  0.00  0.00    -0.276 OA
ENDBRANCH   7   8
BRANCH   4  13
ATOM     13  C   UNL     1       7.817   7.439  35.549  0.00  0.00    +0.414 C 
ATOM     14  O   UNL     1       7.417   8.048  34.557  0.00  0.00    -0.240 OA
ATOM     15  O   UNL     1       8.977   7.603  35.929  0.00  0.00    -0.240 OA
ENDBRANCH   4  13
BRANCH   4  16
ATOM     16  O   UNL     1       6.546   7.043  37.603  0.00  0.00    -0.343 OA
ATOM     17  C   UNL     1       6.482   6.082  38.687  0.00  0.00    +0.198 C 
ENDBRANCH   4  16
BRANCH   6  18
ATOM     18  O   UNL     1       4.518   5.193  33.612  0.00  0.00    -0.390 OA
ATOM     19  H   UNL     1       4.508   5.584  32.735  0.00  0.00    +0.210 HD
ENDBRANCH   6  18
ENDBRANCH   1   2
BRANCH   1  20
ATOM     20  O   UNL     1       8.888   3.205  37.140  0.00  0.00    -0.387 OA
ATOM     21  H   UNL     1       9.742   3.633  37.242  0.00  0.00    +0.210 HD
ENDBRANCH   1  20
BRANCH   1  22
ATOM     22  C   UNL     1       9.817   2.936  34.896  0.00  0.00    +0.163 C 
BRANCH  22  23
ATOM     23  O   UNL     1       9.548   2.099  33.759  0.00  0.00    -0.388 OA
ATOM     24  H   UNL     1      10.259   1.462  33.654  0.00  0.00    +0.210 HD
ENDBRANCH  22  23
BRANCH  22  25
ATOM     25  C   UNL     1      10.908   2.310  35.758  0.00  0.00    +0.141 C 
BRANCH  25  28
ATOM     26  C   UNL     1      13.002   3.597  35.505  0.00  0.00    +0.401 C 
ATOM     27  O   UNL     1      13.314   3.061  34.440  0.00  0.00    -0.226 OA
ATOM     28  N   UNL     1      11.898   3.303  36.193  0.00  0.00    -0.279 N 
ATOM     29  H   UNL     1      11.734   3.791  37.062  0.00  0.00    +0.152 HD
BRANCH  26  30
ATOM     30  O   UNL     1      13.864   4.596  36.058  0.00  0.00    -0.444 OA
BRANCH  30  31
ATOM     31  C   UNL     1      15.146   4.523  35.429  0.00  0.00    +0.292 C 
BRANCH  31  33
ATOM     32  N   UNL     1      15.349   5.960  33.422  0.00  0.00    -0.131 NA
ATOM     33  C   UNL     1      15.472   5.806  34.777  0.00  0.00    +0.120 A 
ATOM     34  C   UNL     1      15.920   6.987  35.326  0.00  0.00    +0.137 A 
ATOM     35  N   UNL     1      16.055   7.815  34.253  0.00  0.00    -0.249 N 
ATOM     36  N   UNL     1      15.716   7.196  33.111  0.00  0.00    -0.065 NA
BRANCH  35  37
ATOM     37  C   UNL     1      16.488   9.195  34.244  0.00  0.00    +0.173 C 
BRANCH  37  38
ATOM     38  C   UNL     1      15.887   9.991  33.092  0.00  0.00    +0.179 C 
BRANCH  38  39
ATOM     39  O   UNL     1      14.492   9.725  32.954  0.00  0.00    -0.393 OA
ATOM     40  H   UNL     1      14.067   9.998  33.790  0.00  0.00    +0.209 HD
ENDBRANCH  38  39
ENDBRANCH  37  38
ENDBRANCH  35  37
ENDBRANCH  31  33
ENDBRANCH  30  31
ENDBRANCH  26  30
ENDBRANCH  25  28
ENDBRANCH  22  25
ENDBRANCH   1  22
TORSDOF 16
