REMARK VINA RESULT:    -6.308      1.963      3.195
REMARK INTER + INTRA:         -14.218
REMARK INTER:                 -11.846
REMARK INTRA:                  -2.372
REMARK UNBOUND:                -2.378
REMARK  Name = lig_assembled_68.pdb
REMARK  19 active torsions:
REMARK  status: ('A' for Active; 'I' for Inactive)
REMARK    1  A    between atoms: _2  and  _9
REMARK    2  A    between atoms: _4  and  _21
REMARK    3  A    between atoms: _6  and  _7
REMARK    4  A    between atoms: _6  and  _21
REMARK    5  A    between atoms: _9  and  _10
REMARK    6  A    between atoms: _10  and  _11
REMARK    7  A    between atoms: _10  and  _16
REMARK    8  A    between atoms: _17  and  _37
REMARK    9  A    between atoms: _19  and  _25
REMARK   10  A    between atoms: _20  and  _24
REMARK   11  A    between atoms: _24  and  _25
REMARK   12  A    between atoms: _27  and  _28
REMARK   13  A    between atoms: _29  and  _30
REMARK   14  A    between atoms: _31  and  _33
REMARK   15  A    between atoms: _33  and  _34
REMARK   16  A    between atoms: _33  and  _35
REMARK   17  A    between atoms: _35  and  _36
REMARK   18  A    between atoms: _35  and  _37
REMARK   19  A    between atoms: _38  and  _40
REMARK                            x       y       z     vdW  Elec       q    Type
REMARK                         _______ _______ _______ _____ _____    ______ ____
ROOT
ATOM      1  C   UNL     1       0.146   3.765  32.250  0.00  0.00    +0.163 C 
ENDROOT
BRANCH   1   2
ATOM      2  O   UNL     1      -0.280   2.425  32.545  0.00  0.00    -0.388 OA
ATOM      3  H   UNL     1       0.213   2.090  33.298  0.00  0.00    +0.210 HD
ENDBRANCH   1   2
BRANCH   1   4
ATOM      4  C   UNL     1       1.585   3.776  31.704  0.00  0.00    +0.175 C 
BRANCH   4   5
ATOM      5  C   UNL     1       2.603   3.298  32.749  0.00  0.00    +0.176 C 
ATOM      6  O   UNL     1       3.588   4.352  32.929  0.00  0.00    -0.332 OA
ATOM      7  C   UNL     1       4.588   4.113  33.974  0.00  0.00    +0.277 C 
ATOM      8  C   UNL     1       5.306   2.762  33.739  0.00  0.00    +0.110 C 
ATOM      9  C   UNL     1       4.299   1.615  33.510  0.00  0.00    +0.143 C 
ATOM     10  C   UNL     1       3.304   1.970  32.405  0.00  0.00    +0.133 C 
BRANCH  10  11
ATOM     11  N   UNL     1       2.297   0.907  32.256  0.00  0.00    -0.308 N 
ATOM     12  H   UNL     1       1.715   0.694  33.054  0.00  0.00    +0.149 HD
ATOM     13  C   UNL     1       2.103   0.206  31.136  0.00  0.00    +0.210 C 
ATOM     14  C   UNL     1       3.023   0.537  29.946  0.00  0.00    +0.109 C 
ATOM     15  O   UNL     1       1.242  -0.669  31.036  0.00  0.00    -0.276 OA
ENDBRANCH  10  11
BRANCH   7  16
ATOM     16  C   UNL     1       3.931   4.112  35.370  0.00  0.00    +0.414 C 
ATOM     17  O   UNL     1       3.120   4.985  35.674  0.00  0.00    -0.240 OA
ATOM     18  O   UNL     1       4.211   3.238  36.191  0.00  0.00    -0.240 OA
ENDBRANCH   7  16
BRANCH   7  19
ATOM     19  O   UNL     1       5.576   5.174  33.901  0.00  0.00    -0.343 OA
ATOM     20  C   UNL     1       6.676   5.052  34.838  0.00  0.00    +0.198 C 
ENDBRANCH   7  19
BRANCH   9  21
ATOM     21  O   UNL     1       4.999   0.424  33.149  0.00  0.00    -0.390 OA
ATOM     22  H   UNL     1       5.147   0.415  32.200  0.00  0.00    +0.210 HD
ENDBRANCH   9  21
ENDBRANCH   4   5
BRANCH   4  23
ATOM     23  O   UNL     1       1.930   5.098  31.243  0.00  0.00    -0.387 OA
ATOM     24  H   UNL     1       1.598   5.751  31.863  0.00  0.00    +0.210 HD
ENDBRANCH   4  23
ENDBRANCH   1   4
BRANCH   1  25
ATOM     25  C   UNL     1      -0.792   4.398  31.228  0.00  0.00    +0.141 C 
BRANCH  25  28
ATOM     26  C   UNL     1      -1.105   2.934  29.262  0.00  0.00    +0.401 C 
ATOM     27  O   UNL     1      -1.981   2.248  29.795  0.00  0.00    -0.226 OA
ATOM     28  N   UNL     1      -0.491   3.955  29.861  0.00  0.00    -0.279 N 
ATOM     29  H   UNL     1       0.221   4.452  29.345  0.00  0.00    +0.152 HD
BRANCH  26  30
ATOM     30  O   UNL     1      -0.706   2.632  27.923  0.00  0.00    -0.444 OA
BRANCH  30  31
ATOM     31  C   UNL     1       0.543   3.270  27.642  0.00  0.00    +0.292 C 
BRANCH  31  33
ATOM     32  N   UNL     1      -0.477   5.022  26.214  0.00  0.00    -0.131 NA
ATOM     33  C   UNL     1       0.460   4.035  26.385  0.00  0.00    +0.120 A 
ATOM     34  C   UNL     1       1.214   3.928  25.240  0.00  0.00    +0.137 A 
ATOM     35  N   UNL     1       0.694   4.882  24.414  0.00  0.00    -0.249 N 
ATOM     36  N   UNL     1      -0.329   5.530  24.997  0.00  0.00    -0.065 NA
BRANCH  35  37
ATOM     37  C   UNL     1       1.053   5.154  23.038  0.00  0.00    +0.181 C 
BRANCH  37  38
ATOM     38  C   UNL     1      -0.078   4.800  22.064  0.00  0.00    +0.166 C 
BRANCH  38  39
ATOM     39  C   UNL     1       0.389   4.470  20.654  0.00  0.00    -0.017 A 
ATOM     40  C   UNL     1       1.677   3.932  20.473  0.00  0.00    +0.006 A 
ATOM     41  C   UNL     1       2.136   3.590  19.199  0.00  0.00    +0.000 A 
ATOM     42  C   UNL     1       1.318   3.773  18.089  0.00  0.00    +0.000 A 
ATOM     43  C   UNL     1       0.036   4.286  18.251  0.00  0.00    +0.000 A 
ATOM     44  C   UNL     1      -0.428   4.629  19.524  0.00  0.00    +0.006 A 
ENDBRANCH  38  39
BRANCH  38  45
ATOM     45  O   UNL     1      -0.984   5.905  21.981  0.00  0.00    -0.385 OA
ATOM     46  H   UNL     1      -0.505   6.712  22.231  0.00  0.00    +0.210 HD
ENDBRANCH  38  45
ENDBRANCH  37  38
ENDBRANCH  35  37
ENDBRANCH  31  33
ENDBRANCH  30  31
ENDBRANCH  26  30
ENDBRANCH  25  28
ENDBRANCH   1  25
TORSDOF 17
