REMARK VINA RESULT:    -6.451      5.205      6.596
REMARK INTER + INTRA:         -13.316
REMARK INTER:                 -11.641
REMARK INTRA:                  -1.675
REMARK UNBOUND:                -1.775
REMARK  Name = lig_assembled_69.pdb
REMARK  18 active torsions:
REMARK  status: ('A' for Active; 'I' for Inactive)
REMARK    1  A    between atoms: _2  and  _9
REMARK    2  A    between atoms: _4  and  _21
REMARK    3  A    between atoms: _6  and  _7
REMARK    4  A    between atoms: _6  and  _21
REMARK    5  A    between atoms: _11  and  _16
REMARK    6  A    between atoms: _14  and  _15
REMARK    7  A    between atoms: _17  and  _37
REMARK    8  A    between atoms: _19  and  _25
REMARK    9  A    between atoms: _20  and  _24
REMARK   10  A    between atoms: _24  and  _25
REMARK   11  A    between atoms: _27  and  _28
REMARK   12  A    between atoms: _29  and  _30
REMARK   13  A    between atoms: _31  and  _33
REMARK   14  A    between atoms: _33  and  _34
REMARK   15  A    between atoms: _33  and  _35
REMARK   16  A    between atoms: _35  and  _36
REMARK   17  A    between atoms: _35  and  _37
REMARK   18  A    between atoms: _38  and  _40
REMARK                            x       y       z     vdW  Elec       q    Type
REMARK                         _______ _______ _______ _____ _____    ______ ____
ROOT
ATOM      1  C   UNL     1       7.592   2.548  34.430  0.00  0.00    +0.163 C 
ENDROOT
BRANCH   1   2
ATOM      2  O   UNL     1       8.154   2.502  35.752  0.00  0.00    -0.388 OA
ATOM      3  H   UNL     1       7.654   1.884  36.291  0.00  0.00    +0.210 HD
ENDBRANCH   1   2
BRANCH   1   4
ATOM      4  C   UNL     1       7.853   3.913  33.769  0.00  0.00    +0.175 C 
BRANCH   4   5
ATOM      5  C   UNL     1       7.218   5.067  34.558  0.00  0.00    +0.176 C 
ATOM      6  O   UNL     1       7.958   5.221  35.800  0.00  0.00    -0.332 OA
ATOM      7  C   UNL     1       7.558   6.353  36.641  0.00  0.00    +0.277 C 
ATOM      8  C   UNL     1       6.040   6.294  36.941  0.00  0.00    +0.110 C 
ATOM      9  C   UNL     1       5.212   6.099  35.653  0.00  0.00    +0.143 C 
ATOM     10  C   UNL     1       5.716   4.897  34.854  0.00  0.00    +0.133 C 
BRANCH  10  11
ATOM     11  N   UNL     1       4.977   4.774  33.587  0.00  0.00    -0.308 N 
ATOM     12  H   UNL     1       5.142   5.471  32.875  0.00  0.00    +0.149 HD
ATOM     13  C   UNL     1       4.102   3.801  33.318  0.00  0.00    +0.210 C 
ATOM     14  C   UNL     1       3.853   2.768  34.434  0.00  0.00    +0.109 C 
ATOM     15  O   UNL     1       3.508   3.714  32.242  0.00  0.00    -0.276 OA
ENDBRANCH  10  11
BRANCH   7  16
ATOM     16  C   UNL     1       7.896   7.692  35.953  0.00  0.00    +0.414 C 
ATOM     17  O   UNL     1       8.182   8.681  36.628  0.00  0.00    -0.240 OA
ATOM     18  O   UNL     1       7.882   7.784  34.725  0.00  0.00    -0.240 OA
ENDBRANCH   7  16
BRANCH   7  19
ATOM     19  O   UNL     1       8.276   6.255  37.898  0.00  0.00    -0.343 OA
ATOM     20  C   UNL     1       7.467   6.460  39.083  0.00  0.00    +0.198 C 
ENDBRANCH   7  19
BRANCH   9  21
ATOM     21  O   UNL     1       3.839   5.898  35.989  0.00  0.00    -0.390 OA
ATOM     22  H   UNL     1       3.645   6.335  36.822  0.00  0.00    +0.210 HD
ENDBRANCH   9  21
ENDBRANCH   4   5
BRANCH   4  23
ATOM     23  O   UNL     1       7.364   3.909  32.413  0.00  0.00    -0.387 OA
ATOM     24  H   UNL     1       6.705   3.218  32.312  0.00  0.00    +0.210 HD
ENDBRANCH   4  23
ENDBRANCH   1   4
BRANCH   1  25
ATOM     25  C   UNL     1       8.193   1.442  33.569  0.00  0.00    +0.141 C 
BRANCH  25  28
ATOM     26  C   UNL     1       6.226   0.349  32.548  0.00  0.00    +0.401 C 
ATOM     27  O   UNL     1       5.934   1.318  31.844  0.00  0.00    -0.226 OA
ATOM     28  N   UNL     1       7.261   0.322  33.388  0.00  0.00    -0.279 N 
ATOM     29  H   UNL     1       7.413  -0.516  33.932  0.00  0.00    +0.152 HD
BRANCH  26  30
ATOM     30  O   UNL     1       5.415  -0.828  32.480  0.00  0.00    -0.444 OA
BRANCH  30  31
ATOM     31  C   UNL     1       6.255  -1.983  32.420  0.00  0.00    +0.292 C 
BRANCH  31  33
ATOM     32  N   UNL     1       6.430  -3.736  30.686  0.00  0.00    -0.131 NA
ATOM     33  C   UNL     1       6.445  -2.409  31.021  0.00  0.00    +0.120 A 
ATOM     34  C   UNL     1       6.662  -1.660  29.886  0.00  0.00    +0.137 A 
ATOM     35  N   UNL     1       6.784  -2.590  28.897  0.00  0.00    -0.248 N 
ATOM     36  N   UNL     1       6.644  -3.836  29.383  0.00  0.00    -0.065 NA
BRANCH  35  37
ATOM     37  C   UNL     1       7.085  -2.369  27.483  0.00  0.00    +0.114 C 
ATOM     38  C   UNL     1       5.818  -2.040  26.684  0.00  0.00    +0.062 C 
ATOM     39  C   UNL     1       4.999  -3.234  26.192  0.00  0.00    +0.139 C 
ATOM     40  C   UNL     1       5.610  -4.057  25.092  0.00  0.00    +0.002 C 
ATOM     41  C   UNL     1       6.900  -4.154  24.734  0.00  0.00    +0.002 C 
ATOM     42  C   UNL     1       8.092  -3.578  25.435  0.00  0.00    +0.139 C 
ATOM     43  C   UNL     1       7.963  -3.511  26.952  0.00  0.00    +0.062 C 
BRANCH  39  44
ATOM     44  O   UNL     1       3.781  -2.711  25.647  0.00  0.00    -0.388 OA
ATOM     45  H   UNL     1       3.801  -1.747  25.766  0.00  0.00    +0.210 HD
ENDBRANCH  39  44
BRANCH  42  46
ATOM     46  O   UNL     1       8.376  -2.294  24.903  0.00  0.00    -0.388 OA
ATOM     47  H   UNL     1       7.816  -1.654  25.376  0.00  0.00    +0.210 HD
ENDBRANCH  42  46
ENDBRANCH  35  37
ENDBRANCH  31  33
ENDBRANCH  30  31
ENDBRANCH  26  30
ENDBRANCH  25  28
ENDBRANCH   1  25
TORSDOF 16
