REMARK VINA RESULT:    -5.856     15.363     18.112
REMARK INTER + INTRA:         -12.627
REMARK INTER:                 -10.165
REMARK INTRA:                  -2.462
REMARK UNBOUND:                -2.491
REMARK  Name = lig_assembled_57.pdb
REMARK  17 active torsions:
REMARK  status: ('A' for Active; 'I' for Inactive)
REMARK    1  A    between atoms: _2  and  _10
REMARK    2  A    between atoms: _3  and  _13
REMARK    3  A    between atoms: _5  and  _19
REMARK    4  A    between atoms: _7  and  _8
REMARK    5  A    between atoms: _7  and  _19
REMARK    6  A    between atoms: _15  and  _35
REMARK    7  A    between atoms: _17  and  _23
REMARK    8  A    between atoms: _18  and  _22
REMARK    9  A    between atoms: _22  and  _23
REMARK   10  A    between atoms: _25  and  _26
REMARK   11  A    between atoms: _27  and  _28
REMARK   12  A    between atoms: _29  and  _31
REMARK   13  A    between atoms: _31  and  _32
REMARK   14  A    between atoms: _31  and  _33
REMARK   15  A    between atoms: _33  and  _34
REMARK   16  A    between atoms: _33  and  _35
REMARK   17  A    between atoms: _36  and  _38
REMARK                            x       y       z     vdW  Elec       q    Type
REMARK                         _______ _______ _______ _____ _____    ______ ____
ROOT
ATOM      1  C   UNL     1      17.079   2.470  22.983  0.00  0.00    +0.163 C 
ENDROOT
BRANCH   1   2
ATOM      2  O   UNL     1      17.566   1.601  21.948  0.00  0.00    -0.388 OA
ATOM      3  H   UNL     1      16.998   0.829  21.883  0.00  0.00    +0.210 HD
ENDBRANCH   1   2
BRANCH   1   4
ATOM      4  C   UNL     1      17.486   3.911  22.689  0.00  0.00    +0.141 C 
BRANCH   4   7
ATOM      5  C   UNL     1      18.530   5.808  23.879  0.00  0.00    +0.401 C 
ATOM      6  O   UNL     1      18.268   6.628  22.996  0.00  0.00    -0.226 OA
ATOM      7  N   UNL     1      18.207   4.516  23.816  0.00  0.00    -0.279 N 
ATOM      8  H   UNL     1      18.474   3.919  24.586  0.00  0.00    +0.152 HD
BRANCH   5   9
ATOM      9  O   UNL     1      19.225   6.246  25.049  0.00  0.00    -0.444 OA
BRANCH   9  10
ATOM     10  C   UNL     1      19.238   5.195  26.019  0.00  0.00    +0.292 C 
BRANCH  10  12
ATOM     11  N   UNL     1      18.836   5.002  28.448  0.00  0.00    -0.131 NA
ATOM     12  C   UNL     1      19.214   5.764  27.379  0.00  0.00    +0.120 A 
ATOM     13  C   UNL     1      19.554   7.024  27.821  0.00  0.00    +0.137 A 
ATOM     14  N   UNL     1      19.448   6.942  29.177  0.00  0.00    -0.248 N 
ATOM     15  N   UNL     1      18.945   5.743  29.539  0.00  0.00    -0.065 NA
BRANCH  14  16
ATOM     16  C   UNL     1      19.837   7.876  30.228  0.00  0.00    +0.111 C 
ATOM     17  C   UNL     1      19.754   9.325  29.725  0.00  0.00    +0.042 C 
ATOM     18  C   UNL     1      18.298   9.775  29.624  0.00  0.00    +0.086 C 
ATOM     19  N   UNL     1      17.586   9.695  30.905  0.00  0.00    -0.305 NA
ATOM     20  C   UNL     1      17.666   8.366  31.510  0.00  0.00    +0.086 C 
ATOM     21  C   UNL     1      17.976  10.762  31.823  0.00  0.00    +0.104 C 
ATOM     22  C   UNL     1      19.075   7.758  31.558  0.00  0.00    +0.042 C 
ENDBRANCH  14  16
ENDBRANCH  10  12
ENDBRANCH   9  10
ENDBRANCH   5   9
ENDBRANCH   4   7
ENDBRANCH   1   4
BRANCH   1  23
ATOM     23  C   UNL     1      17.627   2.051  24.357  0.00  0.00    +0.175 C 
BRANCH  23  24
ATOM     24  C   UNL     1      17.998   0.561  24.401  0.00  0.00    +0.176 C 
ATOM     25  O   UNL     1      16.806  -0.206  24.074  0.00  0.00    -0.332 OA
ATOM     26  C   UNL     1      16.996  -1.655  23.964  0.00  0.00    +0.277 C 
ATOM     27  C   UNL     1      17.641  -2.216  25.255  0.00  0.00    +0.110 C 
ATOM     28  C   UNL     1      18.894  -1.413  25.661  0.00  0.00    +0.143 C 
ATOM     29  C   UNL     1      18.585   0.083  25.742  0.00  0.00    +0.133 C 
BRANCH  29  30
ATOM     30  N   UNL     1      19.806   0.846  26.045  0.00  0.00    -0.308 N 
ATOM     31  H   UNL     1      20.555   0.825  25.367  0.00  0.00    +0.149 HD
ATOM     32  C   UNL     1      19.988   1.565  27.156  0.00  0.00    +0.210 C 
ATOM     33  C   UNL     1      18.838   1.556  28.180  0.00  0.00    +0.109 C 
ATOM     34  O   UNL     1      21.016   2.206  27.376  0.00  0.00    -0.276 OA
ENDBRANCH  29  30
BRANCH  26  35
ATOM     35  C   UNL     1      17.885  -2.000  22.751  0.00  0.00    +0.414 C 
ATOM     36  O   UNL     1      18.036  -1.185  21.841  0.00  0.00    -0.240 OA
ATOM     37  O   UNL     1      18.452  -3.091  22.683  0.00  0.00    -0.240 OA
ENDBRANCH  26  35
BRANCH  28  38
ATOM     38  O   UNL     1      19.367  -1.865  26.930  0.00  0.00    -0.390 OA
ATOM     39  H   UNL     1      18.644  -2.269  27.416  0.00  0.00    +0.210 HD
ENDBRANCH  28  38
BRANCH  26  40
ATOM     40  O   UNL     1      15.690  -2.268  23.802  0.00  0.00    -0.343 OA
ATOM     41  C   UNL     1      15.474  -3.466  24.589  0.00  0.00    +0.198 C 
ENDBRANCH  26  40
ENDBRANCH  23  24
BRANCH  23  42
ATOM     42  O   UNL     1      16.667   2.355  25.389  0.00  0.00    -0.387 OA
ATOM     43  H   UNL     1      15.933   2.843  25.009  0.00  0.00    +0.210 HD
ENDBRANCH  23  42
ENDBRANCH   1  23
TORSDOF 14
