REMARK VINA RESULT:    -6.198      4.871      5.563
REMARK INTER + INTRA:         -12.759
REMARK INTER:                 -10.995
REMARK INTRA:                  -1.764
REMARK UNBOUND:                -2.031
REMARK  Name = lig_assembled_42.pdb
REMARK  16 active torsions:
REMARK  status: ('A' for Active; 'I' for Inactive)
REMARK    1  A    between atoms: _2  and  _9
REMARK    2  A    between atoms: _4  and  _21
REMARK    3  A    between atoms: _6  and  _7
REMARK    4  A    between atoms: _6  and  _21
REMARK    5  A    between atoms: _17  and  _37
REMARK    6  A    between atoms: _19  and  _25
REMARK    7  A    between atoms: _20  and  _24
REMARK    8  A    between atoms: _24  and  _25
REMARK    9  A    between atoms: _27  and  _28
REMARK   10  A    between atoms: _29  and  _30
REMARK   11  A    between atoms: _31  and  _33
REMARK   12  A    between atoms: _33  and  _34
REMARK   13  A    between atoms: _33  and  _35
REMARK   14  A    between atoms: _35  and  _36
REMARK   15  A    between atoms: _35  and  _37
REMARK   16  A    between atoms: _38  and  _40
REMARK                            x       y       z     vdW  Elec       q    Type
REMARK                         _______ _______ _______ _____ _____    ______ ____
ROOT
ATOM      1  C   UNL     1       6.686   2.510  33.502  0.00  0.00    +0.163 C 
ENDROOT
BRANCH   1   2
ATOM      2  O   UNL     1       7.045   1.562  32.483  0.00  0.00    -0.388 OA
ATOM      3  H   UNL     1       6.249   1.177  32.109  0.00  0.00    +0.210 HD
ENDBRANCH   1   2
BRANCH   1   4
ATOM      4  C   UNL     1       5.394   3.225  33.117  0.00  0.00    +0.141 C 
BRANCH   4   7
ATOM      5  C   UNL     1       3.377   2.801  31.755  0.00  0.00    +0.401 C 
ATOM      6  O   UNL     1       2.837   3.868  32.053  0.00  0.00    -0.226 OA
ATOM      7  N   UNL     1       4.570   2.416  32.211  0.00  0.00    -0.279 N 
ATOM      8  H   UNL     1       4.926   1.518  31.917  0.00  0.00    +0.152 HD
BRANCH   5   9
ATOM      9  O   UNL     1       2.702   1.903  30.870  0.00  0.00    -0.444 OA
BRANCH   9  10
ATOM     10  C   UNL     1       2.793   0.570  31.380  0.00  0.00    +0.292 C 
BRANCH  10  12
ATOM     11  N   UNL     1       5.066  -0.392  31.636  0.00  0.00    -0.131 NA
ATOM     12  C   UNL     1       3.990  -0.107  30.847  0.00  0.00    +0.121 A 
ATOM     13  C   UNL     1       4.244  -0.545  29.570  0.00  0.00    +0.143 A 
ATOM     14  N   UNL     1       5.500  -1.100  29.623  0.00  0.00    -0.220 N 
ATOM     15  N   UNL     1       5.981  -0.997  30.887  0.00  0.00    -0.060 NA
BRANCH  14  16
ATOM     16  C   UNL     1       6.242  -1.698  28.573  0.00  0.00    +0.071 A 
ATOM     17  C   UNL     1       5.736  -1.692  27.264  0.00  0.00    +0.077 A 
ATOM     18  C   UNL     1       6.494  -2.286  26.278  0.00  0.00    +0.168 A 
ATOM     19  O   UNL     1       6.151  -2.361  24.966  0.00  0.00    -0.453 OA
ATOM     20  C   UNL     1       7.293  -3.059  24.429  0.00  0.00    +0.466 C 
ATOM     21  O   UNL     1       8.283  -3.391  25.427  0.00  0.00    -0.453 OA
ATOM     22  C   UNL     1       7.709  -2.870  26.544  0.00  0.00    +0.166 A 
ATOM     23  C   UNL     1       8.236  -2.897  27.817  0.00  0.00    +0.051 A 
ATOM     24  C   UNL     1       7.493  -2.303  28.846  0.00  0.00    +0.031 A 
ENDBRANCH  14  16
ENDBRANCH  10  12
ENDBRANCH   9  10
ENDBRANCH   5   9
ENDBRANCH   4   7
ENDBRANCH   1   4
BRANCH   1  25
ATOM     25  C   UNL     1       7.804   3.545  33.709  0.00  0.00    +0.175 C 
BRANCH  25  26
ATOM     26  C   UNL     1       7.696   4.249  35.070  0.00  0.00    +0.176 C 
ATOM     27  O   UNL     1       7.416   5.655  34.826  0.00  0.00    -0.332 OA
ATOM     28  C   UNL     1       7.173   6.470  36.020  0.00  0.00    +0.277 C 
ATOM     29  C   UNL     1       8.352   6.336  37.015  0.00  0.00    +0.110 C 
ATOM     30  C   UNL     1       8.708   4.858  37.281  0.00  0.00    +0.143 C 
ATOM     31  C   UNL     1       8.936   4.104  35.971  0.00  0.00    +0.133 C 
BRANCH  31  32
ATOM     32  N   UNL     1       9.188   2.678  36.235  0.00  0.00    -0.308 N 
ATOM     33  H   UNL     1       8.453   2.142  36.674  0.00  0.00    +0.149 HD
ATOM     34  C   UNL     1      10.325   2.046  35.932  0.00  0.00    +0.210 C 
ATOM     35  C   UNL     1      11.436   2.897  35.287  0.00  0.00    +0.109 C 
ATOM     36  O   UNL     1      10.503   0.848  36.151  0.00  0.00    -0.276 OA
ENDBRANCH  31  32
BRANCH  28  37
ATOM     37  C   UNL     1       5.862   6.046  36.714  0.00  0.00    +0.414 C 
ATOM     38  O   UNL     1       5.006   5.419  36.092  0.00  0.00    -0.240 OA
ATOM     39  O   UNL     1       5.661   6.331  37.896  0.00  0.00    -0.240 OA
ENDBRANCH  28  37
BRANCH  30  40
ATOM     40  O   UNL     1       9.889   4.783  38.080  0.00  0.00    -0.390 OA
ATOM     41  H   UNL     1       9.662   4.478  38.961  0.00  0.00    +0.210 HD
ENDBRANCH  30  40
BRANCH  28  42
ATOM     42  O   UNL     1       7.080   7.857  35.605  0.00  0.00    -0.343 OA
ATOM     43  C   UNL     1       7.723   8.163  34.342  0.00  0.00    +0.198 C 
ENDBRANCH  28  42
ENDBRANCH  25  26
BRANCH  25  44
ATOM     44  O   UNL     1       7.785   4.517  32.645  0.00  0.00    -0.387 OA
ATOM     45  H   UNL     1       7.967   5.389  33.004  0.00  0.00    +0.210 HD
ENDBRANCH  25  44
ENDBRANCH   1  25
TORSDOF 14
