REMARK VINA RESULT:    -6.602      8.857     13.968
REMARK INTER + INTRA:         -13.836
REMARK INTER:                 -12.629
REMARK INTRA:                  -1.207
REMARK UNBOUND:                -1.444
REMARK  Name = lig_assembled_16.pdb
REMARK  19 active torsions:
REMARK  status: ('A' for Active; 'I' for Inactive)
REMARK    1  A    between atoms: _2  and  _9
REMARK    2  A    between atoms: _4  and  _22
REMARK    3  A    between atoms: _6  and  _7
REMARK    4  A    between atoms: _6  and  _22
REMARK    5  A    between atoms: _9  and  _10
REMARK    6  A    between atoms: _13  and  _14
REMARK    7  A    between atoms: _14  and  _16
REMARK    8  A    between atoms: _18  and  _38
REMARK    9  A    between atoms: _20  and  _26
REMARK   10  A    between atoms: _21  and  _25
REMARK   11  A    between atoms: _25  and  _26
REMARK   12  A    between atoms: _28  and  _29
REMARK   13  A    between atoms: _30  and  _31
REMARK   14  A    between atoms: _32  and  _34
REMARK   15  A    between atoms: _34  and  _35
REMARK   16  A    between atoms: _34  and  _36
REMARK   17  A    between atoms: _36  and  _37
REMARK   18  A    between atoms: _36  and  _38
REMARK   19  A    between atoms: _39  and  _41
REMARK                            x       y       z     vdW  Elec       q    Type
REMARK                         _______ _______ _______ _____ _____    ______ ____
ROOT
ATOM      1  C   UNL     1      18.633   2.417  24.578  0.00  0.00    +0.163 C 
ENDROOT
BRANCH   1   2
ATOM      2  O   UNL     1      19.088   2.628  25.925  0.00  0.00    -0.388 OA
ATOM      3  H   UNL     1      19.977   2.990  25.911  0.00  0.00    +0.210 HD
ENDBRANCH   1   2
BRANCH   1   4
ATOM      4  C   UNL     1      17.195   1.871  24.562  0.00  0.00    +0.175 C 
BRANCH   4   5
ATOM      5  C   UNL     1      17.152   0.366  24.257  0.00  0.00    +0.176 C 
ATOM      6  O   UNL     1      17.456  -0.349  25.486  0.00  0.00    -0.332 OA
ATOM      7  C   UNL     1      17.358  -1.809  25.412  0.00  0.00    +0.277 C 
ATOM      8  C   UNL     1      18.238  -2.353  24.259  0.00  0.00    +0.110 C 
ATOM      9  C   UNL     1      17.972  -1.602  22.937  0.00  0.00    +0.143 C 
ATOM     10  C   UNL     1      18.098  -0.090  23.131  0.00  0.00    +0.133 C 
BRANCH  10  11
ATOM     11  N   UNL     1      17.759   0.618  21.886  0.00  0.00    -0.308 N 
ATOM     12  H   UNL     1      16.786   0.655  21.615  0.00  0.00    +0.149 HD
ATOM     13  C   UNL     1      18.651   1.217  21.093  0.00  0.00    +0.210 C 
ATOM     14  C   UNL     1      20.128   1.121  21.521  0.00  0.00    +0.109 C 
ATOM     15  O   UNL     1      18.336   1.816  20.064  0.00  0.00    -0.276 OA
ENDBRANCH  10  11
BRANCH   7  16
ATOM     16  C   UNL     1      15.895  -2.248  25.194  0.00  0.00    +0.414 C 
ATOM     17  O   UNL     1      15.330  -2.016  24.126  0.00  0.00    -0.240 OA
ATOM     18  O   UNL     1      15.280  -2.834  26.086  0.00  0.00    -0.240 OA
ENDBRANCH   7  16
BRANCH   7  19
ATOM     19  O   UNL     1      17.851  -2.357  26.661  0.00  0.00    -0.343 OA
ATOM     20  C   UNL     1      18.129  -1.376  27.692  0.00  0.00    +0.198 C 
ENDBRANCH   7  19
BRANCH   9  21
ATOM     21  O   UNL     1      18.906  -2.029  21.945  0.00  0.00    -0.390 OA
ATOM     22  H   UNL     1      18.983  -2.985  21.967  0.00  0.00    +0.210 HD
ENDBRANCH   9  21
ENDBRANCH   4   5
BRANCH   4  23
ATOM     23  O   UNL     1      16.399   2.595  23.603  0.00  0.00    -0.387 OA
ATOM     24  H   UNL     1      16.970   2.955  22.920  0.00  0.00    +0.210 HD
ENDBRANCH   4  23
ENDBRANCH   1   4
BRANCH   1  25
ATOM     25  C   UNL     1      18.689   3.727  23.799  0.00  0.00    +0.141 C 
BRANCH  25  28
ATOM     26  C   UNL     1      18.476   6.145  24.259  0.00  0.00    +0.401 C 
ATOM     27  O   UNL     1      18.331   6.454  23.074  0.00  0.00    -0.226 OA
ATOM     28  N   UNL     1      18.655   4.895  24.687  0.00  0.00    -0.279 N 
ATOM     29  H   UNL     1      18.774   4.743  25.679  0.00  0.00    +0.152 HD
BRANCH  26  30
ATOM     30  O   UNL     1      18.458   7.174  25.252  0.00  0.00    -0.444 OA
BRANCH  30  31
ATOM     31  C   UNL     1      19.660   7.114  26.024  0.00  0.00    +0.292 C 
BRANCH  31  33
ATOM     32  N   UNL     1      18.958   9.337  26.863  0.00  0.00    -0.131 NA
ATOM     33  C   UNL     1      19.664   8.175  27.046  0.00  0.00    +0.120 A 
ATOM     34  C   UNL     1      20.282   8.214  28.276  0.00  0.00    +0.137 A 
ATOM     35  N   UNL     1      19.836   9.378  28.827  0.00  0.00    -0.247 N 
ATOM     36  N   UNL     1      19.084  10.076  27.957  0.00  0.00    -0.065 NA
BRANCH  35  37
ATOM     37  C   UNL     1      20.062   9.872  30.170  0.00  0.00    +0.180 C 
BRANCH  37  38
ATOM     38  C   UNL     1      18.822   9.733  31.023  0.00  0.00    -0.026 A 
ATOM     39  C   UNL     1      18.209  10.862  31.585  0.00  0.00    +0.006 A 
ATOM     40  C   UNL     1      17.042  10.731  32.343  0.00  0.00    +0.015 A 
ATOM     41  C   UNL     1      16.478   9.472  32.559  0.00  0.00    +0.059 A 
ATOM     42  C   UNL     1      17.094   8.332  32.021  0.00  0.00    +0.015 A 
ATOM     43  C   UNL     1      18.266   8.466  31.269  0.00  0.00    +0.006 A 
BRANCH  41  44
ATOM     44  C   UNL     1      15.196   9.397  33.309  0.00  0.00    +0.337 C 
ATOM     45  O   UNL     1      14.718   8.341  33.689  0.00  0.00    -0.245 OA
BRANCH  44  46
ATOM     46  O   UNL     1      14.598  10.588  33.499  0.00  0.00    -0.477 OA
ATOM     47  H   UNL     1      15.096  11.360  33.174  0.00  0.00    +0.295 HD
ENDBRANCH  44  46
ENDBRANCH  41  44
ENDBRANCH  37  38
ENDBRANCH  35  37
ENDBRANCH  31  33
ENDBRANCH  30  31
ENDBRANCH  26  30
ENDBRANCH  25  28
ENDBRANCH   1  25
TORSDOF 17
