REMARK VINA RESULT:    -7.358     24.948     26.946
REMARK INTER + INTRA:         -17.284
REMARK INTER:                 -14.481
REMARK INTRA:                  -2.803
REMARK UNBOUND:                -3.474
REMARK  Name = lig_assembled_34.pdb
REMARK  19 active torsions:
REMARK  status: ('A' for Active; 'I' for Inactive)
REMARK    1  A    between atoms: _2  and  _9
REMARK    2  A    between atoms: _4  and  _37
REMARK    3  A    between atoms: _6  and  _7
REMARK    4  A    between atoms: _6  and  _37
REMARK    5  A    between atoms: _11  and  _12
REMARK    6  A    between atoms: _13  and  _14
REMARK    7  A    between atoms: _18  and  _31
REMARK    8  A    between atoms: _33  and  _53
REMARK    9  A    between atoms: _35  and  _41
REMARK   10  A    between atoms: _36  and  _40
REMARK   11  A    between atoms: _40  and  _41
REMARK   12  A    between atoms: _43  and  _44
REMARK   13  A    between atoms: _45  and  _46
REMARK   14  A    between atoms: _47  and  _49
REMARK   15  A    between atoms: _49  and  _50
REMARK   16  A    between atoms: _49  and  _51
REMARK   17  A    between atoms: _51  and  _52
REMARK   18  A    between atoms: _51  and  _53
REMARK   19  A    between atoms: _54  and  _56
REMARK                            x       y       z     vdW  Elec       q    Type
REMARK                         _______ _______ _______ _____ _____    ______ ____
ROOT
ATOM      1  N   UNL     1      19.289   9.109  27.202  0.00  0.00    -0.131 NA
ATOM      2  C   UNL     1      19.627   7.785  27.219  0.00  0.00    +0.121 A 
ATOM      3  C   UNL     1      19.553   7.325  28.511  0.00  0.00    +0.143 A 
ATOM      4  N   UNL     1      19.134   8.401  29.263  0.00  0.00    -0.220 N 
ATOM      5  N   UNL     1      19.005   9.482  28.448  0.00  0.00    -0.060 NA
ENDROOT
BRANCH   4   6
ATOM      6  C   UNL     1      18.822   8.430  30.649  0.00  0.00    +0.068 A 
ATOM      7  C   UNL     1      17.538   8.074  31.077  0.00  0.00    +0.038 A 
ATOM      8  C   UNL     1      17.119   8.202  32.424  0.00  0.00    +0.007 A 
ATOM      9  C   UNL     1      18.058   8.635  33.382  0.00  0.00    -0.008 A 
ATOM     10  C   UNL     1      19.370   8.946  32.949  0.00  0.00    +0.011 A 
ATOM     11  C   UNL     1      19.748   8.863  31.597  0.00  0.00    +0.028 A 
BRANCH   9  12
ATOM     12  C   UNL     1      17.750   8.871  34.831  0.00  0.00    +0.004 A 
ATOM     13  C   UNL     1      17.509  10.116  35.333  0.00  0.00    +0.026 A 
ATOM     14  C   UNL     1      17.590  11.331  34.513  0.00  0.00    +0.016 A 
ATOM     15  C   UNL     1      17.535  12.553  35.063  0.00  0.00    +0.051 A 
ATOM     16  C   UNL     1      17.354  12.716  36.526  0.00  0.00    +0.183 A 
ATOM     17  O   UNL     1      17.368  13.826  37.050  0.00  0.00    -0.288 OA
ATOM     18  C   UNL     1      17.083  11.499  37.317  0.00  0.00    +0.097 A 
ATOM     19  C   UNL     1      17.123  10.290  36.746  0.00  0.00    +0.140 A 
ATOM     20  O   UNL     1      16.725   9.193  37.496  0.00  0.00    -0.455 OA
ATOM     21  C   UNL     1      16.997   7.939  37.019  0.00  0.00    +0.140 A 
ATOM     22  C   UNL     1      16.660   6.873  37.854  0.00  0.00    +0.092 A 
ATOM     23  C   UNL     1      16.961   5.579  37.459  0.00  0.00    +0.120 A 
ATOM     24  C   UNL     1      17.663   5.347  36.281  0.00  0.00    +0.046 A 
ATOM     25  C   UNL     1      17.983   6.423  35.449  0.00  0.00    +0.016 A 
ATOM     26  C   UNL     1      17.597   7.731  35.779  0.00  0.00    +0.026 A 
BRANCH  23  27
ATOM     27  O   UNL     1      16.542   4.549  38.248  0.00  0.00    -0.507 OA
ATOM     28  H   UNL     1      17.324   4.184  38.693  0.00  0.00    +0.292 HD
ENDBRANCH  23  27
ENDBRANCH   9  12
BRANCH   8  29
ATOM     29  C   UNL     1      15.654   7.932  32.704  0.00  0.00    +0.072 C 
ATOM     30  O   UNL     1      14.900   8.955  32.774  0.00  0.00    -0.545 OA
ATOM     31  O   UNL     1      15.295   6.738  32.924  0.00  0.00    -0.545 OA
ENDBRANCH   8  29
ENDBRANCH   4   6
BRANCH   2  32
ATOM     32  C   UNL     1      19.998   7.047  25.997  0.00  0.00    +0.292 C 
BRANCH  32  33
ATOM     33  O   UNL     1      18.914   6.228  25.551  0.00  0.00    -0.444 OA
BRANCH  33  34
ATOM     34  C   UNL     1      19.224   4.853  25.791  0.00  0.00    +0.401 C 
ATOM     35  O   UNL     1      20.396   4.531  26.000  0.00  0.00    -0.226 OA
ATOM     36  N   UNL     1      18.206   3.992  25.776  0.00  0.00    -0.279 N 
ATOM     37  H   UNL     1      17.278   4.353  25.605  0.00  0.00    +0.152 HD
BRANCH  36  38
ATOM     38  C   UNL     1      18.357   2.548  25.995  0.00  0.00    +0.141 C 
BRANCH  38  39
ATOM     39  C   UNL     1      17.008   1.843  26.094  0.00  0.00    +0.163 C 
BRANCH  39  40
ATOM     40  O   UNL     1      16.074   2.667  26.812  0.00  0.00    -0.388 OA
ATOM     41  H   UNL     1      16.469   3.526  26.982  0.00  0.00    +0.210 HD
ENDBRANCH  39  40
BRANCH  39  42
ATOM     42  C   UNL     1      16.488   1.528  24.681  0.00  0.00    +0.175 C 
BRANCH  42  43
ATOM     43  C   UNL     1      17.571   0.892  23.796  0.00  0.00    +0.176 C 
ATOM     44  O   UNL     1      17.560   1.578  22.514  0.00  0.00    -0.332 OA
ATOM     45  C   UNL     1      18.605   1.174  21.569  0.00  0.00    +0.277 C 
ATOM     46  C   UNL     1      18.568  -0.357  21.344  0.00  0.00    +0.110 C 
ATOM     47  C   UNL     1      18.547  -1.129  22.680  0.00  0.00    +0.143 C 
ATOM     48  C   UNL     1      17.423  -0.626  23.586  0.00  0.00    +0.133 C 
BRANCH  48  49
ATOM     49  N   UNL     1      17.467  -1.309  24.889  0.00  0.00    -0.308 N 
ATOM     50  H   UNL     1      18.228  -1.082  25.514  0.00  0.00    +0.149 HD
ATOM     51  C   UNL     1      16.568  -2.207  25.299  0.00  0.00    +0.210 C 
ATOM     52  C   UNL     1      15.436  -2.550  24.312  0.00  0.00    +0.109 C 
ATOM     53  O   UNL     1      16.622  -2.752  26.402  0.00  0.00    -0.276 OA
ENDBRANCH  48  49
BRANCH  45  54
ATOM     54  C   UNL     1      19.999   1.585  22.087  0.00  0.00    +0.414 C 
ATOM     55  O   UNL     1      20.110   2.480  22.924  0.00  0.00    -0.240 OA
ATOM     56  O   UNL     1      21.012   1.022  21.669  0.00  0.00    -0.240 OA
ENDBRANCH  45  54
BRANCH  47  57
ATOM     57  O   UNL     1      18.360  -2.523  22.428  0.00  0.00    -0.390 OA
ATOM     58  H   UNL     1      19.188  -2.988  22.567  0.00  0.00    +0.210 HD
ENDBRANCH  47  57
BRANCH  45  59
ATOM     59  O   UNL     1      18.343   1.829  20.301  0.00  0.00    -0.343 OA
ATOM     60  C   UNL     1      16.967   1.759  19.849  0.00  0.00    +0.198 C 
ENDBRANCH  45  59
ENDBRANCH  42  43
BRANCH  42  61
ATOM     61  O   UNL     1      15.979   2.725  24.060  0.00  0.00    -0.387 OA
ATOM     62  H   UNL     1      16.590   3.449  24.210  0.00  0.00    +0.210 HD
ENDBRANCH  42  61
ENDBRANCH  39  42
ENDBRANCH  38  39
ENDBRANCH  36  38
ENDBRANCH  33  34
ENDBRANCH  32  33
ENDBRANCH   2  32
TORSDOF 17
