REMARK VINA RESULT:    -5.653     13.826     15.619
REMARK INTER + INTRA:         -13.939
REMARK INTER:                 -11.233
REMARK INTRA:                  -2.705
REMARK UNBOUND:                -2.172
REMARK  Name = lig_assembled_54.pdb
REMARK  24 active torsions:
REMARK  status: ('A' for Active; 'I' for Inactive)
REMARK    1  A    between atoms: _2  and  _9
REMARK    2  A    between atoms: _4  and  _21
REMARK    3  A    between atoms: _5  and  _14
REMARK    4  A    between atoms: _6  and  _7
REMARK    5  A    between atoms: _6  and  _21
REMARK    6  A    between atoms: _9  and  _10
REMARK    7  A    between atoms: _10  and  _11
REMARK    8  A    between atoms: _11  and  _15
REMARK    9  A    between atoms: _11  and  _16
REMARK   10  A    between atoms: _12  and  _13
REMARK   11  A    between atoms: _12  and  _16
REMARK   12  A    between atoms: _14  and  _15
REMARK   13  A    between atoms: _17  and  _37
REMARK   14  A    between atoms: _19  and  _25
REMARK   15  A    between atoms: _20  and  _24
REMARK   16  A    between atoms: _24  and  _25
REMARK   17  A    between atoms: _27  and  _28
REMARK   18  A    between atoms: _29  and  _30
REMARK   19  A    between atoms: _31  and  _33
REMARK   20  A    between atoms: _33  and  _34
REMARK   21  A    between atoms: _33  and  _35
REMARK   22  A    between atoms: _35  and  _36
REMARK   23  A    between atoms: _35  and  _37
REMARK   24  A    between atoms: _38  and  _40
REMARK                            x       y       z     vdW  Elec       q    Type
REMARK                         _______ _______ _______ _____ _____    ______ ____
ROOT
ATOM      1  C   UNL     1      18.478  10.441  29.943  0.00  0.00    +0.163 C 
ENDROOT
BRANCH   1   2
ATOM      2  O   UNL     1      17.130  10.751  30.332  0.00  0.00    -0.388 OA
ATOM      3  H   UNL     1      16.525  10.140  29.903  0.00  0.00    +0.210 HD
ENDBRANCH   1   2
BRANCH   1   4
ATOM      4  C   UNL     1      18.766   8.939  30.102  0.00  0.00    +0.175 C 
BRANCH   4   5
ATOM      5  C   UNL     1      17.972   8.318  31.261  0.00  0.00    +0.176 C 
ATOM      6  O   UNL     1      18.032   9.236  32.387  0.00  0.00    -0.332 OA
ATOM      7  C   UNL     1      17.236   8.856  33.558  0.00  0.00    +0.277 C 
ATOM      8  C   UNL     1      17.611   7.429  34.026  0.00  0.00    +0.110 C 
ATOM      9  C   UNL     1      17.592   6.422  32.857  0.00  0.00    +0.143 C 
ATOM     10  C   UNL     1      18.449   6.918  31.692  0.00  0.00    +0.133 C 
BRANCH  10  11
ATOM     11  N   UNL     1      18.354   5.994  30.551  0.00  0.00    -0.308 N 
ATOM     12  H   UNL     1      17.469   5.930  30.068  0.00  0.00    +0.149 HD
ATOM     13  C   UNL     1      19.360   5.232  30.113  0.00  0.00    +0.210 C 
ATOM     14  C   UNL     1      20.688   5.333  30.887  0.00  0.00    +0.109 C 
ATOM     15  O   UNL     1      19.256   4.478  29.146  0.00  0.00    -0.276 OA
ENDBRANCH  10  11
BRANCH   7  16
ATOM     16  C   UNL     1      15.728   8.914  33.237  0.00  0.00    +0.414 C 
ATOM     17  O   UNL     1      15.269   9.849  32.582  0.00  0.00    -0.240 OA
ATOM     18  O   UNL     1      14.972   8.027  33.633  0.00  0.00    -0.240 OA
ENDBRANCH   7  16
BRANCH   9  19
ATOM     19  O   UNL     1      18.088   5.158  33.301  0.00  0.00    -0.390 OA
ATOM     20  H   UNL     1      18.080   4.536  32.570  0.00  0.00    +0.210 HD
ENDBRANCH   9  19
BRANCH   7  21
ATOM     21  O   UNL     1      17.544   9.784  34.629  0.00  0.00    -0.343 OA
ATOM     22  C   UNL     1      17.857   9.167  35.903  0.00  0.00    +0.198 C 
ENDBRANCH   7  21
ENDBRANCH   4   5
BRANCH   4  23
ATOM     23  O   UNL     1      20.178   8.721  30.294  0.00  0.00    -0.387 OA
ATOM     24  H   UNL     1      20.372   8.685  31.234  0.00  0.00    +0.210 HD
ENDBRANCH   4  23
ENDBRANCH   1   4
BRANCH   1  25
ATOM     25  C   UNL     1      18.711  10.854  28.494  0.00  0.00    +0.141 C 
BRANCH  25  28
ATOM     26  C   UNL     1      19.844   9.636  26.667  0.00  0.00    +0.401 C 
ATOM     27  O   UNL     1      20.627  10.554  26.412  0.00  0.00    -0.226 OA
ATOM     28  N   UNL     1      18.912   9.693  27.619  0.00  0.00    -0.279 N 
ATOM     29  H   UNL     1      18.310   8.891  27.746  0.00  0.00    +0.152 HD
BRANCH  26  30
ATOM     30  O   UNL     1      19.919   8.428  25.904  0.00  0.00    -0.444 OA
BRANCH  30  31
ATOM     31  C   UNL     1      18.942   7.499  26.383  0.00  0.00    +0.292 C 
BRANCH  31  33
ATOM     32  N   UNL     1      18.362   6.612  24.145  0.00  0.00    -0.131 NA
ATOM     33  C   UNL     1      18.792   6.386  25.426  0.00  0.00    +0.120 A 
ATOM     34  C   UNL     1      19.042   5.041  25.587  0.00  0.00    +0.137 A 
ATOM     35  N   UNL     1      18.783   4.510  24.360  0.00  0.00    -0.251 N 
ATOM     36  N   UNL     1      18.368   5.455  23.497  0.00  0.00    -0.065 NA
BRANCH  35  37
ATOM     37  C   UNL     1      18.961   3.142  23.916  0.00  0.00    +0.150 C 
BRANCH  37  38
ATOM     38  C   UNL     1      17.771   2.269  24.287  0.00  0.00    +0.084 C 
BRANCH  38  39
ATOM     39  C   UNL     1      17.282   1.382  23.136  0.00  0.00    +0.252 C 
BRANCH  39  40
ATOM     40  O   UNL     1      17.702   0.031  23.343  0.00  0.00    -0.352 OA
BRANCH  40  41
ATOM     41  C   UNL     1      17.470  -0.456  24.663  0.00  0.00    +0.159 C 
ATOM     42  C   UNL     1      16.248  -1.352  24.647  0.00  0.00    +0.034 C 
ENDBRANCH  40  41
ENDBRANCH  39  40
BRANCH  39  43
ATOM     43  O   UNL     1      17.855   1.889  21.925  0.00  0.00    -0.352 OA
BRANCH  43  44
ATOM     44  C   UNL     1      16.878   2.471  21.060  0.00  0.00    +0.159 C 
ATOM     45  C   UNL     1      16.852   1.704  19.753  0.00  0.00    +0.034 C 
ENDBRANCH  43  44
ENDBRANCH  39  43
ENDBRANCH  38  39
ENDBRANCH  37  38
ENDBRANCH  35  37
ENDBRANCH  31  33
ENDBRANCH  30  31
ENDBRANCH  26  30
ENDBRANCH  25  28
ENDBRANCH   1  25
TORSDOF 20
