REMARK VINA RESULT:    -5.723      2.839      4.810
REMARK INTER + INTRA:         -13.646
REMARK INTER:                 -11.639
REMARK INTRA:                  -2.008
REMARK UNBOUND:                -3.239
REMARK  Name = lig_assembled_88.pdb
REMARK  18 active torsions:
REMARK  status: ('A' for Active; 'I' for Inactive)
REMARK    1  A    between atoms: _2  and  _9
REMARK    2  A    between atoms: _4  and  _20
REMARK    3  A    between atoms: _5  and  _15
REMARK    4  A    between atoms: _6  and  _7
REMARK    5  A    between atoms: _6  and  _20
REMARK    6  A    between atoms: _9  and  _10
REMARK    7  A    between atoms: _16  and  _36
REMARK    8  A    between atoms: _18  and  _24
REMARK    9  A    between atoms: _19  and  _23
REMARK   10  A    between atoms: _23  and  _24
REMARK   11  A    between atoms: _26  and  _27
REMARK   12  A    between atoms: _28  and  _29
REMARK   13  A    between atoms: _30  and  _32
REMARK   14  A    between atoms: _32  and  _33
REMARK   15  A    between atoms: _32  and  _34
REMARK   16  A    between atoms: _34  and  _35
REMARK   17  A    between atoms: _34  and  _36
REMARK   18  A    between atoms: _37  and  _39
REMARK                            x       y       z     vdW  Elec       q    Type
REMARK                         _______ _______ _______ _____ _____    ______ ____
ROOT
ATOM      1  C   UNL     1       7.438   4.369  33.839  0.00  0.00    +0.163 C 
ENDROOT
BRANCH   1   2
ATOM      2  O   UNL     1       7.821   4.783  32.517  0.00  0.00    -0.388 OA
ATOM      3  H   UNL     1       7.625   5.717  32.405  0.00  0.00    +0.210 HD
ENDBRANCH   1   2
BRANCH   1   4
ATOM      4  C   UNL     1       6.706   5.501  34.580  0.00  0.00    +0.175 C 
BRANCH   4   5
ATOM      5  C   UNL     1       5.882   4.978  35.765  0.00  0.00    +0.176 C 
ATOM      6  O   UNL     1       4.477   5.218  35.475  0.00  0.00    -0.332 OA
ATOM      7  C   UNL     1       3.527   4.685  36.455  0.00  0.00    +0.277 C 
ATOM      8  C   UNL     1       3.864   5.205  37.874  0.00  0.00    +0.110 C 
ATOM      9  C   UNL     1       5.355   5.001  38.216  0.00  0.00    +0.143 C 
ATOM     10  C   UNL     1       6.253   5.591  37.129  0.00  0.00    +0.133 C 
BRANCH  10  11
ATOM     11  N   UNL     1       7.668   5.313  37.423  0.00  0.00    -0.308 N 
ATOM     12  H   UNL     1       7.942   4.350  37.558  0.00  0.00    +0.149 HD
ATOM     13  C   UNL     1       8.614   6.251  37.522  0.00  0.00    +0.210 C 
ATOM     14  C   UNL     1       8.160   7.711  37.336  0.00  0.00    +0.109 C 
ATOM     15  O   UNL     1       9.795   5.988  37.755  0.00  0.00    -0.276 OA
ENDBRANCH  10  11
BRANCH   7  16
ATOM     16  C   UNL     1       3.547   3.142  36.454  0.00  0.00    +0.414 C 
ATOM     17  O   UNL     1       3.579   2.521  37.516  0.00  0.00    -0.240 OA
ATOM     18  O   UNL     1       3.532   2.518  35.392  0.00  0.00    -0.240 OA
ENDBRANCH   7  16
BRANCH   7  19
ATOM     19  O   UNL     1       2.202   5.156  36.098  0.00  0.00    -0.343 OA
ATOM     20  C   UNL     1       1.217   5.075  37.159  0.00  0.00    +0.198 C 
ENDBRANCH   7  19
BRANCH   9  21
ATOM     21  O   UNL     1       5.653   5.628  39.464  0.00  0.00    -0.390 OA
ATOM     22  H   UNL     1       4.852   5.698  39.988  0.00  0.00    +0.210 HD
ENDBRANCH   9  21
ENDBRANCH   4   5
BRANCH   4  23
ATOM     23  O   UNL     1       5.857   6.224  33.666  0.00  0.00    -0.387 OA
ATOM     24  H   UNL     1       5.481   5.614  33.027  0.00  0.00    +0.210 HD
ENDBRANCH   4  23
ENDBRANCH   1   4
BRANCH   1  25
ATOM     25  C   UNL     1       6.535   3.143  33.761  0.00  0.00    +0.141 C 
BRANCH  25  28
ATOM     26  C   UNL     1       4.870   2.574  32.026  0.00  0.00    +0.401 C 
ATOM     27  O   UNL     1       5.414   1.511  31.719  0.00  0.00    -0.226 OA
ATOM     28  N   UNL     1       5.329   3.402  32.965  0.00  0.00    -0.279 N 
ATOM     29  H   UNL     1       4.817   4.256  33.139  0.00  0.00    +0.152 HD
BRANCH  26  30
ATOM     30  O   UNL     1       3.675   2.965  31.344  0.00  0.00    -0.444 OA
BRANCH  30  31
ATOM     31  C   UNL     1       3.007   1.802  30.847  0.00  0.00    +0.292 C 
BRANCH  31  33
ATOM     32  N   UNL     1       0.787   1.460  29.804  0.00  0.00    -0.131 NA
ATOM     33  C   UNL     1       1.948   2.183  29.893  0.00  0.00    +0.120 A 
ATOM     34  C   UNL     1       1.909   3.213  28.980  0.00  0.00    +0.137 A 
ATOM     35  N   UNL     1       0.734   3.015  28.316  0.00  0.00    -0.247 N 
ATOM     36  N   UNL     1       0.039   1.993  28.847  0.00  0.00    -0.065 NA
BRANCH  35  37
ATOM     37  C   UNL     1       0.244   3.707  27.133  0.00  0.00    +0.184 C 
BRANCH  37  38
ATOM     38  C   UNL     1       0.937   3.273  25.857  0.00  0.00    +0.017 A 
ATOM     39  C   UNL     1       1.514   1.997  25.708  0.00  0.00    +0.024 A 
ATOM     40  C   UNL     1       2.146   1.631  24.516  0.00  0.00    +0.019 A 
ATOM     41 BR   UNL     1       2.954  -0.073  24.371  0.00  0.00    -0.050 Br
ATOM     42  C   UNL     1       2.192   2.506  23.436  0.00  0.00    +0.034 A 
ATOM     43  C   UNL     1       1.584   3.754  23.552  0.00  0.00    +0.061 A 
ATOM     44 BR   UNL     1       1.616   4.929  22.065  0.00  0.00    -0.046 Br
ATOM     45  C   UNL     1       0.959   4.131  24.749  0.00  0.00    +0.136 A 
BRANCH  45  46
ATOM     46  O   UNL     1       0.345   5.350  24.868  0.00  0.00    -0.505 OA
ATOM     47  H   UNL     1       0.376   5.604  25.810  0.00  0.00    +0.292 HD
ENDBRANCH  45  46
ENDBRANCH  37  38
ENDBRANCH  35  37
ENDBRANCH  31  33
ENDBRANCH  30  31
ENDBRANCH  26  30
ENDBRANCH  25  28
ENDBRANCH   1  25
TORSDOF 16
