REMARK VINA RESULT:    -6.266     14.918     17.030
REMARK INTER + INTRA:         -13.748
REMARK INTER:                 -11.488
REMARK INTRA:                  -2.260
REMARK UNBOUND:                -2.536
REMARK  Name = lig_assembled_44.pdb
REMARK  17 active torsions:
REMARK  status: ('A' for Active; 'I' for Inactive)
REMARK    1  A    between atoms: _2  and  _9
REMARK    2  A    between atoms: _4  and  _19
REMARK    3  A    between atoms: _6  and  _7
REMARK    4  A    between atoms: _6  and  _19
REMARK    5  A    between atoms: _9  and  _10
REMARK    6  A    between atoms: _15  and  _35
REMARK    7  A    between atoms: _17  and  _23
REMARK    8  A    between atoms: _18  and  _22
REMARK    9  A    between atoms: _22  and  _23
REMARK   10  A    between atoms: _25  and  _26
REMARK   11  A    between atoms: _27  and  _28
REMARK   12  A    between atoms: _29  and  _31
REMARK   13  A    between atoms: _31  and  _32
REMARK   14  A    between atoms: _31  and  _33
REMARK   15  A    between atoms: _33  and  _34
REMARK   16  A    between atoms: _33  and  _35
REMARK   17  A    between atoms: _36  and  _38
REMARK                            x       y       z     vdW  Elec       q    Type
REMARK                         _______ _______ _______ _____ _____    ______ ____
ROOT
ATOM      1  C   UNL     1      17.736   3.986  22.590  0.00  0.00    +0.163 C 
ENDROOT
BRANCH   1   2
ATOM      2  O   UNL     1      17.121   5.208  23.029  0.00  0.00    -0.388 OA
ATOM      3  H   UNL     1      16.425   5.008  23.659  0.00  0.00    +0.210 HD
ENDBRANCH   1   2
BRANCH   1   4
ATOM      4  C   UNL     1      16.731   3.148  21.806  0.00  0.00    +0.141 C 
BRANCH   4   7
ATOM      5  C   UNL     1      17.931   1.352  20.606  0.00  0.00    +0.401 C 
ATOM      6  O   UNL     1      18.303   2.086  19.687  0.00  0.00    -0.226 OA
ATOM      7  N   UNL     1      17.188   1.764  21.634  0.00  0.00    -0.279 N 
ATOM      8  H   UNL     1      16.925   1.084  22.335  0.00  0.00    +0.152 HD
BRANCH   5   9
ATOM      9  O   UNL     1      18.304  -0.028  20.587  0.00  0.00    -0.444 OA
BRANCH   9  10
ATOM     10  C   UNL     1      19.106  -0.322  21.734  0.00  0.00    +0.292 C 
BRANCH  10  12
ATOM     11  N   UNL     1      19.071  -2.700  22.434  0.00  0.00    -0.131 NA
ATOM     12  C   UNL     1      18.525  -1.445  22.495  0.00  0.00    +0.120 A 
ATOM     13  C   UNL     1      17.446  -1.464  23.347  0.00  0.00    +0.137 A 
ATOM     14  N   UNL     1      17.434  -2.739  23.833  0.00  0.00    -0.247 N 
ATOM     15  N   UNL     1      18.386  -3.490  23.251  0.00  0.00    -0.065 NA
BRANCH  14  16
ATOM     16  C   UNL     1      16.559  -3.308  24.838  0.00  0.00    +0.180 C 
BRANCH  16  17
ATOM     17  C   UNL     1      15.762  -4.466  24.287  0.00  0.00    -0.026 A 
ATOM     18  C   UNL     1      15.332  -4.468  22.951  0.00  0.00    +0.006 A 
ATOM     19  C   UNL     1      14.581  -5.532  22.448  0.00  0.00    +0.015 A 
ATOM     20  C   UNL     1      14.255  -6.602  23.279  0.00  0.00    +0.018 A 
ATOM     21 BR   UNL     1      13.254  -8.050  22.592  0.00  0.00    -0.050 Br
ATOM     22  C   UNL     1      14.662  -6.612  24.611  0.00  0.00    +0.015 A 
ATOM     23  C   UNL     1      15.410  -5.544  25.116  0.00  0.00    +0.006 A 
ENDBRANCH  16  17
ENDBRANCH  14  16
ENDBRANCH  10  12
ENDBRANCH   9  10
ENDBRANCH   5   9
ENDBRANCH   4   7
ENDBRANCH   1   4
BRANCH   1  24
ATOM     24  C   UNL     1      18.261   3.173  23.786  0.00  0.00    +0.175 C 
BRANCH  24  25
ATOM     25  C   UNL     1      18.335   4.015  25.069  0.00  0.00    +0.176 C 
ATOM     26  O   UNL     1      19.607   4.718  25.069  0.00  0.00    -0.332 OA
ATOM     27  C   UNL     1      19.811   5.659  26.174  0.00  0.00    +0.277 C 
ATOM     28  C   UNL     1      19.605   4.949  27.535  0.00  0.00    +0.110 C 
ATOM     29  C   UNL     1      18.279   4.161  27.571  0.00  0.00    +0.143 C 
ATOM     30  C   UNL     1      18.170   3.215  26.374  0.00  0.00    +0.133 C 
BRANCH  30  31
ATOM     31  N   UNL     1      16.866   2.534  26.373  0.00  0.00    -0.308 N 
ATOM     32  H   UNL     1      16.036   3.106  26.295  0.00  0.00    +0.149 HD
ATOM     33  C   UNL     1      16.707   1.211  26.467  0.00  0.00    +0.210 C 
ATOM     34  C   UNL     1      17.989   0.371  26.610  0.00  0.00    +0.109 C 
ATOM     35  O   UNL     1      15.602   0.668  26.448  0.00  0.00    -0.276 OA
ENDBRANCH  30  31
BRANCH  27  36
ATOM     36  C   UNL     1      18.839   6.852  26.063  0.00  0.00    +0.414 C 
ATOM     37  O   UNL     1      18.716   7.641  26.999  0.00  0.00    -0.240 OA
ATOM     38  O   UNL     1      18.179   7.026  25.038  0.00  0.00    -0.240 OA
ENDBRANCH  27  36
BRANCH  27  39
ATOM     39  O   UNL     1      21.180   6.137  26.110  0.00  0.00    -0.343 OA
ATOM     40  C   UNL     1      22.077   5.320  25.316  0.00  0.00    +0.198 C 
ENDBRANCH  27  39
BRANCH  29  41
ATOM     41  O   UNL     1      18.201   3.403  28.779  0.00  0.00    -0.390 OA
ATOM     42  H   UNL     1      18.319   3.987  29.532  0.00  0.00    +0.210 HD
ENDBRANCH  29  41
ENDBRANCH  24  25
BRANCH  24  43
ATOM     43  O   UNL     1      19.556   2.618  23.480  0.00  0.00    -0.387 OA
ATOM     44  H   UNL     1      20.139   2.731  24.235  0.00  0.00    +0.210 HD
ENDBRANCH  24  43
ENDBRANCH   1  24
TORSDOF 15
