REMARK VINA RESULT:    -5.626     12.130     15.593
REMARK INTER + INTRA:         -13.036
REMARK INTER:                 -11.240
REMARK INTRA:                  -1.796
REMARK UNBOUND:                -2.805
REMARK  Name = lig_assembled_72.pdb
REMARK  20 active torsions:
REMARK  status: ('A' for Active; 'I' for Inactive)
REMARK    1  A    between atoms: _2  and  _9
REMARK    2  A    between atoms: _4  and  _17
REMARK    3  A    between atoms: _5  and  _9
REMARK    4  A    between atoms: _5  and  _12
REMARK    5  A    between atoms: _6  and  _7
REMARK    6  A    between atoms: _6  and  _17
REMARK    7  A    between atoms: _9  and  _10
REMARK    8  A    between atoms: _9  and  _11
REMARK    9  A    between atoms: _13  and  _33
REMARK   10  A    between atoms: _15  and  _21
REMARK   11  A    between atoms: _16  and  _20
REMARK   12  A    between atoms: _20  and  _21
REMARK   13  A    between atoms: _23  and  _24
REMARK   14  A    between atoms: _25  and  _26
REMARK   15  A    between atoms: _27  and  _29
REMARK   16  A    between atoms: _29  and  _30
REMARK   17  A    between atoms: _29  and  _31
REMARK   18  A    between atoms: _31  and  _32
REMARK   19  A    between atoms: _31  and  _33
REMARK   20  A    between atoms: _34  and  _36
REMARK                            x       y       z     vdW  Elec       q    Type
REMARK                         _______ _______ _______ _____ _____    ______ ____
ROOT
ATOM      1  C   UNL     1       7.266   2.300  34.255  0.00  0.00    +0.163 C 
ENDROOT
BRANCH   1   2
ATOM      2  O   UNL     1       7.218   2.412  35.687  0.00  0.00    -0.388 OA
ATOM      3  H   UNL     1       7.923   2.990  35.987  0.00  0.00    +0.210 HD
ENDBRANCH   1   2
BRANCH   1   4
ATOM      4  C   UNL     1       7.695   3.631  33.613  0.00  0.00    +0.175 C 
BRANCH   4   5
ATOM      5  C   UNL     1       7.082   4.842  34.331  0.00  0.00    +0.176 C 
ATOM      6  O   UNL     1       7.821   5.051  35.566  0.00  0.00    -0.332 OA
ATOM      7  C   UNL     1       7.442   6.238  36.339  0.00  0.00    +0.277 C 
ATOM      8  C   UNL     1       5.922   6.229  36.633  0.00  0.00    +0.110 C 
ATOM      9  C   UNL     1       5.096   5.978  35.355  0.00  0.00    +0.143 C 
ATOM     10  C   UNL     1       5.576   4.721  34.628  0.00  0.00    +0.133 C 
BRANCH  10  11
ATOM     11  N   UNL     1       4.840   4.542  33.367  0.00  0.00    -0.308 N 
ATOM     12  H   UNL     1       5.030   5.187  32.613  0.00  0.00    +0.149 HD
ATOM     13  C   UNL     1       3.935   3.582  33.154  0.00  0.00    +0.210 C 
ATOM     14  C   UNL     1       3.648   2.631  34.331  0.00  0.00    +0.109 C 
ATOM     15  O   UNL     1       3.344   3.446  32.082  0.00  0.00    -0.276 OA
ENDBRANCH  10  11
BRANCH   7  16
ATOM     16  C   UNL     1       7.812   7.528  35.577  0.00  0.00    +0.414 C 
ATOM     17  O   UNL     1       6.953   8.143  34.947  0.00  0.00    -0.240 OA
ATOM     18  O   UNL     1       8.968   7.952  35.593  0.00  0.00    -0.240 OA
ENDBRANCH   7  16
BRANCH   9  19
ATOM     19  O   UNL     1       3.717   5.827  35.694  0.00  0.00    -0.390 OA
ATOM     20  H   UNL     1       3.172   6.106  34.955  0.00  0.00    +0.210 HD
ENDBRANCH   9  19
BRANCH   7  21
ATOM     21  O   UNL     1       8.153   6.196  37.603  0.00  0.00    -0.343 OA
ATOM     22  C   UNL     1       7.822   7.263  38.527  0.00  0.00    +0.198 C 
ENDBRANCH   7  21
ENDBRANCH   4   5
BRANCH   4  23
ATOM     23  O   UNL     1       7.337   3.647  32.217  0.00  0.00    -0.387 OA
ATOM     24  H   UNL     1       8.019   3.206  31.706  0.00  0.00    +0.210 HD
ENDBRANCH   4  23
ENDBRANCH   1   4
BRANCH   1  25
ATOM     25  C   UNL     1       8.243   1.201  33.850  0.00  0.00    +0.141 C 
BRANCH  25  28
ATOM     26  C   UNL     1      10.422   1.670  34.917  0.00  0.00    +0.401 C 
ATOM     27  O   UNL     1      10.068   1.273  36.030  0.00  0.00    -0.226 OA
ATOM     28  N   UNL     1       9.632   1.678  33.843  0.00  0.00    -0.279 N 
ATOM     29  H   UNL     1      10.009   2.032  32.976  0.00  0.00    +0.152 HD
BRANCH  26  30
ATOM     30  O   UNL     1      11.754   2.160  34.746  0.00  0.00    -0.444 OA
BRANCH  30  31
ATOM     31  C   UNL     1      12.140   2.909  35.901  0.00  0.00    +0.292 C 
BRANCH  31  33
ATOM     32  N   UNL     1      13.752   3.890  34.302  0.00  0.00    -0.131 NA
ATOM     33  C   UNL     1      13.255   3.817  35.574  0.00  0.00    +0.120 A 
ATOM     34  C   UNL     1      13.957   4.686  36.381  0.00  0.00    +0.137 A 
ATOM     35  N   UNL     1      14.870   5.263  35.542  0.00  0.00    -0.244 N 
ATOM     36  N   UNL     1      14.737   4.775  34.293  0.00  0.00    -0.065 NA
BRANCH  35  37
ATOM     37  C   UNL     1      15.883   6.279  35.861  0.00  0.00    +0.083 C 
ATOM     38  C   UNL     1      17.253   5.593  36.028  0.00  0.00    +0.038 C 
ATOM     39  C   UNL     1      15.504   6.995  37.173  0.00  0.00    +0.038 C 
BRANCH  37  40
ATOM     40  C   UNL     1      16.016   7.332  34.726  0.00  0.00    +0.185 C 
BRANCH  40  41
ATOM     41  O   UNL     1      14.771   7.614  34.089  0.00  0.00    -0.393 OA
ATOM     42  H   UNL     1      14.182   6.859  34.302  0.00  0.00    +0.209 HD
ENDBRANCH  40  41
ENDBRANCH  37  40
ENDBRANCH  35  37
ENDBRANCH  31  33
ENDBRANCH  30  31
ENDBRANCH  26  30
ENDBRANCH  25  28
ENDBRANCH   1  25
TORSDOF 16
