REMARK VINA RESULT:    -6.153      2.223      4.071
REMARK INTER + INTRA:         -13.271
REMARK INTER:                 -10.669
REMARK INTRA:                  -2.602
REMARK UNBOUND:                -2.083
REMARK  Name = lig_assembled_35.pdb
REMARK  19 active torsions:
REMARK  status: ('A' for Active; 'I' for Inactive)
REMARK    1  A    between atoms: _2  and  _9
REMARK    2  A    between atoms: _4  and  _17
REMARK    3  A    between atoms: _5  and  _9
REMARK    4  A    between atoms: _5  and  _11
REMARK    5  A    between atoms: _6  and  _7
REMARK    6  A    between atoms: _6  and  _17
REMARK    7  A    between atoms: _9  and  _10
REMARK    8  A    between atoms: _13  and  _33
REMARK    9  A    between atoms: _15  and  _21
REMARK   10  A    between atoms: _16  and  _20
REMARK   11  A    between atoms: _20  and  _21
REMARK   12  A    between atoms: _23  and  _24
REMARK   13  A    between atoms: _25  and  _26
REMARK   14  A    between atoms: _27  and  _29
REMARK   15  A    between atoms: _29  and  _30
REMARK   16  A    between atoms: _29  and  _31
REMARK   17  A    between atoms: _31  and  _32
REMARK   18  A    between atoms: _31  and  _33
REMARK   19  A    between atoms: _34  and  _36
REMARK                            x       y       z     vdW  Elec       q    Type
REMARK                         _______ _______ _______ _____ _____    ______ ____
ROOT
ATOM      1  C   UNL     1      17.734   3.959  22.602  0.00  0.00    +0.163 C 
ENDROOT
BRANCH   1   2
ATOM      2  O   UNL     1      17.098   5.173  23.034  0.00  0.00    -0.388 OA
ATOM      3  H   UNL     1      17.716   5.904  22.957  0.00  0.00    +0.210 HD
ENDBRANCH   1   2
BRANCH   1   4
ATOM      4  C   UNL     1      18.267   3.159  23.803  0.00  0.00    +0.175 C 
BRANCH   4   5
ATOM      5  C   UNL     1      18.335   4.010  25.079  0.00  0.00    +0.176 C 
ATOM      6  O   UNL     1      19.611   4.708  25.084  0.00  0.00    -0.332 OA
ATOM      7  C   UNL     1      19.810   5.657  26.183  0.00  0.00    +0.277 C 
ATOM      8  C   UNL     1      19.592   4.958  27.547  0.00  0.00    +0.110 C 
ATOM      9  C   UNL     1      18.262   4.175  27.580  0.00  0.00    +0.143 C 
ATOM     10  C   UNL     1      18.159   3.220  26.390  0.00  0.00    +0.133 C 
BRANCH  10  11
ATOM     11  N   UNL     1      16.852   2.545  26.384  0.00  0.00    -0.308 N 
ATOM     12  H   UNL     1      16.025   3.117  26.288  0.00  0.00    +0.149 HD
ATOM     13  C   UNL     1      16.686   1.224  26.497  0.00  0.00    +0.210 C 
ATOM     14  C   UNL     1      17.964   0.381  26.668  0.00  0.00    +0.109 C 
ATOM     15  O   UNL     1      15.580   0.684  26.474  0.00  0.00    -0.276 OA
ENDBRANCH  10  11
BRANCH   7  16
ATOM     16  C   UNL     1      18.843   6.853  26.056  0.00  0.00    +0.414 C 
ATOM     17  O   UNL     1      18.143   6.980  25.052  0.00  0.00    -0.240 OA
ATOM     18  O   UNL     1      18.763   7.689  26.957  0.00  0.00    -0.240 OA
ENDBRANCH   7  16
BRANCH   7  19
ATOM     19  O   UNL     1      21.181   6.129  26.126  0.00  0.00    -0.343 OA
ATOM     20  C   UNL     1      21.635   6.533  24.809  0.00  0.00    +0.198 C 
ENDBRANCH   7  19
BRANCH   9  21
ATOM     21  O   UNL     1      18.174   3.426  28.793  0.00  0.00    -0.390 OA
ATOM     22  H   UNL     1      17.274   3.113  28.911  0.00  0.00    +0.210 HD
ENDBRANCH   9  21
ENDBRANCH   4   5
BRANCH   4  23
ATOM     23  O   UNL     1      19.567   2.614  23.499  0.00  0.00    -0.387 OA
ATOM     24  H   UNL     1      20.051   3.230  22.944  0.00  0.00    +0.210 HD
ENDBRANCH   4  23
ENDBRANCH   1   4
BRANCH   1  25
ATOM     25  C   UNL     1      16.746   3.103  21.817  0.00  0.00    +0.141 C 
BRANCH  25  28
ATOM     26  C   UNL     1      17.971   1.289  20.671  0.00  0.00    +0.401 C 
ATOM     27  O   UNL     1      18.354   2.006  19.743  0.00  0.00    -0.226 OA
ATOM     28  N   UNL     1      17.211   1.717  21.679  0.00  0.00    -0.279 N 
ATOM     29  H   UNL     1      16.940   1.051  22.389  0.00  0.00    +0.152 HD
BRANCH  26  30
ATOM     30  O   UNL     1      18.350  -0.090  20.684  0.00  0.00    -0.444 OA
BRANCH  30  31
ATOM     31  C   UNL     1      19.039  -0.384  21.902  0.00  0.00    +0.292 C 
BRANCH  31  33
ATOM     32  N   UNL     1      18.829  -2.774  22.510  0.00  0.00    -0.131 NA
ATOM     33  C   UNL     1      18.369  -1.489  22.616  0.00  0.00    +0.120 A 
ATOM     34  C   UNL     1      17.266  -1.472  23.440  0.00  0.00    +0.138 A 
ATOM     35  N   UNL     1      17.116  -2.775  23.816  0.00  0.00    -0.238 N 
ATOM     36  N   UNL     1      18.044  -3.556  23.237  0.00  0.00    -0.065 NA
BRANCH  35  37
ATOM     37  C   UNL     1      16.121  -3.381  24.681  0.00  0.00    +0.214 C 
ATOM     38  C   UNL     1      15.252  -4.367  23.907  0.00  0.00    +0.045 C 
BRANCH  37  39
ATOM     39  C   UNL     1      16.759  -4.016  25.899  0.00  0.00    +0.329 C 
ATOM     40  O   UNL     1      16.331  -5.014  26.463  0.00  0.00    -0.249 OA
BRANCH  39  41
ATOM     41  O   UNL     1      17.859  -3.368  26.357  0.00  0.00    -0.479 OA
ATOM     42  H   UNL     1      17.696  -2.671  27.025  0.00  0.00    +0.295 HD
ENDBRANCH  39  41
ENDBRANCH  37  39
ENDBRANCH  35  37
ENDBRANCH  31  33
ENDBRANCH  30  31
ENDBRANCH  26  30
ENDBRANCH  25  28
ENDBRANCH   1  25
TORSDOF 16
