REMARK VINA RESULT:    -6.046      6.987      9.278
REMARK INTER + INTRA:         -14.165
REMARK INTER:                 -12.360
REMARK INTRA:                  -1.805
REMARK UNBOUND:                -2.640
REMARK  Name = lig_assembled_29.pdb
REMARK  21 active torsions:
REMARK  status: ('A' for Active; 'I' for Inactive)
REMARK    1  A    between atoms: _2  and  _9
REMARK    2  A    between atoms: _4  and  _23
REMARK    3  A    between atoms: _6  and  _7
REMARK    4  A    between atoms: _6  and  _23
REMARK    5  A    between atoms: _9  and  _10
REMARK    6  A    between atoms: _12  and  _18
REMARK    7  A    between atoms: _13  and  _18
REMARK    8  A    between atoms: _14  and  _17
REMARK    9  A    between atoms: _15  and  _17
REMARK   10  A    between atoms: _19  and  _39
REMARK   11  A    between atoms: _21  and  _27
REMARK   12  A    between atoms: _22  and  _26
REMARK   13  A    between atoms: _26  and  _27
REMARK   14  A    between atoms: _29  and  _30
REMARK   15  A    between atoms: _31  and  _32
REMARK   16  A    between atoms: _33  and  _35
REMARK   17  A    between atoms: _35  and  _36
REMARK   18  A    between atoms: _35  and  _37
REMARK   19  A    between atoms: _37  and  _38
REMARK   20  A    between atoms: _37  and  _39
REMARK   21  A    between atoms: _40  and  _42
REMARK                            x       y       z     vdW  Elec       q    Type
REMARK                         _______ _______ _______ _____ _____    ______ ____
ROOT
ATOM      1  C   UNL     1       7.469   2.460  34.505  0.00  0.00    +0.163 C 
ENDROOT
BRANCH   1   2
ATOM      2  O   UNL     1       7.749   2.468  35.914  0.00  0.00    -0.388 OA
ATOM      3  H   UNL     1       7.839   1.565  36.228  0.00  0.00    +0.210 HD
ENDBRANCH   1   2
BRANCH   1   4
ATOM      4  C   UNL     1       7.845   3.807  33.862  0.00  0.00    +0.175 C 
BRANCH   4   5
ATOM      5  C   UNL     1       7.198   4.994  34.590  0.00  0.00    +0.176 C 
ATOM      6  O   UNL     1       7.884   5.168  35.860  0.00  0.00    -0.332 OA
ATOM      7  C   UNL     1       7.468   6.330  36.651  0.00  0.00    +0.277 C 
ATOM      8  C   UNL     1       5.937   6.308  36.882  0.00  0.00    +0.110 C 
ATOM      9  C   UNL     1       5.166   6.094  35.563  0.00  0.00    +0.143 C 
ATOM     10  C   UNL     1       5.681   4.861  34.820  0.00  0.00    +0.133 C 
BRANCH  10  11
ATOM     11  N   UNL     1       4.998   4.717  33.525  0.00  0.00    -0.308 N 
ATOM     12  H   UNL     1       5.203   5.396  32.806  0.00  0.00    +0.149 HD
ATOM     13  C   UNL     1       4.125   3.747  33.237  0.00  0.00    +0.210 C 
ATOM     14  C   UNL     1       3.815   2.743  34.363  0.00  0.00    +0.109 C 
ATOM     15  O   UNL     1       3.580   3.643  32.138  0.00  0.00    -0.276 OA
ENDBRANCH  10  11
BRANCH   7  16
ATOM     16  C   UNL     1       7.864   7.643  35.945  0.00  0.00    +0.414 C 
ATOM     17  O   UNL     1       8.180   8.632  36.605  0.00  0.00    -0.240 OA
ATOM     18  O   UNL     1       7.868   7.714  34.715  0.00  0.00    -0.240 OA
ENDBRANCH   7  16
BRANCH   7  19
ATOM     19  O   UNL     1       8.126   6.253  37.942  0.00  0.00    -0.343 OA
ATOM     20  C   UNL     1       9.416   5.590  37.933  0.00  0.00    +0.198 C 
ENDBRANCH   7  19
BRANCH   9  21
ATOM     21  O   UNL     1       3.774   5.929  35.840  0.00  0.00    -0.390 OA
ATOM     22  H   UNL     1       3.259   6.416  35.194  0.00  0.00    +0.210 HD
ENDBRANCH   9  21
ENDBRANCH   4   5
BRANCH   4  23
ATOM     23  O   UNL     1       7.471   3.814  32.470  0.00  0.00    -0.387 OA
ATOM     24  H   UNL     1       8.261   3.777  31.926  0.00  0.00    +0.210 HD
ENDBRANCH   4  23
ENDBRANCH   1   4
BRANCH   1  25
ATOM     25  C   UNL     1       8.246   1.337  33.825  0.00  0.00    +0.141 C 
BRANCH  25  28
ATOM     26  C   UNL     1       7.439  -0.491  32.372  0.00  0.00    +0.401 C 
ATOM     27  O   UNL     1       7.950  -1.384  33.053  0.00  0.00    -0.226 OA
ATOM     28  N   UNL     1       7.533   0.808  32.656  0.00  0.00    -0.279 N 
ATOM     29  H   UNL     1       7.088   1.466  32.031  0.00  0.00    +0.152 HD
BRANCH  26  30
ATOM     30  O   UNL     1       6.701  -0.847  31.200  0.00  0.00    -0.444 OA
BRANCH  30  31
ATOM     31  C   UNL     1       5.300  -0.767  31.475  0.00  0.00    +0.292 C 
BRANCH  31  33
ATOM     32  N   UNL     1       4.982  -1.235  29.061  0.00  0.00    -0.131 NA
ATOM     33  C   UNL     1       4.533  -0.659  30.220  0.00  0.00    +0.120 A 
ATOM     34  C   UNL     1       3.323  -0.050  29.980  0.00  0.00    +0.137 A 
ATOM     35  N   UNL     1       3.047  -0.372  28.682  0.00  0.00    -0.247 N 
ATOM     36  N   UNL     1       4.066  -1.043  28.120  0.00  0.00    -0.065 NA
BRANCH  35  37
ATOM     37  C   UNL     1       1.827  -0.119  27.938  0.00  0.00    +0.180 C 
BRANCH  37  38
ATOM     38  C   UNL     1       1.978   1.099  27.056  0.00  0.00    -0.022 A 
ATOM     39  C   UNL     1       2.247   0.948  25.684  0.00  0.00    +0.054 A 
ATOM     40  C   UNL     1       2.312   2.066  24.839  0.00  0.00    +0.162 A 
ATOM     41  C   UNL     1       2.113   3.354  25.374  0.00  0.00    +0.162 A 
ATOM     42  C   UNL     1       1.846   3.501  26.738  0.00  0.00    +0.050 A 
ATOM     43  C   UNL     1       1.781   2.382  27.572  0.00  0.00    +0.009 A 
BRANCH  40  44
ATOM     44  O   UNL     1       2.549   2.002  23.488  0.00  0.00    -0.491 OA
ATOM     45  C   UNL     1       1.698   1.177  22.704  0.00  0.00    +0.277 C 
ENDBRANCH  40  44
BRANCH  41  46
ATOM     46  O   UNL     1       2.198   4.398  24.485  0.00  0.00    -0.491 OA
ATOM     47  C   UNL     1       1.005   5.108  24.183  0.00  0.00    +0.277 C 
ENDBRANCH  41  46
ENDBRANCH  37  38
ENDBRANCH  35  37
ENDBRANCH  31  33
ENDBRANCH  30  31
ENDBRANCH  26  30
ENDBRANCH  25  28
ENDBRANCH   1  25
TORSDOF 17
