REMARK VINA RESULT:    -6.170      5.471     10.100
REMARK INTER + INTRA:         -13.303
REMARK INTER:                 -10.829
REMARK INTRA:                  -2.475
REMARK UNBOUND:                -2.083
REMARK  Name = lig_assembled_35.pdb
REMARK  19 active torsions:
REMARK  status: ('A' for Active; 'I' for Inactive)
REMARK    1  A    between atoms: _2  and  _9
REMARK    2  A    between atoms: _4  and  _17
REMARK    3  A    between atoms: _5  and  _9
REMARK    4  A    between atoms: _5  and  _11
REMARK    5  A    between atoms: _6  and  _7
REMARK    6  A    between atoms: _6  and  _17
REMARK    7  A    between atoms: _9  and  _10
REMARK    8  A    between atoms: _13  and  _33
REMARK    9  A    between atoms: _15  and  _21
REMARK   10  A    between atoms: _16  and  _20
REMARK   11  A    between atoms: _20  and  _21
REMARK   12  A    between atoms: _23  and  _24
REMARK   13  A    between atoms: _25  and  _26
REMARK   14  A    between atoms: _27  and  _29
REMARK   15  A    between atoms: _29  and  _30
REMARK   16  A    between atoms: _29  and  _31
REMARK   17  A    between atoms: _31  and  _32
REMARK   18  A    between atoms: _31  and  _33
REMARK   19  A    between atoms: _34  and  _36
REMARK                            x       y       z     vdW  Elec       q    Type
REMARK                         _______ _______ _______ _____ _____    ______ ____
ROOT
ATOM      1  C   UNL     1      18.650   5.392  24.564  0.00  0.00    +0.163 C 
ENDROOT
BRANCH   1   2
ATOM      2  O   UNL     1      17.807   5.618  23.422  0.00  0.00    -0.388 OA
ATOM      3  H   UNL     1      16.917   5.826  23.716  0.00  0.00    +0.210 HD
ENDBRANCH   1   2
BRANCH   1   4
ATOM      4  C   UNL     1      19.829   4.472  24.204  0.00  0.00    +0.175 C 
BRANCH   4   5
ATOM      5  C   UNL     1      19.389   3.012  24.026  0.00  0.00    +0.176 C 
ATOM      6  O   UNL     1      18.598   2.928  22.809  0.00  0.00    -0.332 OA
ATOM      7  C   UNL     1      18.176   1.579  22.419  0.00  0.00    +0.277 C 
ATOM      8  C   UNL     1      17.422   0.890  23.582  0.00  0.00    +0.110 C 
ATOM      9  C   UNL     1      18.210   0.981  24.905  0.00  0.00    +0.143 C 
ATOM     10  C   UNL     1      18.600   2.427  25.213  0.00  0.00    +0.133 C 
BRANCH  10  11
ATOM     11  N   UNL     1      19.425   2.491  26.430  0.00  0.00    -0.308 N 
ATOM     12  H   UNL     1      20.369   2.135  26.379  0.00  0.00    +0.149 HD
ATOM     13  C   UNL     1      19.007   2.988  27.597  0.00  0.00    +0.210 C 
ATOM     14  C   UNL     1      17.555   3.498  27.649  0.00  0.00    +0.109 C 
ATOM     15  O   UNL     1      19.725   3.041  28.596  0.00  0.00    -0.276 OA
ENDBRANCH  10  11
BRANCH   7  16
ATOM     16  C   UNL     1      19.393   0.722  22.014  0.00  0.00    +0.414 C 
ATOM     17  O   UNL     1      19.435  -0.473  22.306  0.00  0.00    -0.240 OA
ATOM     18  O   UNL     1      20.332   1.224  21.395  0.00  0.00    -0.240 OA
ENDBRANCH   7  16
BRANCH   7  19
ATOM     19  O   UNL     1      17.269   1.701  21.293  0.00  0.00    -0.343 OA
ATOM     20  C   UNL     1      16.428   2.882  21.309  0.00  0.00    +0.198 C 
ENDBRANCH   7  19
BRANCH   9  21
ATOM     21  O   UNL     1      17.415   0.470  25.976  0.00  0.00    -0.390 OA
ATOM     22  H   UNL     1      17.010  -0.358  25.708  0.00  0.00    +0.210 HD
ENDBRANCH   9  21
ENDBRANCH   4   5
BRANCH   4  23
ATOM     23  O   UNL     1      20.855   4.563  25.213  0.00  0.00    -0.387 OA
ATOM     24  H   UNL     1      20.738   3.857  25.853  0.00  0.00    +0.210 HD
ENDBRANCH   4  23
ENDBRANCH   1   4
BRANCH   1  25
ATOM     25  C   UNL     1      19.182   6.721  25.089  0.00  0.00    +0.141 C 
BRANCH  25  28
ATOM     26  C   UNL     1      19.425   6.741  27.548  0.00  0.00    +0.401 C 
ATOM     27  O   UNL     1      20.548   6.232  27.536  0.00  0.00    -0.226 OA
ATOM     28  N   UNL     1      18.711   7.000  26.452  0.00  0.00    -0.279 N 
ATOM     29  H   UNL     1      17.795   7.410  26.564  0.00  0.00    +0.152 HD
BRANCH  26  30
ATOM     30  O   UNL     1      18.829   7.079  28.803  0.00  0.00    -0.444 OA
BRANCH  30  31
ATOM     31  C   UNL     1      19.393   8.301  29.286  0.00  0.00    +0.292 C 
BRANCH  31  33
ATOM     32  N   UNL     1      17.850  10.067  30.075  0.00  0.00    -0.131 NA
ATOM     33  C   UNL     1      18.519   8.897  30.315  0.00  0.00    +0.120 A 
ATOM     34  C   UNL     1      18.225   8.464  31.589  0.00  0.00    +0.138 A 
ATOM     35  N   UNL     1      17.359   9.405  32.065  0.00  0.00    -0.238 N 
ATOM     36  N   UNL     1      17.155  10.377  31.160  0.00  0.00    -0.065 NA
BRANCH  35  37
ATOM     37  C   UNL     1      16.705   9.491  33.356  0.00  0.00    +0.214 C 
ATOM     38  C   UNL     1      17.227  10.681  34.155  0.00  0.00    +0.045 C 
BRANCH  37  39
ATOM     39  C   UNL     1      15.197   9.518  33.212  0.00  0.00    +0.329 C 
ATOM     40  O   UNL     1      14.500   8.525  33.047  0.00  0.00    -0.249 OA
BRANCH  39  41
ATOM     41  O   UNL     1      14.652  10.759  33.253  0.00  0.00    -0.479 OA
ATOM     42  H   UNL     1      13.674  10.794  33.271  0.00  0.00    +0.295 HD
ENDBRANCH  39  41
ENDBRANCH  37  39
ENDBRANCH  35  37
ENDBRANCH  31  33
ENDBRANCH  30  31
ENDBRANCH  26  30
ENDBRANCH  25  28
ENDBRANCH   1  25
TORSDOF 16
