REMARK VINA RESULT:    -7.060      1.641      4.328
REMARK INTER + INTRA:         -14.211
REMARK INTER:                 -11.891
REMARK INTRA:                  -2.319
REMARK UNBOUND:                -1.992
REMARK  Name = lig_assembled_25.pdb
REMARK  16 active torsions:
REMARK  status: ('A' for Active; 'I' for Inactive)
REMARK    1  A    between atoms: _2  and  _9
REMARK    2  A    between atoms: _4  and  _25
REMARK    3  A    between atoms: _6  and  _7
REMARK    4  A    between atoms: _6  and  _25
REMARK    5  A    between atoms: _21  and  _41
REMARK    6  A    between atoms: _23  and  _29
REMARK    7  A    between atoms: _24  and  _28
REMARK    8  A    between atoms: _28  and  _29
REMARK    9  A    between atoms: _31  and  _32
REMARK   10  A    between atoms: _33  and  _34
REMARK   11  A    between atoms: _35  and  _37
REMARK   12  A    between atoms: _37  and  _38
REMARK   13  A    between atoms: _37  and  _39
REMARK   14  A    between atoms: _39  and  _40
REMARK   15  A    between atoms: _39  and  _41
REMARK   16  A    between atoms: _42  and  _44
REMARK                            x       y       z     vdW  Elec       q    Type
REMARK                         _______ _______ _______ _____ _____    ______ ____
ROOT
ATOM      1  C   UNL     1       2.950   2.844  31.660  0.00  0.00    +0.141 C 
ENDROOT
BRANCH   1   4
ATOM      2  C   UNL     1       0.865   4.013  31.033  0.00  0.00    +0.401 C 
ATOM      3  O   UNL     1       0.317   3.816  32.120  0.00  0.00    -0.226 OA
ATOM      4  N   UNL     1       2.092   3.588  30.729  0.00  0.00    -0.279 N 
ATOM      5  H   UNL     1       2.452   3.791  29.807  0.00  0.00    +0.152 HD
BRANCH   2   6
ATOM      6  O   UNL     1       0.159   4.734  30.020  0.00  0.00    -0.444 OA
BRANCH   6   7
ATOM      7  C   UNL     1      -0.811   3.878  29.412  0.00  0.00    +0.292 C 
BRANCH   7   9
ATOM      8  N   UNL     1       0.908   3.657  27.653  0.00  0.00    -0.131 NA
ATOM      9  C   UNL     1      -0.397   3.521  28.042  0.00  0.00    +0.120 A 
ATOM     10  C   UNL     1      -1.137   3.052  26.979  0.00  0.00    +0.138 A 
ATOM     11  N   UNL     1      -0.230   2.940  25.963  0.00  0.00    -0.240 N 
ATOM     12  N   UNL     1       1.003   3.297  26.381  0.00  0.00    -0.064 NA
BRANCH  11  13
ATOM     13  C   UNL     1      -0.433   2.594  24.566  0.00  0.00    +0.170 C 
ATOM     14  C   UNL     1       0.075   1.197  24.233  0.00  0.00    -0.011 A 
ATOM     15  C   UNL     1       1.005   1.262  23.171  0.00  0.00    -0.012 A 
ATOM     16  C   UNL     1       1.170   2.647  22.775  0.00  0.00    -0.012 A 
ATOM     17  C   UNL     1       1.938   3.204  21.766  0.00  0.00    +0.009 A 
ATOM     18  C   UNL     1       1.886   4.588  21.578  0.00  0.00    +0.001 A 
ATOM     19  C   UNL     1       1.079   5.396  22.397  0.00  0.00    +0.000 A 
ATOM     20  C   UNL     1       0.303   4.837  23.415  0.00  0.00    +0.006 A 
ATOM     21  C   UNL     1       1.587   0.108  22.677  0.00  0.00    +0.009 A 
ATOM     22  C   UNL     1       1.233  -1.116  23.253  0.00  0.00    +0.001 A 
ATOM     23  C   UNL     1       0.305  -1.176  24.306  0.00  0.00    +0.000 A 
ATOM     24  C   UNL     1      -0.286  -0.015  24.805  0.00  0.00    +0.006 A 
ATOM     25  C   UNL     1       0.358   3.463  23.596  0.00  0.00    -0.011 A 
ENDBRANCH  11  13
ENDBRANCH   7   9
ENDBRANCH   6   7
ENDBRANCH   2   6
ENDBRANCH   1   4
BRANCH   1  26
ATOM     26  C   UNL     1       3.644   3.766  32.656  0.00  0.00    +0.163 C 
BRANCH  26  27
ATOM     27  O   UNL     1       2.779   4.022  33.775  0.00  0.00    -0.388 OA
ATOM     28  H   UNL     1       2.748   4.966  33.947  0.00  0.00    +0.210 HD
ENDBRANCH  26  27
BRANCH  26  29
ATOM     29  C   UNL     1       4.964   3.125  33.117  0.00  0.00    +0.175 C 
BRANCH  29  30
ATOM     30  C   UNL     1       5.517   3.789  34.386  0.00  0.00    +0.176 C 
ATOM     31  O   UNL     1       5.516   5.228  34.174  0.00  0.00    -0.332 OA
ATOM     32  C   UNL     1       5.916   6.039  35.328  0.00  0.00    +0.277 C 
ATOM     33  C   UNL     1       7.302   5.588  35.852  0.00  0.00    +0.110 C 
ATOM     34  C   UNL     1       7.362   4.061  36.062  0.00  0.00    +0.143 C 
ATOM     35  C   UNL     1       6.923   3.316  34.801  0.00  0.00    +0.133 C 
BRANCH  35  36
ATOM     36  N   UNL     1       6.901   1.864  35.041  0.00  0.00    -0.308 N 
ATOM     37  H   UNL     1       6.227   1.506  35.703  0.00  0.00    +0.149 HD
ATOM     38  C   UNL     1       7.714   0.990  34.442  0.00  0.00    +0.210 C 
ATOM     39  C   UNL     1       8.747   1.571  33.459  0.00  0.00    +0.109 C 
ATOM     40  O   UNL     1       7.663  -0.223  34.652  0.00  0.00    -0.276 OA
ENDBRANCH  35  36
BRANCH  32  41
ATOM     41  C   UNL     1       4.875   5.928  36.462  0.00  0.00    +0.414 C 
ATOM     42  O   UNL     1       3.707   5.638  36.206  0.00  0.00    -0.240 OA
ATOM     43  O   UNL     1       5.203   6.128  37.632  0.00  0.00    -0.240 OA
ENDBRANCH  32  41
BRANCH  34  44
ATOM     44  O   UNL     1       8.695   3.673  36.398  0.00  0.00    -0.390 OA
ATOM     45  H   UNL     1       8.703   3.279  37.273  0.00  0.00    +0.210 HD
ENDBRANCH  34  44
BRANCH  32  46
ATOM     46  O   UNL     1       6.018   7.419  34.893  0.00  0.00    -0.343 OA
ATOM     47  C   UNL     1       7.314   7.801  34.367  0.00  0.00    +0.198 C 
ENDBRANCH  32  46
ENDBRANCH  29  30
BRANCH  29  48
ATOM     48  O   UNL     1       5.941   3.184  32.059  0.00  0.00    -0.387 OA
ATOM     49  H   UNL     1       6.777   2.834  32.374  0.00  0.00    +0.210 HD
ENDBRANCH  29  48
ENDBRANCH  26  29
ENDBRANCH   1  26
TORSDOF 14
