REMARK VINA RESULT:    -6.412      2.260      3.816
REMARK INTER + INTRA:         -13.246
REMARK INTER:                 -10.920
REMARK INTRA:                  -2.327
REMARK UNBOUND:                -1.775
REMARK  Name = lig_assembled_69.pdb
REMARK  18 active torsions:
REMARK  status: ('A' for Active; 'I' for Inactive)
REMARK    1  A    between atoms: _2  and  _9
REMARK    2  A    between atoms: _4  and  _21
REMARK    3  A    between atoms: _6  and  _7
REMARK    4  A    between atoms: _6  and  _21
REMARK    5  A    between atoms: _11  and  _16
REMARK    6  A    between atoms: _14  and  _15
REMARK    7  A    between atoms: _17  and  _37
REMARK    8  A    between atoms: _19  and  _25
REMARK    9  A    between atoms: _20  and  _24
REMARK   10  A    between atoms: _24  and  _25
REMARK   11  A    between atoms: _27  and  _28
REMARK   12  A    between atoms: _29  and  _30
REMARK   13  A    between atoms: _31  and  _33
REMARK   14  A    between atoms: _33  and  _34
REMARK   15  A    between atoms: _33  and  _35
REMARK   16  A    between atoms: _35  and  _36
REMARK   17  A    between atoms: _35  and  _37
REMARK   18  A    between atoms: _38  and  _40
REMARK                            x       y       z     vdW  Elec       q    Type
REMARK                         _______ _______ _______ _____ _____    ______ ____
ROOT
ATOM      1  C   UNL     1       7.082   3.763  33.398  0.00  0.00    +0.163 C 
ENDROOT
BRANCH   1   2
ATOM      2  O   UNL     1       7.663   4.991  32.930  0.00  0.00    -0.388 OA
ATOM      3  H   UNL     1       7.954   4.883  32.022  0.00  0.00    +0.210 HD
ENDBRANCH   1   2
BRANCH   1   4
ATOM      4  C   UNL     1       5.867   4.037  34.300  0.00  0.00    +0.175 C 
BRANCH   4   5
ATOM      5  C   UNL     1       6.124   5.190  35.282  0.00  0.00    +0.176 C 
ATOM      6  O   UNL     1       7.506   5.101  35.724  0.00  0.00    -0.332 OA
ATOM      7  C   UNL     1       7.966   6.190  36.592  0.00  0.00    +0.277 C 
ATOM      8  C   UNL     1       7.032   6.336  37.818  0.00  0.00    +0.110 C 
ATOM      9  C   UNL     1       5.549   6.403  37.399  0.00  0.00    +0.143 C 
ATOM     10  C   UNL     1       5.179   5.225  36.497  0.00  0.00    +0.133 C 
BRANCH  10  11
ATOM     11  N   UNL     1       3.788   5.347  36.035  0.00  0.00    -0.308 N 
ATOM     12  H   UNL     1       3.572   6.083  35.377  0.00  0.00    +0.149 HD
ATOM     13  C   UNL     1       2.791   4.548  36.427  0.00  0.00    +0.210 C 
ATOM     14  C   UNL     1       3.147   3.452  37.449  0.00  0.00    +0.109 C 
ATOM     15  O   UNL     1       1.638   4.664  36.011  0.00  0.00    -0.276 OA
ENDBRANCH  10  11
BRANCH   7  16
ATOM     16  C   UNL     1       8.012   7.523  35.817  0.00  0.00    +0.414 C 
ATOM     17  O   UNL     1       7.871   7.536  34.595  0.00  0.00    -0.240 OA
ATOM     18  O   UNL     1       8.191   8.586  36.414  0.00  0.00    -0.240 OA
ENDBRANCH   7  16
BRANCH   7  19
ATOM     19  O   UNL     1       9.296   5.854  37.066  0.00  0.00    -0.343 OA
ATOM     20  C   UNL     1       9.467   5.920  38.505  0.00  0.00    +0.198 C 
ENDBRANCH   7  19
BRANCH   9  21
ATOM     21  O   UNL     1       4.719   6.385  38.561  0.00  0.00    -0.390 OA
ATOM     22  H   UNL     1       4.196   5.579  38.569  0.00  0.00    +0.210 HD
ENDBRANCH   9  21
ENDBRANCH   4   5
BRANCH   4  23
ATOM     23  O   UNL     1       5.504   2.843  35.021  0.00  0.00    -0.387 OA
ATOM     24  H   UNL     1       5.482   3.031  35.963  0.00  0.00    +0.210 HD
ENDBRANCH   4  23
ENDBRANCH   1   4
BRANCH   1  25
ATOM     25  C   UNL     1       6.654   2.904  32.213  0.00  0.00    +0.141 C 
BRANCH  25  28
ATOM     26  C   UNL     1       4.528   1.747  31.714  0.00  0.00    +0.401 C 
ATOM     27  O   UNL     1       5.068   0.674  31.435  0.00  0.00    -0.226 OA
ATOM     28  N   UNL     1       5.193   2.843  32.081  0.00  0.00    -0.279 N 
ATOM     29  H   UNL     1       4.661   3.679  32.280  0.00  0.00    +0.152 HD
BRANCH  26  30
ATOM     30  O   UNL     1       3.103   1.847  31.640  0.00  0.00    -0.444 OA
BRANCH  30  31
ATOM     31  C   UNL     1       2.730   3.211  31.430  0.00  0.00    +0.292 C 
BRANCH  31  33
ATOM     32  N   UNL     1       0.809   4.034  30.112  0.00  0.00    -0.131 NA
ATOM     33  C   UNL     1       1.995   3.354  30.160  0.00  0.00    +0.120 A 
ATOM     34  C   UNL     1       2.297   2.884  28.901  0.00  0.00    +0.137 A 
ATOM     35  N   UNL     1       1.249   3.300  28.136  0.00  0.00    -0.248 N 
ATOM     36  N   UNL     1       0.358   3.991  28.868  0.00  0.00    -0.065 NA
BRANCH  35  37
ATOM     37  C   UNL     1       1.006   3.034  26.719  0.00  0.00    +0.114 C 
ATOM     38  C   UNL     1       0.631   1.567  26.478  0.00  0.00    +0.062 C 
ATOM     39  C   UNL     1       1.796   0.586  26.332  0.00  0.00    +0.139 C 
ATOM     40  C   UNL     1       2.610   0.696  25.074  0.00  0.00    +0.002 C 
ATOM     41  C   UNL     1       2.731   1.742  24.241  0.00  0.00    +0.002 C 
ATOM     42  C   UNL     1       2.198   3.129  24.428  0.00  0.00    +0.139 C 
ATOM     43  C   UNL     1       2.158   3.602  25.877  0.00  0.00    +0.062 C 
BRANCH  39  44
ATOM     44  O   UNL     1       1.233  -0.732  26.310  0.00  0.00    -0.388 OA
ATOM     45  H   UNL     1       1.871  -1.327  26.740  0.00  0.00    +0.210 HD
ENDBRANCH  39  44
BRANCH  42  46
ATOM     46  O   UNL     1       0.910   3.221  23.839  0.00  0.00    -0.388 OA
ATOM     47  H   UNL     1       0.262   3.254  24.564  0.00  0.00    +0.210 HD
ENDBRANCH  42  46
ENDBRANCH  35  37
ENDBRANCH  31  33
ENDBRANCH  30  31
ENDBRANCH  26  30
ENDBRANCH  25  28
ENDBRANCH   1  25
TORSDOF 16
