REMARK VINA RESULT:    -5.659     15.508     17.364
REMARK INTER + INTRA:         -14.205
REMARK INTER:                 -11.560
REMARK INTRA:                  -2.645
REMARK UNBOUND:                -3.914
REMARK  Name = lig_assembled_73.pdb
REMARK  18 active torsions:
REMARK  status: ('A' for Active; 'I' for Inactive)
REMARK    1  A    between atoms: _2  and  _10
REMARK    2  A    between atoms: _3  and  _14
REMARK    3  A    between atoms: _5  and  _22
REMARK    4  A    between atoms: _7  and  _8
REMARK    5  A    between atoms: _7  and  _22
REMARK    6  A    between atoms: _13  and  _16
REMARK    7  A    between atoms: _18  and  _38
REMARK    8  A    between atoms: _20  and  _26
REMARK    9  A    between atoms: _21  and  _25
REMARK   10  A    between atoms: _25  and  _26
REMARK   11  A    between atoms: _28  and  _29
REMARK   12  A    between atoms: _30  and  _31
REMARK   13  A    between atoms: _32  and  _34
REMARK   14  A    between atoms: _34  and  _35
REMARK   15  A    between atoms: _34  and  _36
REMARK   16  A    between atoms: _36  and  _37
REMARK   17  A    between atoms: _36  and  _38
REMARK   18  A    between atoms: _39  and  _41
REMARK                            x       y       z     vdW  Elec       q    Type
REMARK                         _______ _______ _______ _____ _____    ______ ____
ROOT
ATOM      1  C   UNL     1      17.644   4.330  22.490  0.00  0.00    +0.163 C 
ENDROOT
BRANCH   1   2
ATOM      2  O   UNL     1      16.816   5.432  22.894  0.00  0.00    -0.388 OA
ATOM      3  H   UNL     1      15.895   5.220  22.725  0.00  0.00    +0.210 HD
ENDBRANCH   1   2
BRANCH   1   4
ATOM      4  C   UNL     1      18.189   3.573  23.714  0.00  0.00    +0.175 C 
BRANCH   4   5
ATOM      5  C   UNL     1      18.345   4.488  24.937  0.00  0.00    +0.176 C 
ATOM      6  O   UNL     1      19.499   5.344  24.711  0.00  0.00    -0.332 OA
ATOM      7  C   UNL     1      19.742   6.364  25.735  0.00  0.00    +0.277 C 
ATOM      8  C   UNL     1      19.841   5.712  27.136  0.00  0.00    +0.110 C 
ATOM      9  C   UNL     1      18.651   4.768  27.409  0.00  0.00    +0.143 C 
ATOM     10  C   UNL     1      18.487   3.750  26.281  0.00  0.00    +0.133 C 
BRANCH  10  11
ATOM     11  N   UNL     1      17.299   2.913  26.510  0.00  0.00    -0.308 N 
ATOM     12  H   UNL     1      16.397   3.369  26.526  0.00  0.00    +0.149 HD
ATOM     13  C   UNL     1      17.334   1.591  26.698  0.00  0.00    +0.210 C 
ATOM     14  C   UNL     1      18.725   0.931  26.693  0.00  0.00    +0.109 C 
ATOM     15  O   UNL     1      16.321   0.913  26.873  0.00  0.00    -0.276 OA
ENDBRANCH  10  11
BRANCH   7  16
ATOM     16  C   UNL     1      18.616   7.418  25.735  0.00  0.00    +0.414 C 
ATOM     17  O   UNL     1      17.685   7.331  24.935  0.00  0.00    -0.240 OA
ATOM     18  O   UNL     1      18.638   8.356  26.533  0.00  0.00    -0.240 OA
ENDBRANCH   7  16
BRANCH   9  19
ATOM     19  O   UNL     1      18.858   4.076  28.641  0.00  0.00    -0.390 OA
ATOM     20  H   UNL     1      18.211   4.370  29.287  0.00  0.00    +0.210 HD
ENDBRANCH   9  19
BRANCH   7  21
ATOM     21  O   UNL     1      21.010   7.004  25.438  0.00  0.00    -0.343 OA
ATOM     22  C   UNL     1      21.182   7.412  24.057  0.00  0.00    +0.198 C 
ENDBRANCH   7  21
ENDBRANCH   4   5
BRANCH   4  23
ATOM     23  O   UNL     1      19.450   2.952  23.393  0.00  0.00    -0.387 OA
ATOM     24  H   UNL     1      20.101   3.189  24.058  0.00  0.00    +0.210 HD
ENDBRANCH   4  23
ENDBRANCH   1   4
BRANCH   1  25
ATOM     25  C   UNL     1      16.846   3.372  21.612  0.00  0.00    +0.141 C 
BRANCH  25  28
ATOM     26  C   UNL     1      17.606   1.357  20.400  0.00  0.00    +0.401 C 
ATOM     27  O   UNL     1      17.202   1.750  19.303  0.00  0.00    -0.226 OA
ATOM     28  N   UNL     1      17.476   2.048  21.533  0.00  0.00    -0.279 N 
ATOM     29  H   UNL     1      17.830   1.637  22.385  0.00  0.00    +0.152 HD
BRANCH  26  30
ATOM     30  O   UNL     1      18.252   0.085  20.487  0.00  0.00    -0.444 OA
BRANCH  30  31
ATOM     31  C   UNL     1      18.833  -0.069  21.784  0.00  0.00    +0.292 C 
BRANCH  31  33
ATOM     32  N   UNL     1      17.179  -0.198  23.621  0.00  0.00    -0.131 NA
ATOM     33  C   UNL     1      17.925  -0.826  22.667  0.00  0.00    +0.121 A 
ATOM     34  C   UNL     1      17.664  -2.175  22.710  0.00  0.00    +0.143 A 
ATOM     35  N   UNL     1      16.735  -2.326  23.713  0.00  0.00    -0.220 N 
ATOM     36  N   UNL     1      16.459  -1.115  24.252  0.00  0.00    -0.060 NA
BRANCH  35  37
ATOM     37  C   UNL     1      16.116  -3.514  24.182  0.00  0.00    +0.074 A 
ATOM     38  C   UNL     1      15.616  -3.568  25.495  0.00  0.00    +0.032 A 
ATOM     39  C   UNL     1      15.010  -4.734  25.983  0.00  0.00    +0.054 A 
ATOM     40  C   UNL     1      14.899  -5.857  25.166  0.00  0.00    +0.195 A 
ATOM     41  C   UNL     1      15.395  -5.796  23.864  0.00  0.00    +0.316 A 
ATOM     42  C   UNL     1      15.998  -4.637  23.355  0.00  0.00    +0.116 A 
BRANCH  41  43
ATOM     43  N   UNL     1      15.304  -6.950  22.992  0.00  0.00    +0.083 N 
ATOM     44  O   UNL     1      14.172  -7.354  22.693  0.00  0.00    +0.042 OA
ATOM     45  O   UNL     1      16.371  -7.502  22.688  0.00  0.00    -0.576 OA
ENDBRANCH  41  43
BRANCH  40  46
ATOM     46  O   UNL     1      14.290  -6.982  25.634  0.00  0.00    -0.501 OA
ATOM     47  H   UNL     1      14.925  -7.718  25.661  0.00  0.00    +0.292 HD
ENDBRANCH  40  46
ENDBRANCH  35  37
ENDBRANCH  31  33
ENDBRANCH  30  31
ENDBRANCH  26  30
ENDBRANCH  25  28
ENDBRANCH   1  25
TORSDOF 16
