REMARK VINA RESULT:    -6.971      2.032      3.604
REMARK INTER + INTRA:         -13.854
REMARK INTER:                 -11.632
REMARK INTRA:                  -2.222
REMARK UNBOUND:                -1.788
REMARK  Name = lig_assembled_20.pdb
REMARK  16 active torsions:
REMARK  status: ('A' for Active; 'I' for Inactive)
REMARK    1  A    between atoms: _2  and  _11
REMARK    2  A    between atoms: _6  and  _21
REMARK    3  A    between atoms: _8  and  _9
REMARK    4  A    between atoms: _8  and  _21
REMARK    5  A    between atoms: _17  and  _37
REMARK    6  A    between atoms: _19  and  _25
REMARK    7  A    between atoms: _20  and  _24
REMARK    8  A    between atoms: _24  and  _25
REMARK    9  A    between atoms: _27  and  _28
REMARK   10  A    between atoms: _29  and  _30
REMARK   11  A    between atoms: _31  and  _33
REMARK   12  A    between atoms: _33  and  _34
REMARK   13  A    between atoms: _33  and  _35
REMARK   14  A    between atoms: _35  and  _36
REMARK   15  A    between atoms: _35  and  _37
REMARK   16  A    between atoms: _38  and  _40
REMARK                            x       y       z     vdW  Elec       q    Type
REMARK                         _______ _______ _______ _____ _____    ______ ____
ROOT
ATOM      1  C   UNL     1       6.608   3.938  33.842  0.00  0.00    +0.163 C 
ENDROOT
BRANCH   1   2
ATOM      2  O   UNL     1       7.368   5.067  33.378  0.00  0.00    -0.388 OA
ATOM      3  H   UNL     1       6.910   5.481  32.643  0.00  0.00    +0.210 HD
ENDBRANCH   1   2
BRANCH   1   4
ATOM      4  C   UNL     1       6.072   3.147  32.653  0.00  0.00    +0.141 C 
BRANCH   4   7
ATOM      5  C   UNL     1       3.838   2.802  31.655  0.00  0.00    +0.401 C 
ATOM      6  O   UNL     1       4.054   1.628  31.346  0.00  0.00    -0.226 OA
ATOM      7  N   UNL     1       4.728   3.588  32.263  0.00  0.00    -0.279 N 
ATOM      8  H   UNL     1       4.461   4.541  32.467  0.00  0.00    +0.152 HD
BRANCH   5   9
ATOM      9  O   UNL     1       2.566   3.379  31.348  0.00  0.00    -0.444 OA
BRANCH   9  10
ATOM     10  C   UNL     1       1.750   2.411  30.684  0.00  0.00    +0.292 C 
BRANCH  10  12
ATOM     11  N   UNL     1       0.500   3.799  29.052  0.00  0.00    -0.131 NA
ATOM     12  C   UNL     1       1.445   2.848  29.308  0.00  0.00    +0.121 A 
ATOM     13  C   UNL     1       1.994   2.430  28.120  0.00  0.00    +0.143 A 
ATOM     14  N   UNL     1       1.349   3.160  27.149  0.00  0.00    -0.220 N 
ATOM     15  N   UNL     1       0.447   3.984  27.739  0.00  0.00    -0.060 NA
BRANCH  14  16
ATOM     16  C   UNL     1       1.537   3.120  25.743  0.00  0.00    +0.068 A 
ATOM     17  C   UNL     1       1.845   1.903  25.113  0.00  0.00    +0.030 A 
ATOM     18  C   UNL     1       2.032   1.827  23.726  0.00  0.00    +0.030 A 
ATOM     19  C   UNL     1       1.899   3.013  22.998  0.00  0.00    +0.066 A 
ATOM     20  C   UNL     1       1.598   4.233  23.591  0.00  0.00    +0.021 A 
ATOM     21  C   UNL     1       1.559   5.151  22.519  0.00  0.00    +0.142 A 
ATOM     22  N   UNL     1       1.811   4.577  21.340  0.00  0.00    -0.181 NA
ATOM     23  N   UNL     1       2.011   3.286  21.659  0.00  0.00    -0.277 N 
ATOM     24  H   UNL     1       2.225   2.633  20.914  0.00  0.00    +0.189 HD
ATOM     25  C   UNL     1       1.412   4.299  24.983  0.00  0.00    +0.039 A 
ENDBRANCH  14  16
ENDBRANCH  10  12
ENDBRANCH   9  10
ENDBRANCH   5   9
ENDBRANCH   4   7
ENDBRANCH   1   4
BRANCH   1  26
ATOM     26  C   UNL     1       5.436   4.391  34.729  0.00  0.00    +0.175 C 
BRANCH  26  27
ATOM     27  C   UNL     1       5.864   5.446  35.759  0.00  0.00    +0.176 C 
ATOM     28  O   UNL     1       7.229   5.148  36.163  0.00  0.00    -0.332 OA
ATOM     29  C   UNL     1       7.847   6.119  37.071  0.00  0.00    +0.277 C 
ATOM     30  C   UNL     1       6.962   6.327  38.325  0.00  0.00    +0.110 C 
ATOM     31  C   UNL     1       5.495   6.615  37.945  0.00  0.00    +0.143 C 
ATOM     32  C   UNL     1       4.953   5.546  36.996  0.00  0.00    +0.133 C 
BRANCH  32  33
ATOM     33  N   UNL     1       3.584   5.878  36.573  0.00  0.00    -0.308 N 
ATOM     34  H   UNL     1       3.461   6.659  35.944  0.00  0.00    +0.149 HD
ATOM     35  C   UNL     1       2.493   5.215  36.966  0.00  0.00    +0.210 C 
ATOM     36  C   UNL     1       2.711   4.047  37.946  0.00  0.00    +0.109 C 
ATOM     37  O   UNL     1       1.359   5.507  36.584  0.00  0.00    -0.276 OA
ENDBRANCH  32  33
BRANCH  29  38
ATOM     38  C   UNL     1       8.061   7.472  36.362  0.00  0.00    +0.414 C 
ATOM     39  O   UNL     1       8.144   7.523  35.135  0.00  0.00    -0.240 OA
ATOM     40  O   UNL     1       8.152   8.512  37.015  0.00  0.00    -0.240 OA
ENDBRANCH  29  38
BRANCH  31  41
ATOM     41  O   UNL     1       4.690   6.649  39.125  0.00  0.00    -0.390 OA
ATOM     42  H   UNL     1       4.795   5.827  39.608  0.00  0.00    +0.210 HD
ENDBRANCH  31  41
BRANCH  29  43
ATOM     43  O   UNL     1       9.126   5.583  37.498  0.00  0.00    -0.343 OA
ATOM     44  C   UNL     1       9.625   4.481  36.699  0.00  0.00    +0.198 C 
ENDBRANCH  29  43
ENDBRANCH  26  27
BRANCH  26  45
ATOM     45  O   UNL     1       4.850   3.255  35.396  0.00  0.00    -0.387 OA
ATOM     46  H   UNL     1       5.041   3.302  36.336  0.00  0.00    +0.210 HD
ENDBRANCH  26  45
ENDBRANCH   1  26
TORSDOF 14
