REMARK VINA RESULT:    -6.420      2.159      3.466
REMARK INTER + INTRA:         -14.880
REMARK INTER:                 -12.430
REMARK INTRA:                  -2.450
REMARK UNBOUND:                -2.643
REMARK  Name = lig_assembled_21.pdb
REMARK  20 active torsions:
REMARK  status: ('A' for Active; 'I' for Inactive)
REMARK    1  A    between atoms: _2  and  _9
REMARK    2  A    between atoms: _4  and  _23
REMARK    3  A    between atoms: _6  and  _7
REMARK    4  A    between atoms: _6  and  _23
REMARK    5  A    between atoms: _9  and  _10
REMARK    6  A    between atoms: _11  and  _18
REMARK    7  A    between atoms: _12  and  _13
REMARK    8  A    between atoms: _12  and  _18
REMARK    9  A    between atoms: _19  and  _39
REMARK   10  A    between atoms: _21  and  _27
REMARK   11  A    between atoms: _22  and  _26
REMARK   12  A    between atoms: _26  and  _27
REMARK   13  A    between atoms: _29  and  _30
REMARK   14  A    between atoms: _31  and  _32
REMARK   15  A    between atoms: _33  and  _35
REMARK   16  A    between atoms: _35  and  _36
REMARK   17  A    between atoms: _35  and  _37
REMARK   18  A    between atoms: _37  and  _38
REMARK   19  A    between atoms: _37  and  _39
REMARK   20  A    between atoms: _40  and  _42
REMARK                            x       y       z     vdW  Elec       q    Type
REMARK                         _______ _______ _______ _____ _____    ______ ____
ROOT
ATOM      1  C   UNL     1       2.763   2.585  32.696  0.00  0.00    +0.163 C 
ENDROOT
BRANCH   1   2
ATOM      2  O   UNL     1       2.468   1.461  33.542  0.00  0.00    -0.388 OA
ATOM      3  H   UNL     1       3.139   1.389  34.225  0.00  0.00    +0.210 HD
ENDBRANCH   1   2
BRANCH   1   4
ATOM      4  C   UNL     1       3.790   3.518  33.359  0.00  0.00    +0.175 C 
BRANCH   4   5
ATOM      5  C   UNL     1       3.446   3.806  34.828  0.00  0.00    +0.176 C 
ATOM      6  O   UNL     1       2.010   4.018  34.917  0.00  0.00    -0.332 OA
ATOM      7  C   UNL     1       1.479   4.203  36.271  0.00  0.00    +0.277 C 
ATOM      8  C   UNL     1       2.224   5.354  36.991  0.00  0.00    +0.110 C 
ATOM      9  C   UNL     1       3.755   5.189  36.896  0.00  0.00    +0.143 C 
ATOM     10  C   UNL     1       4.197   5.000  35.444  0.00  0.00    +0.133 C 
BRANCH  10  11
ATOM     11  N   UNL     1       5.647   4.757  35.375  0.00  0.00    -0.308 N 
ATOM     12  H   UNL     1       5.995   3.877  35.729  0.00  0.00    +0.149 HD
ATOM     13  C   UNL     1       6.532   5.623  34.875  0.00  0.00    +0.210 C 
ATOM     14  C   UNL     1       5.973   6.966  34.368  0.00  0.00    +0.109 C 
ATOM     15  O   UNL     1       7.740   5.387  34.816  0.00  0.00    -0.276 OA
ENDBRANCH  10  11
BRANCH   7  16
ATOM     16  C   UNL     1       1.616   2.906  37.095  0.00  0.00    +0.414 C 
ATOM     17  O   UNL     1       1.796   1.828  36.529  0.00  0.00    -0.240 OA
ATOM     18  O   UNL     1       1.546   2.937  38.324  0.00  0.00    -0.240 OA
ENDBRANCH   7  16
BRANCH   9  19
ATOM     19  O   UNL     1       4.399   6.343  37.437  0.00  0.00    -0.390 OA
ATOM     20  H   UNL     1       4.492   7.009  36.752  0.00  0.00    +0.210 HD
ENDBRANCH   9  19
BRANCH   7  21
ATOM     21  O   UNL     1       0.078   4.565  36.158  0.00  0.00    -0.343 OA
ATOM     22  C   UNL     1      -0.616   3.979  35.029  0.00  0.00    +0.198 C 
ENDBRANCH   7  21
ENDBRANCH   4   5
BRANCH   4  23
ATOM     23  O   UNL     1       3.889   4.752  32.621  0.00  0.00    -0.387 OA
ATOM     24  H   UNL     1       3.563   5.476  33.162  0.00  0.00    +0.210 HD
ENDBRANCH   4  23
ENDBRANCH   1   4
BRANCH   1  25
ATOM     25  C   UNL     1       3.307   2.100  31.356  0.00  0.00    +0.141 C 
BRANCH  25  28
ATOM     26  C   UNL     1       2.208   2.582  29.196  0.00  0.00    +0.401 C 
ATOM     27  O   UNL     1       1.821   1.423  29.026  0.00  0.00    -0.226 OA
ATOM     28  N   UNL     1       2.914   2.985  30.253  0.00  0.00    -0.279 N 
ATOM     29  H   UNL     1       3.193   3.955  30.298  0.00  0.00    +0.152 HD
BRANCH  26  30
ATOM     30  O   UNL     1       1.896   3.569  28.209  0.00  0.00    -0.444 OA
BRANCH  30  31
ATOM     31  C   UNL     1       0.695   3.200  27.527  0.00  0.00    +0.292 C 
BRANCH  31  33
ATOM     32  N   UNL     1      -0.428   4.983  26.236  0.00  0.00    -0.131 NA
ATOM     33  C   UNL     1       0.532   4.011  26.307  0.00  0.00    +0.120 A 
ATOM     34  C   UNL     1       1.244   3.995  25.128  0.00  0.00    +0.137 A 
ATOM     35  N   UNL     1       0.729   5.045  24.416  0.00  0.00    -0.247 N 
ATOM     36  N   UNL     1      -0.299   5.608  25.075  0.00  0.00    -0.065 NA
BRANCH  35  37
ATOM     37  C   UNL     1       1.256   5.567  23.159  0.00  0.00    +0.184 C 
BRANCH  37  38
ATOM     38  C   UNL     1       0.924   4.762  21.925  0.00  0.00    +0.016 A 
ATOM     39  C   UNL     1      -0.344   4.820  21.318  0.00  0.00    +0.137 A 
ATOM     40  C   UNL     1      -0.629   4.071  20.175  0.00  0.00    +0.047 A 
ATOM     41  C   UNL     1       0.360   3.263  19.613  0.00  0.00    +0.004 A 
ATOM     42  C   UNL     1       1.618   3.181  20.208  0.00  0.00    +0.001 A 
ATOM     43  C   UNL     1       1.899   3.927  21.354  0.00  0.00    +0.009 A 
BRANCH  39  44
ATOM     44  O   UNL     1      -1.328   5.601  21.968  0.00  0.00    -0.426 OA
BRANCH  44  45
ATOM     45  C   UNL     1      -2.637   5.156  22.156  0.00  0.00    +0.309 C 
ATOM     46  O   UNL     1      -3.630   5.486  21.522  0.00  0.00    -0.251 OA
ATOM     47  C   UNL     1      -2.647   4.117  23.238  0.00  0.00    +0.136 C 
ENDBRANCH  44  45
ENDBRANCH  39  44
ENDBRANCH  37  38
ENDBRANCH  35  37
ENDBRANCH  31  33
ENDBRANCH  30  31
ENDBRANCH  26  30
ENDBRANCH  25  28
ENDBRANCH   1  25
TORSDOF 17
