REMARK VINA RESULT:    -6.931     14.390     16.441
REMARK INTER + INTRA:         -16.447
REMARK INTER:                 -14.271
REMARK INTRA:                  -2.176
REMARK UNBOUND:                -2.424
REMARK  Name = lig_assembled_81.pdb
REMARK  22 active torsions:
REMARK  status: ('A' for Active; 'I' for Inactive)
REMARK    1  A    between atoms: _2  and  _12
REMARK    2  A    between atoms: _7  and  _30
REMARK    3  A    between atoms: _8  and  _24
REMARK    4  A    between atoms: _9  and  _10
REMARK    5  A    between atoms: _9  and  _30
REMARK    6  A    between atoms: _14  and  _15
REMARK    7  A    between atoms: _21  and  _22
REMARK    8  A    between atoms: _22  and  _23
REMARK    9  A    between atoms: _23  and  _25
REMARK   10  A    between atoms: _24  and  _25
REMARK   11  A    between atoms: _26  and  _46
REMARK   12  A    between atoms: _28  and  _34
REMARK   13  A    between atoms: _29  and  _33
REMARK   14  A    between atoms: _33  and  _34
REMARK   15  A    between atoms: _36  and  _37
REMARK   16  A    between atoms: _38  and  _39
REMARK   17  A    between atoms: _40  and  _42
REMARK   18  A    between atoms: _42  and  _43
REMARK   19  A    between atoms: _42  and  _44
REMARK   20  A    between atoms: _44  and  _45
REMARK   21  A    between atoms: _44  and  _46
REMARK   22  A    between atoms: _47  and  _49
REMARK                            x       y       z     vdW  Elec       q    Type
REMARK                         _______ _______ _______ _____ _____    ______ ____
ROOT
ATOM      1  C   UNL     1       5.112  -0.022  30.983  0.00  0.00    +0.401 C 
ATOM      2  O   UNL     1       6.114  -0.723  30.829  0.00  0.00    -0.226 OA
ATOM      3  N   UNL     1       4.998   0.920  31.920  0.00  0.00    -0.279 N 
ATOM      4  H   UNL     1       4.139   1.450  31.962  0.00  0.00    +0.152 HD
ENDROOT
BRANCH   1   5
ATOM      5  O   UNL     1       3.992  -0.210  30.115  0.00  0.00    -0.444 OA
BRANCH   5   6
ATOM      6  C   UNL     1       2.872   0.527  30.611  0.00  0.00    +0.289 C 
BRANCH   6   8
ATOM      7  N   UNL     1       2.687   2.859  29.876  0.00  0.00    -0.130 NA
ATOM      8  C   UNL     1       2.448   1.542  29.626  0.00  0.00    +0.100 C 
ATOM      9  C   UNL     1       1.780   1.436  28.420  0.00  0.00    +0.124 C 
ATOM     10  N   UNL     1       1.766   2.727  27.910  0.00  0.00    -0.187 N 
ATOM     11  N   UNL     1       2.148   3.564  28.896  0.00  0.00    -0.010 NA
BRANCH  10  12
ATOM     12  C   UNL     1       1.240   3.177  26.653  0.00  0.00    +0.150 A 
ATOM     13  C   UNL     1       1.751   2.838  25.375  0.00  0.00    +0.022 A 
ATOM     14  C   UNL     1       1.079   3.495  24.311  0.00  0.00    +0.081 A 
ATOM     15  N   UNL     1       0.098   4.409  24.541  0.00  0.00    -0.214 NA
ATOM     16  C   UNL     1      -0.275   4.663  25.784  0.00  0.00    +0.215 A 
ATOM     17  N   UNL     1      -1.202   5.655  25.998  0.00  0.00    -0.327 N 
ATOM     18  H   UNL     1      -1.752   5.827  25.171  0.00  0.00    +0.145 HD
ATOM     19  H   UNL     1      -1.672   5.543  26.884  0.00  0.00    +0.145 HD
ATOM     20  N   UNL     1       0.187   4.019  26.838  0.00  0.00    -0.198 NA
BRANCH  14  21
ATOM     21  C   UNL     1       1.317   3.343  22.825  0.00  0.00    +0.001 A 
ATOM     22  C   UNL     1       1.637   4.394  21.946  0.00  0.00    +0.010 A 
ATOM     23  C   UNL     1       1.860   4.188  20.574  0.00  0.00    +0.001 A 
ATOM     24  C   UNL     1       1.830   2.914  20.039  0.00  0.00    +0.000 A 
ATOM     25  C   UNL     1       1.572   1.834  20.879  0.00  0.00    +0.001 A 
ATOM     26  C   UNL     1       1.309   2.054  22.240  0.00  0.00    +0.010 A 
ENDBRANCH  14  21
BRANCH  13  27
ATOM     27  C   UNL     1       2.824   1.804  25.018  0.00  0.00    +0.069 C 
BRANCH  27  28
ATOM     28  C   UNL     1       2.533   0.317  25.084  0.00  0.00    +0.164 C 
BRANCH  28  29
ATOM     29  O   UNL     1       3.344  -0.526  24.257  0.00  0.00    -0.380 OA
BRANCH  29  30
ATOM     30  C   UNL     1       4.139  -1.327  25.155  0.00  0.00    +0.156 C 
ATOM     31  C   UNL     1       5.488  -1.661  24.561  0.00  0.00    +0.034 C 
ENDBRANCH  29  30
ENDBRANCH  28  29
ENDBRANCH  27  28
ENDBRANCH  13  27
ENDBRANCH  10  12
ENDBRANCH   6   8
ENDBRANCH   5   6
ENDBRANCH   1   5
BRANCH   3  32
ATOM     32  C   UNL     1       6.051   1.231  32.895  0.00  0.00    +0.141 C 
BRANCH  32  33
ATOM     33  C   UNL     1       6.562   2.660  32.743  0.00  0.00    +0.163 C 
BRANCH  33  34
ATOM     34  O   UNL     1       5.477   3.536  32.393  0.00  0.00    -0.388 OA
ATOM     35  H   UNL     1       5.829   4.352  32.029  0.00  0.00    +0.210 HD
ENDBRANCH  33  34
BRANCH  33  36
ATOM     36  C   UNL     1       7.229   3.109  34.055  0.00  0.00    +0.175 C 
BRANCH  36  37
ATOM     37  C   UNL     1       6.626   4.415  34.593  0.00  0.00    +0.176 C 
ATOM     38  O   UNL     1       7.721   5.265  35.034  0.00  0.00    -0.332 OA
ATOM     39  C   UNL     1       7.340   6.607  35.485  0.00  0.00    +0.277 C 
ATOM     40  C   UNL     1       6.265   6.519  36.596  0.00  0.00    +0.110 C 
ATOM     41  C   UNL     1       5.095   5.600  36.185  0.00  0.00    +0.143 C 
ATOM     42  C   UNL     1       5.605   4.232  35.731  0.00  0.00    +0.133 C 
BRANCH  42  43
ATOM     43  N   UNL     1       4.489   3.396  35.261  0.00  0.00    -0.308 N 
ATOM     44  H   UNL     1       3.974   3.710  34.450  0.00  0.00    +0.149 HD
ATOM     45  C   UNL     1       4.113   2.250  35.834  0.00  0.00    +0.210 C 
ATOM     46  C   UNL     1       4.902   1.812  37.082  0.00  0.00    +0.109 C 
ATOM     47  O   UNL     1       3.183   1.563  35.409  0.00  0.00    -0.276 OA
ENDBRANCH  42  43
BRANCH  39  48
ATOM     48  C   UNL     1       6.798   7.446  34.309  0.00  0.00    +0.414 C 
ATOM     49  O   UNL     1       5.783   8.126  34.448  0.00  0.00    -0.240 OA
ATOM     50  O   UNL     1       7.377   7.442  33.221  0.00  0.00    -0.240 OA
ENDBRANCH  39  48
BRANCH  39  51
ATOM     51  O   UNL     1       8.519   7.246  36.039  0.00  0.00    -0.343 OA
ATOM     52  C   UNL     1       8.617   7.201  37.485  0.00  0.00    +0.198 C 
ENDBRANCH  39  51
BRANCH  41  53
ATOM     53  O   UNL     1       4.206   5.428  37.290  0.00  0.00    -0.390 OA
ATOM     54  H   UNL     1       3.412   5.948  37.147  0.00  0.00    +0.210 HD
ENDBRANCH  41  53
ENDBRANCH  36  37
BRANCH  36  55
ATOM     55  O   UNL     1       8.650   3.260  33.863  0.00  0.00    -0.387 OA
ATOM     56  H   UNL     1       8.827   3.493  32.948  0.00  0.00    +0.210 HD
ENDBRANCH  36  55
ENDBRANCH  33  36
ENDBRANCH  32  33
ENDBRANCH   3  32
TORSDOF 19
