REMARK VINA RESULT:    -5.008      2.359      3.544
REMARK INTER + INTRA:         -11.777
REMARK INTER:                  -9.219
REMARK INTRA:                  -2.559
REMARK UNBOUND:                -2.671
REMARK  Name = lig_assembled_1.pdb
REMARK  18 active torsions:
REMARK  status: ('A' for Active; 'I' for Inactive)
REMARK    1  A    between atoms: _2  and  _9
REMARK    2  A    between atoms: _4  and  _15
REMARK    3  A    between atoms: _5  and  _9
REMARK    4  A    between atoms: _5  and  _10
REMARK    5  A    between atoms: _6  and  _7
REMARK    6  A    between atoms: _6  and  _15
REMARK    7  A    between atoms: _11  and  _31
REMARK    8  A    between atoms: _13  and  _19
REMARK    9  A    between atoms: _14  and  _18
REMARK   10  A    between atoms: _18  and  _19
REMARK   11  A    between atoms: _21  and  _22
REMARK   12  A    between atoms: _23  and  _24
REMARK   13  A    between atoms: _25  and  _27
REMARK   14  A    between atoms: _27  and  _28
REMARK   15  A    between atoms: _27  and  _29
REMARK   16  A    between atoms: _29  and  _30
REMARK   17  A    between atoms: _29  and  _31
REMARK   18  A    between atoms: _32  and  _34
REMARK                            x       y       z     vdW  Elec       q    Type
REMARK                         _______ _______ _______ _____ _____    ______ ____
ROOT
ATOM      1  C   UNL     1      17.637   1.920  25.069  0.00  0.00    +0.175 C 
ENDROOT
BRANCH   1   2
ATOM      2  C   UNL     1      18.079   0.635  25.785  0.00  0.00    +0.176 C 
ATOM      3  O   UNL     1      16.957  -0.290  25.776  0.00  0.00    -0.332 OA
ATOM      4  C   UNL     1      17.229  -1.621  26.328  0.00  0.00    +0.277 C 
ATOM      5  C   UNL     1      17.801  -1.506  27.762  0.00  0.00    +0.110 C 
ATOM      6  C   UNL     1      18.977  -0.508  27.828  0.00  0.00    +0.143 C 
ATOM      7  C   UNL     1      18.586   0.841  27.225  0.00  0.00    +0.133 C 
BRANCH   7   8
ATOM      8  N   UNL     1      19.739   1.755  27.214  0.00  0.00    -0.308 N 
ATOM      9  H   UNL     1      20.509   1.536  26.597  0.00  0.00    +0.149 HD
ATOM     10  C   UNL     1      19.836   2.854  27.966  0.00  0.00    +0.210 C 
ATOM     11  C   UNL     1      18.659   3.146  28.916  0.00  0.00    +0.109 C 
ATOM     12  O   UNL     1      20.808   3.609  27.926  0.00  0.00    -0.276 OA
ENDBRANCH   7   8
BRANCH   4  13
ATOM     13  C   UNL     1      18.225  -2.390  25.435  0.00  0.00    +0.414 C 
ATOM     14  O   UNL     1      19.041  -3.161  25.939  0.00  0.00    -0.240 OA
ATOM     15  O   UNL     1      18.212  -2.240  24.213  0.00  0.00    -0.240 OA
ENDBRANCH   4  13
BRANCH   4  16
ATOM     16  O   UNL     1      15.973  -2.344  26.393  0.00  0.00    -0.343 OA
ATOM     17  C   UNL     1      15.941  -3.430  27.354  0.00  0.00    +0.198 C 
ENDBRANCH   4  16
BRANCH   6  18
ATOM     18  O   UNL     1      19.373  -0.320  29.187  0.00  0.00    -0.390 OA
ATOM     19  H   UNL     1      20.269  -0.644  29.307  0.00  0.00    +0.210 HD
ENDBRANCH   6  18
ENDBRANCH   1   2
BRANCH   1  20
ATOM     20  O   UNL     1      16.855   2.741  25.959  0.00  0.00    -0.387 OA
ATOM     21  H   UNL     1      16.238   3.270  25.448  0.00  0.00    +0.210 HD
ENDBRANCH   1  20
BRANCH   1  22
ATOM     22  C   UNL     1      16.843   1.624  23.786  0.00  0.00    +0.163 C 
BRANCH  22  23
ATOM     23  O   UNL     1      17.395   0.495  23.089  0.00  0.00    -0.388 OA
ATOM     24  H   UNL     1      18.249   0.732  22.720  0.00  0.00    +0.210 HD
ENDBRANCH  22  23
BRANCH  22  25
ATOM     25  C   UNL     1      16.858   2.852  22.882  0.00  0.00    +0.141 C 
BRANCH  25  28
ATOM     26  C   UNL     1      17.695   5.169  23.077  0.00  0.00    +0.401 C 
ATOM     27  O   UNL     1      16.797   5.652  22.384  0.00  0.00    -0.226 OA
ATOM     28  N   UNL     1      17.804   3.869  23.357  0.00  0.00    -0.279 N 
ATOM     29  H   UNL     1      18.582   3.568  23.927  0.00  0.00    +0.152 HD
BRANCH  26  30
ATOM     30  O   UNL     1      18.693   6.035  23.623  0.00  0.00    -0.444 OA
BRANCH  30  31
ATOM     31  C   UNL     1      19.186   5.485  24.847  0.00  0.00    +0.292 C 
BRANCH  31  33
ATOM     32  N   UNL     1      18.877   6.322  27.158  0.00  0.00    -0.131 NA
ATOM     33  C   UNL     1      19.302   6.538  25.874  0.00  0.00    +0.120 A 
ATOM     34  C   UNL     1      19.803   7.817  25.775  0.00  0.00    +0.137 A 
ATOM     35  N   UNL     1      19.648   8.327  27.029  0.00  0.00    -0.249 N 
ATOM     36  N   UNL     1      19.088   7.430  27.856  0.00  0.00    -0.065 NA
BRANCH  35  37
ATOM     37  C   UNL     1      20.015   9.642  27.506  0.00  0.00    +0.173 C 
BRANCH  37  38
ATOM     38  C   UNL     1      18.924  10.678  27.268  0.00  0.00    +0.179 C 
BRANCH  38  39
ATOM     39  O   UNL     1      19.052  11.275  25.978  0.00  0.00    -0.393 OA
ATOM     40  H   UNL     1      19.709  11.993  26.062  0.00  0.00    +0.209 HD
ENDBRANCH  38  39
ENDBRANCH  37  38
ENDBRANCH  35  37
ENDBRANCH  31  33
ENDBRANCH  30  31
ENDBRANCH  26  30
ENDBRANCH  25  28
ENDBRANCH  22  25
ENDBRANCH   1  22
TORSDOF 16
