REMARK VINA RESULT:    -5.699      2.069      4.070
REMARK INTER + INTRA:         -12.446
REMARK INTER:                 -10.009
REMARK INTRA:                  -2.437
REMARK UNBOUND:                -2.083
REMARK  Name = lig_assembled_35.pdb
REMARK  19 active torsions:
REMARK  status: ('A' for Active; 'I' for Inactive)
REMARK    1  A    between atoms: _2  and  _9
REMARK    2  A    between atoms: _4  and  _17
REMARK    3  A    between atoms: _5  and  _9
REMARK    4  A    between atoms: _5  and  _11
REMARK    5  A    between atoms: _6  and  _7
REMARK    6  A    between atoms: _6  and  _17
REMARK    7  A    between atoms: _9  and  _10
REMARK    8  A    between atoms: _13  and  _33
REMARK    9  A    between atoms: _15  and  _21
REMARK   10  A    between atoms: _16  and  _20
REMARK   11  A    between atoms: _20  and  _21
REMARK   12  A    between atoms: _23  and  _24
REMARK   13  A    between atoms: _25  and  _26
REMARK   14  A    between atoms: _27  and  _29
REMARK   15  A    between atoms: _29  and  _30
REMARK   16  A    between atoms: _29  and  _31
REMARK   17  A    between atoms: _31  and  _32
REMARK   18  A    between atoms: _31  and  _33
REMARK   19  A    between atoms: _34  and  _36
REMARK                            x       y       z     vdW  Elec       q    Type
REMARK                         _______ _______ _______ _____ _____    ______ ____
ROOT
ATOM      1  C   UNL     1      16.049   1.761  25.901  0.00  0.00    +0.163 C 
ENDROOT
BRANCH   1   2
ATOM      2  O   UNL     1      16.445   2.834  26.771  0.00  0.00    -0.388 OA
ATOM      3  H   UNL     1      15.679   3.370  26.988  0.00  0.00    +0.210 HD
ENDBRANCH   1   2
BRANCH   1   4
ATOM      4  C   UNL     1      16.715   1.897  24.521  0.00  0.00    +0.175 C 
BRANCH   4   5
ATOM      5  C   UNL     1      18.214   2.212  24.631  0.00  0.00    +0.176 C 
ATOM      6  O   UNL     1      18.352   3.629  24.929  0.00  0.00    -0.332 OA
ATOM      7  C   UNL     1      19.720   4.094  25.175  0.00  0.00    +0.277 C 
ATOM      8  C   UNL     1      20.642   3.716  23.990  0.00  0.00    +0.110 C 
ATOM      9  C   UNL     1      20.506   2.225  23.616  0.00  0.00    +0.143 C 
ATOM     10  C   UNL     1      19.042   1.849  23.385  0.00  0.00    +0.133 C 
BRANCH  10  11
ATOM     11  N   UNL     1      18.917   0.408  23.115  0.00  0.00    -0.308 N 
ATOM     12  H   UNL     1      19.229  -0.235  23.830  0.00  0.00    +0.149 HD
ATOM     13  C   UNL     1      18.418  -0.107  21.988  0.00  0.00    +0.210 C 
ATOM     14  C   UNL     1      17.976   0.899  20.908  0.00  0.00    +0.109 C 
ATOM     15  O   UNL     1      18.312  -1.318  21.795  0.00  0.00    -0.276 OA
ENDBRANCH  10  11
BRANCH   7  16
ATOM     16  C   UNL     1      20.279   3.485  26.478  0.00  0.00    +0.414 C 
ATOM     17  O   UNL     1      21.491   3.477  26.689  0.00  0.00    -0.240 OA
ATOM     18  O   UNL     1      19.518   3.002  27.318  0.00  0.00    -0.240 OA
ENDBRANCH   7  16
BRANCH   7  19
ATOM     19  O   UNL     1      19.689   5.541  25.287  0.00  0.00    -0.343 OA
ATOM     20  C   UNL     1      19.123   6.231  24.144  0.00  0.00    +0.198 C 
ENDBRANCH   7  19
BRANCH   9  21
ATOM     21  O   UNL     1      21.254   1.955  22.430  0.00  0.00    -0.390 OA
ATOM     22  H   UNL     1      20.863   1.211  21.966  0.00  0.00    +0.210 HD
ENDBRANCH   9  21
ENDBRANCH   4   5
BRANCH   4  23
ATOM     23  O   UNL     1      16.049   2.914  23.746  0.00  0.00    -0.387 OA
ATOM     24  H   UNL     1      16.142   2.717  22.811  0.00  0.00    +0.210 HD
ENDBRANCH   4  23
ENDBRANCH   1   4
BRANCH   1  25
ATOM     25  C   UNL     1      16.429   0.420  26.520  0.00  0.00    +0.141 C 
BRANCH  25  28
ATOM     26  C   UNL     1      17.255  -1.734  25.635  0.00  0.00    +0.401 C 
ATOM     27  O   UNL     1      18.002  -1.948  26.592  0.00  0.00    -0.226 OA
ATOM     28  N   UNL     1      16.488  -0.649  25.516  0.00  0.00    -0.279 N 
ATOM     29  H   UNL     1      15.915  -0.558  24.689  0.00  0.00    +0.152 HD
BRANCH  26  30
ATOM     30  O   UNL     1      17.193  -2.690  24.574  0.00  0.00    -0.444 OA
BRANCH  30  31
ATOM     31  C   UNL     1      15.909  -2.628  23.947  0.00  0.00    +0.292 C 
BRANCH  31  33
ATOM     32  N   UNL     1      15.511  -4.211  22.088  0.00  0.00    -0.131 NA
ATOM     33  C   UNL     1      15.525  -3.957  23.433  0.00  0.00    +0.120 A 
ATOM     34  C   UNL     1      15.139  -5.092  24.110  0.00  0.00    +0.138 A 
ATOM     35  N   UNL     1      14.919  -6.006  23.121  0.00  0.00    -0.238 N 
ATOM     36  N   UNL     1      15.123  -5.465  21.908  0.00  0.00    -0.065 NA
BRANCH  35  37
ATOM     37  C   UNL     1      14.489  -7.388  23.216  0.00  0.00    +0.214 C 
ATOM     38  C   UNL     1      13.066  -7.555  22.690  0.00  0.00    +0.045 C 
BRANCH  37  39
ATOM     39  C   UNL     1      15.465  -8.321  22.530  0.00  0.00    +0.329 C 
ATOM     40  O   UNL     1      15.142  -9.323  21.905  0.00  0.00    -0.249 OA
BRANCH  39  41
ATOM     41  O   UNL     1      16.768  -7.978  22.682  0.00  0.00    -0.479 OA
ATOM     42  H   UNL     1      17.387  -8.357  22.024  0.00  0.00    +0.295 HD
ENDBRANCH  39  41
ENDBRANCH  37  39
ENDBRANCH  35  37
ENDBRANCH  31  33
ENDBRANCH  30  31
ENDBRANCH  26  30
ENDBRANCH  25  28
ENDBRANCH   1  25
TORSDOF 16
