REMARK VINA RESULT:    -6.188     12.488     16.341
REMARK INTER + INTRA:         -13.335
REMARK INTER:                 -11.419
REMARK INTRA:                  -1.916
REMARK UNBOUND:                -2.083
REMARK  Name = lig_assembled_35.pdb
REMARK  19 active torsions:
REMARK  status: ('A' for Active; 'I' for Inactive)
REMARK    1  A    between atoms: _2  and  _9
REMARK    2  A    between atoms: _4  and  _17
REMARK    3  A    between atoms: _5  and  _9
REMARK    4  A    between atoms: _5  and  _11
REMARK    5  A    between atoms: _6  and  _7
REMARK    6  A    between atoms: _6  and  _17
REMARK    7  A    between atoms: _9  and  _10
REMARK    8  A    between atoms: _13  and  _33
REMARK    9  A    between atoms: _15  and  _21
REMARK   10  A    between atoms: _16  and  _20
REMARK   11  A    between atoms: _20  and  _21
REMARK   12  A    between atoms: _23  and  _24
REMARK   13  A    between atoms: _25  and  _26
REMARK   14  A    between atoms: _27  and  _29
REMARK   15  A    between atoms: _29  and  _30
REMARK   16  A    between atoms: _29  and  _31
REMARK   17  A    between atoms: _31  and  _32
REMARK   18  A    between atoms: _31  and  _33
REMARK   19  A    between atoms: _34  and  _36
REMARK                            x       y       z     vdW  Elec       q    Type
REMARK                         _______ _______ _______ _____ _____    ______ ____
ROOT
ATOM      1  C   UNL     1       9.929   3.017  34.922  0.00  0.00    +0.163 C 
ENDROOT
BRANCH   1   2
ATOM      2  O   UNL     1       9.716   2.111  33.827  0.00  0.00    -0.388 OA
ATOM      3  H   UNL     1      10.497   2.092  33.269  0.00  0.00    +0.210 HD
ENDBRANCH   1   2
BRANCH   1   4
ATOM      4  C   UNL     1       8.657   3.157  35.776  0.00  0.00    +0.175 C 
BRANCH   4   5
ATOM      5  C   UNL     1       7.830   4.389  35.383  0.00  0.00    +0.176 C 
ATOM      6  O   UNL     1       7.556   5.149  36.592  0.00  0.00    -0.332 OA
ATOM      7  C   UNL     1       6.861   6.424  36.397  0.00  0.00    +0.277 C 
ATOM      8  C   UNL     1       5.547   6.208  35.606  0.00  0.00    +0.110 C 
ATOM      9  C   UNL     1       5.783   5.378  34.326  0.00  0.00    +0.143 C 
ATOM     10  C   UNL     1       6.515   4.075  34.645  0.00  0.00    +0.133 C 
BRANCH  10  11
ATOM     11  N   UNL     1       6.810   3.334  33.409  0.00  0.00    -0.308 N 
ATOM     12  H   UNL     1       7.420   3.770  32.732  0.00  0.00    +0.149 HD
ATOM     13  C   UNL     1       6.325   2.122  33.123  0.00  0.00    +0.210 C 
ATOM     14  C   UNL     1       5.378   1.496  34.163  0.00  0.00    +0.109 C 
ATOM     15  O   UNL     1       6.602   1.519  32.085  0.00  0.00    -0.276 OA
ENDBRANCH  10  11
BRANCH   7  16
ATOM     16  C   UNL     1       7.758   7.426  35.642  0.00  0.00    +0.414 C 
ATOM     17  O   UNL     1       7.292   8.117  34.736  0.00  0.00    -0.240 OA
ATOM     18  O   UNL     1       8.948   7.545  35.938  0.00  0.00    -0.240 OA
ENDBRANCH   7  16
BRANCH   7  19
ATOM     19  O   UNL     1       6.525   6.958  37.703  0.00  0.00    -0.343 OA
ATOM     20  C   UNL     1       5.546   6.188  38.446  0.00  0.00    +0.198 C 
ENDBRANCH   7  19
BRANCH   9  21
ATOM     21  O   UNL     1       4.530   5.076  33.711  0.00  0.00    -0.390 OA
ATOM     22  H   UNL     1       4.537   5.382  32.801  0.00  0.00    +0.210 HD
ENDBRANCH   9  21
ENDBRANCH   4   5
BRANCH   4  23
ATOM     23  O   UNL     1       9.002   3.215  37.174  0.00  0.00    -0.387 OA
ATOM     24  H   UNL     1       8.227   3.460  37.685  0.00  0.00    +0.210 HD
ENDBRANCH   4  23
ENDBRANCH   1   4
BRANCH   1  25
ATOM     25  C   UNL     1      11.077   2.520  35.794  0.00  0.00    +0.141 C 
BRANCH  25  28
ATOM     26  C   UNL     1      13.188   3.713  35.322  0.00  0.00    +0.401 C 
ATOM     27  O   UNL     1      13.507   2.974  34.387  0.00  0.00    -0.226 OA
ATOM     28  N   UNL     1      12.073   3.570  36.039  0.00  0.00    -0.279 N 
ATOM     29  H   UNL     1      11.904   4.221  36.793  0.00  0.00    +0.152 HD
BRANCH  26  30
ATOM     30  O   UNL     1      14.055   4.793  35.679  0.00  0.00    -0.444 OA
BRANCH  30  31
ATOM     31  C   UNL     1      15.214   4.772  34.842  0.00  0.00    +0.292 C 
BRANCH  31  33
ATOM     32  N   UNL     1      15.280   6.454  33.028  0.00  0.00    -0.131 NA
ATOM     33  C   UNL     1      15.506   6.128  34.338  0.00  0.00    +0.120 A 
ATOM     34  C   UNL     1      16.014   7.228  34.994  0.00  0.00    +0.138 A 
ATOM     35  N   UNL     1      16.057   8.194  34.032  0.00  0.00    -0.238 N 
ATOM     36  N   UNL     1      15.636   7.718  32.848  0.00  0.00    -0.065 NA
BRANCH  35  37
ATOM     37  C   UNL     1      16.504   9.571  34.121  0.00  0.00    +0.214 C 
ATOM     38  C   UNL     1      18.016   9.667  33.945  0.00  0.00    +0.045 C 
BRANCH  37  39
ATOM     39  C   UNL     1      15.758  10.461  33.149  0.00  0.00    +0.329 C 
ATOM     40  O   UNL     1      16.277  11.042  32.205  0.00  0.00    -0.249 OA
BRANCH  39  41
ATOM     41  O   UNL     1      14.435  10.598  33.417  0.00  0.00    -0.479 OA
ATOM     42  H   UNL     1      14.210  11.224  34.135  0.00  0.00    +0.295 HD
ENDBRANCH  39  41
ENDBRANCH  37  39
ENDBRANCH  35  37
ENDBRANCH  31  33
ENDBRANCH  30  31
ENDBRANCH  26  30
ENDBRANCH  25  28
ENDBRANCH   1  25
TORSDOF 16
