REMARK VINA RESULT:    -5.891      2.496      3.571
REMARK INTER + INTRA:         -12.387
REMARK INTER:                 -10.974
REMARK INTRA:                  -1.413
REMARK UNBOUND:                -2.191
REMARK  Name = lig_assembled_48.pdb
REMARK  16 active torsions:
REMARK  status: ('A' for Active; 'I' for Inactive)
REMARK    1  A    between atoms: _2  and  _9
REMARK    2  A    between atoms: _4  and  _18
REMARK    3  A    between atoms: _6  and  _7
REMARK    4  A    between atoms: _6  and  _18
REMARK    5  A    between atoms: _14  and  _34
REMARK    6  A    between atoms: _16  and  _22
REMARK    7  A    between atoms: _17  and  _21
REMARK    8  A    between atoms: _21  and  _22
REMARK    9  A    between atoms: _24  and  _25
REMARK   10  A    between atoms: _26  and  _27
REMARK   11  A    between atoms: _28  and  _30
REMARK   12  A    between atoms: _30  and  _31
REMARK   13  A    between atoms: _30  and  _32
REMARK   14  A    between atoms: _32  and  _33
REMARK   15  A    between atoms: _32  and  _34
REMARK   16  A    between atoms: _35  and  _37
REMARK                            x       y       z     vdW  Elec       q    Type
REMARK                         _______ _______ _______ _____ _____    ______ ____
ROOT
ATOM      1  C   UNL     1       6.731   2.559  33.435  0.00  0.00    +0.163 C 
ENDROOT
BRANCH   1   2
ATOM      2  O   UNL     1       6.629   2.235  32.039  0.00  0.00    -0.388 OA
ATOM      3  H   UNL     1       6.937   1.337  31.894  0.00  0.00    +0.210 HD
ENDBRANCH   1   2
BRANCH   1   4
ATOM      4  C   UNL     1       5.406   3.120  33.939  0.00  0.00    +0.141 C 
BRANCH   4   7
ATOM      5  C   UNL     1       3.216   3.799  33.018  0.00  0.00    +0.401 C 
ATOM      6  O   UNL     1       2.696   3.965  34.123  0.00  0.00    -0.226 OA
ATOM      7  N   UNL     1       4.475   3.400  32.838  0.00  0.00    -0.279 N 
ATOM      8  H   UNL     1       4.808   3.283  31.891  0.00  0.00    +0.152 HD
BRANCH   5   9
ATOM      9  O   UNL     1       2.438   4.040  31.842  0.00  0.00    -0.444 OA
BRANCH   9  10
ATOM     10  C   UNL     1       2.664   2.991  30.897  0.00  0.00    +0.292 C 
BRANCH  10  12
ATOM     11  N   UNL     1       0.833   4.149  29.709  0.00  0.00    -0.131 NA
ATOM     12  C   UNL     1       1.727   3.118  29.765  0.00  0.00    +0.120 A 
ATOM     13  C   UNL     1       1.584   2.335  28.641  0.00  0.00    +0.137 A 
ATOM     14  N   UNL     1       0.654   2.993  27.892  0.00  0.00    -0.248 N 
ATOM     15  N   UNL     1       0.153   4.043  28.577  0.00  0.00    -0.065 NA
BRANCH  14  16
ATOM     16  C   UNL     1       0.201   2.767  26.524  0.00  0.00    +0.109 C 
ATOM     17  C   UNL     1       0.606   3.937  25.607  0.00  0.00    +0.027 C 
ATOM     18  C   UNL     1       2.107   3.934  25.328  0.00  0.00    +0.002 C 
ATOM     19  C   UNL     1       2.532   2.635  24.653  0.00  0.00    +0.000 C 
ATOM     20  C   UNL     1       2.109   1.400  25.444  0.00  0.00    +0.002 C 
ATOM     21  C   UNL     1       0.640   1.436  25.883  0.00  0.00    +0.027 C 
ENDBRANCH  14  16
ENDBRANCH  10  12
ENDBRANCH   9  10
ENDBRANCH   5   9
ENDBRANCH   4   7
ENDBRANCH   1   4
BRANCH   1  22
ATOM     22  C   UNL     1       7.850   3.586  33.680  0.00  0.00    +0.175 C 
BRANCH  22  23
ATOM     23  C   UNL     1       7.759   4.218  35.077  0.00  0.00    +0.176 C 
ATOM     24  O   UNL     1       7.653   5.659  34.910  0.00  0.00    -0.332 OA
ATOM     25  C   UNL     1       7.449   6.427  36.142  0.00  0.00    +0.277 C 
ATOM     26  C   UNL     1       8.557   6.099  37.173  0.00  0.00    +0.110 C 
ATOM     27  C   UNL     1       8.728   4.577  37.361  0.00  0.00    +0.143 C 
ATOM     28  C   UNL     1       8.930   3.877  36.016  0.00  0.00    +0.133 C 
BRANCH  28  29
ATOM     29  N   UNL     1       9.005   2.419  36.200  0.00  0.00    -0.308 N 
ATOM     30  H   UNL     1       8.221   1.959  36.642  0.00  0.00    +0.149 HD
ATOM     31  C   UNL     1      10.040   1.665  35.822  0.00  0.00    +0.210 C 
ATOM     32  C   UNL     1      11.229   2.400  35.176  0.00  0.00    +0.109 C 
ATOM     33  O   UNL     1      10.069   0.443  35.975  0.00  0.00    -0.276 OA
ENDBRANCH  28  29
BRANCH  25  34
ATOM     34  C   UNL     1       6.067   6.120  36.755  0.00  0.00    +0.414 C 
ATOM     35  O   UNL     1       5.917   6.118  37.976  0.00  0.00    -0.240 OA
ATOM     36  O   UNL     1       5.103   5.876  36.029  0.00  0.00    -0.240 OA
ENDBRANCH  25  34
BRANCH  27  37
ATOM     37  O   UNL     1       9.854   4.319  38.200  0.00  0.00    -0.390 OA
ATOM     38  H   UNL     1       9.679   3.546  38.743  0.00  0.00    +0.210 HD
ENDBRANCH  27  37
BRANCH  25  39
ATOM     39  O   UNL     1       7.535   7.837  35.811  0.00  0.00    -0.343 OA
ATOM     40  C   UNL     1       7.449   8.140  34.396  0.00  0.00    +0.198 C 
ENDBRANCH  25  39
ENDBRANCH  22  23
BRANCH  22  41
ATOM     41  O   UNL     1       7.814   4.612  32.668  0.00  0.00    -0.387 OA
ATOM     42  H   UNL     1       8.679   4.687  32.257  0.00  0.00    +0.210 HD
ENDBRANCH  22  41
ENDBRANCH   1  22
TORSDOF 14
