REMARK VINA RESULT:    -5.774     18.030     21.038
REMARK INTER + INTRA:         -13.646
REMARK INTER:                 -11.134
REMARK INTRA:                  -2.512
REMARK UNBOUND:                -2.640
REMARK  Name = lig_assembled_29.pdb
REMARK  21 active torsions:
REMARK  status: ('A' for Active; 'I' for Inactive)
REMARK    1  A    between atoms: _2  and  _9
REMARK    2  A    between atoms: _4  and  _23
REMARK    3  A    between atoms: _6  and  _7
REMARK    4  A    between atoms: _6  and  _23
REMARK    5  A    between atoms: _9  and  _10
REMARK    6  A    between atoms: _12  and  _18
REMARK    7  A    between atoms: _13  and  _18
REMARK    8  A    between atoms: _14  and  _17
REMARK    9  A    between atoms: _15  and  _17
REMARK   10  A    between atoms: _19  and  _39
REMARK   11  A    between atoms: _21  and  _27
REMARK   12  A    between atoms: _22  and  _26
REMARK   13  A    between atoms: _26  and  _27
REMARK   14  A    between atoms: _29  and  _30
REMARK   15  A    between atoms: _31  and  _32
REMARK   16  A    between atoms: _33  and  _35
REMARK   17  A    between atoms: _35  and  _36
REMARK   18  A    between atoms: _35  and  _37
REMARK   19  A    between atoms: _37  and  _38
REMARK   20  A    between atoms: _37  and  _39
REMARK   21  A    between atoms: _40  and  _42
REMARK                            x       y       z     vdW  Elec       q    Type
REMARK                         _______ _______ _______ _____ _____    ______ ____
ROOT
ATOM      1  C   UNL     1      17.134   3.423  23.012  0.00  0.00    +0.163 C 
ENDROOT
BRANCH   1   2
ATOM      2  O   UNL     1      15.904   2.911  23.551  0.00  0.00    -0.388 OA
ATOM      3  H   UNL     1      15.179   3.135  22.962  0.00  0.00    +0.210 HD
ENDBRANCH   1   2
BRANCH   1   4
ATOM      4  C   UNL     1      18.326   3.052  23.912  0.00  0.00    +0.175 C 
BRANCH   4   5
ATOM      5  C   UNL     1      18.403   3.940  25.163  0.00  0.00    +0.176 C 
ATOM      6  O   UNL     1      19.690   4.616  25.153  0.00  0.00    -0.332 OA
ATOM      7  C   UNL     1      19.901   5.593  26.225  0.00  0.00    +0.277 C 
ATOM      8  C   UNL     1      19.664   4.939  27.608  0.00  0.00    +0.110 C 
ATOM      9  C   UNL     1      18.321   4.181  27.657  0.00  0.00    +0.143 C 
ATOM     10  C   UNL     1      18.206   3.193  26.496  0.00  0.00    +0.133 C 
BRANCH  10  11
ATOM     11  N   UNL     1      16.887   2.540  26.503  0.00  0.00    -0.308 N 
ATOM     12  H   UNL     1      16.069   3.129  26.437  0.00  0.00    +0.149 HD
ATOM     13  C   UNL     1      16.701   1.221  26.592  0.00  0.00    +0.210 C 
ATOM     14  C   UNL     1      17.967   0.353  26.717  0.00  0.00    +0.109 C 
ATOM     15  O   UNL     1      15.585   0.701  26.581  0.00  0.00    -0.276 OA
ENDBRANCH  10  11
BRANCH   7  16
ATOM     16  C   UNL     1      18.956   6.801  26.057  0.00  0.00    +0.414 C 
ATOM     17  O   UNL     1      18.768   7.577  26.994  0.00  0.00    -0.240 OA
ATOM     18  O   UNL     1      18.382   7.001  24.986  0.00  0.00    -0.240 OA
ENDBRANCH   7  16
BRANCH   7  19
ATOM     19  O   UNL     1      21.280   6.040  26.160  0.00  0.00    -0.343 OA
ATOM     20  C   UNL     1      22.270   4.983  26.237  0.00  0.00    +0.198 C 
ENDBRANCH   7  19
BRANCH   9  21
ATOM     21  O   UNL     1      18.213   3.471  28.892  0.00  0.00    -0.390 OA
ATOM     22  H   UNL     1      18.151   4.096  29.617  0.00  0.00    +0.210 HD
ENDBRANCH   9  21
ENDBRANCH   4   5
BRANCH   4  23
ATOM     23  O   UNL     1      19.557   3.136  23.167  0.00  0.00    -0.387 OA
ATOM     24  H   UNL     1      19.386   2.939  22.243  0.00  0.00    +0.210 HD
ENDBRANCH   4  23
ENDBRANCH   1   4
BRANCH   1  25
ATOM     25  C   UNL     1      17.362   2.866  21.611  0.00  0.00    +0.141 C 
BRANCH  25  28
ATOM     26  C   UNL     1      18.604   0.788  21.111  0.00  0.00    +0.401 C 
ATOM     27  O   UNL     1      19.543   1.370  20.564  0.00  0.00    -0.226 OA
ATOM     28  N   UNL     1      17.540   1.408  21.623  0.00  0.00    -0.279 N 
ATOM     29  H   UNL     1      16.815   0.843  22.044  0.00  0.00    +0.152 HD
BRANCH  26  30
ATOM     30  O   UNL     1      18.633  -0.638  21.211  0.00  0.00    -0.444 OA
BRANCH  30  31
ATOM     31  C   UNL     1      19.250  -1.018  22.443  0.00  0.00    +0.292 C 
BRANCH  31  33
ATOM     32  N   UNL     1      17.499  -2.774  22.401  0.00  0.00    -0.131 NA
ATOM     33  C   UNL     1      18.520  -2.141  23.060  0.00  0.00    +0.120 A 
ATOM     34  C   UNL     1      18.708  -2.746  24.283  0.00  0.00    +0.137 A 
ATOM     35  N   UNL     1      17.836  -3.795  24.266  0.00  0.00    -0.247 N 
ATOM     36  N   UNL     1      17.079  -3.782  23.155  0.00  0.00    -0.065 NA
BRANCH  35  37
ATOM     37  C   UNL     1      17.705  -4.865  25.238  0.00  0.00    +0.180 C 
BRANCH  37  38
ATOM     38  C   UNL     1      16.335  -4.844  25.879  0.00  0.00    -0.022 A 
ATOM     39  C   UNL     1      15.448  -5.916  25.685  0.00  0.00    +0.054 A 
ATOM     40  C   UNL     1      14.206  -5.946  26.337  0.00  0.00    +0.162 A 
ATOM     41  C   UNL     1      13.842  -4.884  27.189  0.00  0.00    +0.162 A 
ATOM     42  C   UNL     1      14.726  -3.819  27.379  0.00  0.00    +0.050 A 
ATOM     43  C   UNL     1      15.962  -3.798  26.728  0.00  0.00    +0.009 A 
BRANCH  40  44
ATOM     44  O   UNL     1      13.294  -6.966  26.217  0.00  0.00    -0.491 OA
ATOM     45  C   UNL     1      13.355  -7.776  25.052  0.00  0.00    +0.277 C 
ENDBRANCH  40  44
BRANCH  41  46
ATOM     46  O   UNL     1      12.608  -4.984  27.785  0.00  0.00    -0.491 OA
ATOM     47  C   UNL     1      12.568  -5.302  29.169  0.00  0.00    +0.277 C 
ENDBRANCH  41  46
ENDBRANCH  37  38
ENDBRANCH  35  37
ENDBRANCH  31  33
ENDBRANCH  30  31
ENDBRANCH  26  30
ENDBRANCH  25  28
ENDBRANCH   1  25
TORSDOF 17
