REMARK VINA RESULT:    -5.936     14.710     17.227
REMARK INTER + INTRA:         -14.046
REMARK INTER:                 -10.649
REMARK INTRA:                  -3.397
REMARK UNBOUND:                -2.036
REMARK  Name = lig_assembled_45.pdb
REMARK  24 active torsions:
REMARK  status: ('A' for Active; 'I' for Inactive)
REMARK    1  A    between atoms: _2  and  _10
REMARK    2  A    between atoms: _3  and  _12
REMARK    3  A    between atoms: _3  and  _13
REMARK    4  A    between atoms: _3  and  _14
REMARK    5  A    between atoms: _3  and  _16
REMARK    6  A    between atoms: _5  and  _21
REMARK    7  A    between atoms: _6  and  _16
REMARK    8  A    between atoms: _7  and  _8
REMARK    9  A    between atoms: _7  and  _21
REMARK   10  A    between atoms: _10  and  _11
REMARK   11  A    between atoms: _11  and  _12
REMARK   12  A    between atoms: _14  and  _15
REMARK   13  A    between atoms: _17  and  _37
REMARK   14  A    between atoms: _19  and  _25
REMARK   15  A    between atoms: _20  and  _24
REMARK   16  A    between atoms: _24  and  _25
REMARK   17  A    between atoms: _27  and  _28
REMARK   18  A    between atoms: _29  and  _30
REMARK   19  A    between atoms: _31  and  _33
REMARK   20  A    between atoms: _33  and  _34
REMARK   21  A    between atoms: _33  and  _35
REMARK   22  A    between atoms: _35  and  _36
REMARK   23  A    between atoms: _35  and  _37
REMARK   24  A    between atoms: _38  and  _40
REMARK                            x       y       z     vdW  Elec       q    Type
REMARK                         _______ _______ _______ _____ _____    ______ ____
ROOT
ATOM      1  C   UNL     1      16.996   3.681  22.760  0.00  0.00    +0.163 C 
ENDROOT
BRANCH   1   2
ATOM      2  O   UNL     1      16.014   3.023  23.577  0.00  0.00    -0.388 OA
ATOM      3  H   UNL     1      15.229   2.845  23.054  0.00  0.00    +0.210 HD
ENDBRANCH   1   2
BRANCH   1   4
ATOM      4  C   UNL     1      18.308   3.888  23.536  0.00  0.00    +0.175 C 
BRANCH   4   5
ATOM      5  C   UNL     1      18.496   2.840  24.643  0.00  0.00    +0.176 C 
ATOM      6  O   UNL     1      17.866   3.348  25.851  0.00  0.00    -0.332 OA
ATOM      7  C   UNL     1      17.854   2.430  26.993  0.00  0.00    +0.277 C 
ATOM      8  C   UNL     1      19.289   1.947  27.315  0.00  0.00    +0.110 C 
ATOM      9  C   UNL     1      20.011   1.427  26.054  0.00  0.00    +0.143 C 
ATOM     10  C   UNL     1      19.961   2.460  24.928  0.00  0.00    +0.133 C 
BRANCH  10  11
ATOM     11  N   UNL     1      20.576   1.920  23.705  0.00  0.00    -0.308 N 
ATOM     12  H   UNL     1      20.142   1.114  23.276  0.00  0.00    +0.149 HD
ATOM     13  C   UNL     1      21.669   2.423  23.126  0.00  0.00    +0.210 C 
ATOM     14  C   UNL     1      22.321   3.634  23.820  0.00  0.00    +0.109 C 
ATOM     15  O   UNL     1      22.153   1.959  22.094  0.00  0.00    -0.276 OA
ENDBRANCH  10  11
BRANCH   7  16
ATOM     16  C   UNL     1      16.952   1.211  26.706  0.00  0.00    +0.414 C 
ATOM     17  O   UNL     1      17.262   0.098  27.127  0.00  0.00    -0.240 OA
ATOM     18  O   UNL     1      15.916   1.342  26.054  0.00  0.00    -0.240 OA
ENDBRANCH   7  16
BRANCH   9  19
ATOM     19  O   UNL     1      21.374   1.136  26.365  0.00  0.00    -0.390 OA
ATOM     20  H   UNL     1      21.460   0.972  27.307  0.00  0.00    +0.210 HD
ENDBRANCH   9  19
BRANCH   7  21
ATOM     21  O   UNL     1      17.345   3.153  28.144  0.00  0.00    -0.343 OA
ATOM     22  C   UNL     1      18.355   3.580  29.093  0.00  0.00    +0.198 C 
ENDBRANCH   7  21
ENDBRANCH   4   5
BRANCH   4  23
ATOM     23  O   UNL     1      18.350   5.216  24.096  0.00  0.00    -0.387 OA
ATOM     24  H   UNL     1      17.573   5.706  23.816  0.00  0.00    +0.210 HD
ENDBRANCH   4  23
ENDBRANCH   1   4
BRANCH   1  25
ATOM     25  C   UNL     1      17.269   2.857  21.506  0.00  0.00    +0.141 C 
BRANCH  25  28
ATOM     26  C   UNL     1      18.477   0.704  21.393  0.00  0.00    +0.401 C 
ATOM     27  O   UNL     1      19.390   1.145  20.692  0.00  0.00    -0.226 OA
ATOM     28  N   UNL     1      17.443   1.432  21.815  0.00  0.00    -0.279 N 
ATOM     29  H   UNL     1      16.738   0.978  22.379  0.00  0.00    +0.152 HD
BRANCH  26  30
ATOM     30  O   UNL     1      18.506  -0.670  21.788  0.00  0.00    -0.444 OA
BRANCH  30  31
ATOM     31  C   UNL     1      18.251  -0.770  23.191  0.00  0.00    +0.292 C 
BRANCH  31  33
ATOM     32  N   UNL     1      16.061  -1.379  24.183  0.00  0.00    -0.131 NA
ATOM     33  C   UNL     1      17.160  -1.730  23.445  0.00  0.00    +0.120 A 
ATOM     34  C   UNL     1      17.032  -3.039  23.042  0.00  0.00    +0.137 A 
ATOM     35  N   UNL     1      15.835  -3.416  23.568  0.00  0.00    -0.251 N 
ATOM     36  N   UNL     1      15.254  -2.430  24.255  0.00  0.00    -0.065 NA
BRANCH  35  37
ATOM     37  C   UNL     1      15.203  -4.717  23.468  0.00  0.00    +0.150 C 
BRANCH  37  38
ATOM     38  C   UNL     1      15.801  -5.740  24.425  0.00  0.00    +0.074 C 
BRANCH  38  39
ATOM     39  C   UNL     1      15.062  -5.960  25.752  0.00  0.00    +0.134 C 
BRANCH  39  40
ATOM     40  N   UNL     1      15.652  -5.294  27.039  0.00  0.00    +0.241 N 
ATOM     41  C   UNL     1      14.854  -4.015  27.344  0.00  0.00    +0.192 C 
BRANCH  40  42
ATOM     42  C   UNL     1      17.120  -4.889  26.681  0.00  0.00    +0.129 C 
ATOM     43  C   UNL     1      17.449  -3.429  26.974  0.00  0.00    +0.060 C 
ENDBRANCH  40  42
BRANCH  40  44
ATOM     44  C   UNL     1      15.651  -6.193  28.289  0.00  0.00    +0.129 C 
ATOM     45  C   UNL     1      15.280  -7.641  28.017  0.00  0.00    +0.060 C 
ENDBRANCH  40  44
ENDBRANCH  39  40
ENDBRANCH  38  39
ENDBRANCH  37  38
ENDBRANCH  35  37
ENDBRANCH  31  33
ENDBRANCH  30  31
ENDBRANCH  26  30
ENDBRANCH  25  28
ENDBRANCH   1  25
TORSDOF 19
