REMARK VINA RESULT:    -5.087     15.179     18.099
REMARK INTER + INTRA:         -12.553
REMARK INTER:                 -10.784
REMARK INTRA:                  -1.769
REMARK UNBOUND:                -3.154
REMARK  Name = lig_assembled_67.pdb
REMARK  18 active torsions:
REMARK  status: ('A' for Active; 'I' for Inactive)
REMARK    1  A    between atoms: _2  and  _9
REMARK    2  A    between atoms: _4  and  _19
REMARK    3  A    between atoms: _6  and  _7
REMARK    4  A    between atoms: _6  and  _19
REMARK    5  A    between atoms: _9  and  _10
REMARK    6  A    between atoms: _10  and  _11
REMARK    7  A    between atoms: _15  and  _35
REMARK    8  A    between atoms: _17  and  _23
REMARK    9  A    between atoms: _18  and  _22
REMARK   10  A    between atoms: _22  and  _23
REMARK   11  A    between atoms: _25  and  _26
REMARK   12  A    between atoms: _27  and  _28
REMARK   13  A    between atoms: _29  and  _31
REMARK   14  A    between atoms: _31  and  _32
REMARK   15  A    between atoms: _31  and  _33
REMARK   16  A    between atoms: _33  and  _34
REMARK   17  A    between atoms: _33  and  _35
REMARK   18  A    between atoms: _36  and  _38
REMARK                            x       y       z     vdW  Elec       q    Type
REMARK                         _______ _______ _______ _____ _____    ______ ____
ROOT
ATOM      1  C   UNL     1      17.240   1.937  24.927  0.00  0.00    +0.163 C 
ENDROOT
BRANCH   1   2
ATOM      2  O   UNL     1      15.982   1.262  25.089  0.00  0.00    -0.388 OA
ATOM      3  H   UNL     1      15.869   0.621  24.383  0.00  0.00    +0.210 HD
ENDBRANCH   1   2
BRANCH   1   4
ATOM      4  C   UNL     1      18.410   0.938  24.962  0.00  0.00    +0.175 C 
BRANCH   4   5
ATOM      5  C   UNL     1      18.051  -0.396  24.293  0.00  0.00    +0.176 C 
ATOM      6  O   UNL     1      17.653  -1.327  25.336  0.00  0.00    -0.332 OA
ATOM      7  C   UNL     1      17.171  -2.632  24.872  0.00  0.00    +0.277 C 
ATOM      8  C   UNL     1      18.220  -3.298  23.947  0.00  0.00    +0.110 C 
ATOM      9  C   UNL     1      18.697  -2.335  22.840  0.00  0.00    +0.143 C 
ATOM     10  C   UNL     1      19.173  -1.009  23.434  0.00  0.00    +0.133 C 
BRANCH  10  11
ATOM     11  N   UNL     1      19.543  -0.068  22.365  0.00  0.00    -0.308 N 
ATOM     12  H   UNL     1      18.865   0.108  21.637  0.00  0.00    +0.149 HD
ATOM     13  C   UNL     1      20.716   0.567  22.293  0.00  0.00    +0.210 C 
ATOM     14  C   UNL     1      21.737   0.256  23.404  0.00  0.00    +0.109 C 
ATOM     15  O   UNL     1      20.993   1.361  21.393  0.00  0.00    -0.276 OA
ENDBRANCH  10  11
BRANCH   7  16
ATOM     16  C   UNL     1      15.836  -2.483  24.114  0.00  0.00    +0.414 C 
ATOM     17  O   UNL     1      15.109  -1.513  24.323  0.00  0.00    -0.240 OA
ATOM     18  O   UNL     1      15.486  -3.333  23.294  0.00  0.00    -0.240 OA
ENDBRANCH   7  16
BRANCH   9  19
ATOM     19  O   UNL     1      19.767  -2.934  22.108  0.00  0.00    -0.390 OA
ATOM     20  H   UNL     1      19.474  -3.131  21.216  0.00  0.00    +0.210 HD
ENDBRANCH   9  19
BRANCH   7  21
ATOM     21  O   UNL     1      16.982  -3.480  26.034  0.00  0.00    -0.343 OA
ATOM     22  C   UNL     1      17.463  -4.839  25.885  0.00  0.00    +0.198 C 
ENDBRANCH   7  21
ENDBRANCH   4   5
BRANCH   4  23
ATOM     23  O   UNL     1      18.830   0.714  26.323  0.00  0.00    -0.387 OA
ATOM     24  H   UNL     1      18.407  -0.078  26.663  0.00  0.00    +0.210 HD
ENDBRANCH   4  23
ENDBRANCH   1   4
BRANCH   1  25
ATOM     25  C   UNL     1      17.258   2.696  23.604  0.00  0.00    +0.141 C 
BRANCH  25  28
ATOM     26  C   UNL     1      17.579   5.062  22.969  0.00  0.00    +0.401 C 
ATOM     27  O   UNL     1      16.749   5.028  22.057  0.00  0.00    -0.226 OA
ATOM     28  N   UNL     1      17.884   4.017  23.738  0.00  0.00    -0.279 N 
ATOM     29  H   UNL     1      18.586   4.141  24.455  0.00  0.00    +0.152 HD
BRANCH  26  30
ATOM     30  O   UNL     1      18.271   6.285  23.232  0.00  0.00    -0.444 OA
BRANCH  30  31
ATOM     31  C   UNL     1      19.365   6.034  24.117  0.00  0.00    +0.292 C 
BRANCH  31  33
ATOM     32  N   UNL     1      20.722   7.582  25.491  0.00  0.00    -0.131 NA
ATOM     33  C   UNL     1      19.489   7.122  25.105  0.00  0.00    +0.120 A 
ATOM     34  C   UNL     1      18.517   7.828  25.776  0.00  0.00    +0.137 A 
ATOM     35  N   UNL     1      19.219   8.697  26.554  0.00  0.00    -0.251 N 
ATOM     36  N   UNL     1      20.543   8.546  26.384  0.00  0.00    -0.065 NA
BRANCH  35  37
ATOM     37  C   UNL     1      18.709   9.697  27.465  0.00  0.00    +0.150 C 
BRANCH  37  38
ATOM     38  C   UNL     1      18.950   9.365  28.936  0.00  0.00    +0.084 C 
BRANCH  38  39
ATOM     39  C   UNL     1      18.227  10.320  29.874  0.00  0.00    +0.252 C 
ATOM     40  O   UNL     1      17.461   9.584  30.834  0.00  0.00    -0.349 OA
ATOM     41  C   UNL     1      17.444  10.448  31.968  0.00  0.00    +0.191 C 
ATOM     42  C   UNL     1      18.812  11.080  31.944  0.00  0.00    +0.191 C 
ATOM     43  O   UNL     1      19.167  11.153  30.562  0.00  0.00    -0.349 OA
ENDBRANCH  38  39
ENDBRANCH  37  38
ENDBRANCH  35  37
ENDBRANCH  31  33
ENDBRANCH  30  31
ENDBRANCH  26  30
ENDBRANCH  25  28
ENDBRANCH   1  25
TORSDOF 16
