REMARK VINA RESULT:    -6.017     14.108     17.976
REMARK INTER + INTRA:         -14.038
REMARK INTER:                 -11.399
REMARK INTRA:                  -2.639
REMARK UNBOUND:                -2.569
REMARK  Name = lig_assembled_18.pdb
REMARK  19 active torsions:
REMARK  status: ('A' for Active; 'I' for Inactive)
REMARK    1  A    between atoms: _2  and  _10
REMARK    2  A    between atoms: _3  and  _12
REMARK    3  A    between atoms: _5  and  _21
REMARK    4  A    between atoms: _7  and  _8
REMARK    5  A    between atoms: _7  and  _21
REMARK    6  A    between atoms: _10  and  _11
REMARK    7  A    between atoms: _12  and  _13
REMARK    8  A    between atoms: _17  and  _37
REMARK    9  A    between atoms: _19  and  _25
REMARK   10  A    between atoms: _20  and  _24
REMARK   11  A    between atoms: _24  and  _25
REMARK   12  A    between atoms: _27  and  _28
REMARK   13  A    between atoms: _29  and  _30
REMARK   14  A    between atoms: _31  and  _33
REMARK   15  A    between atoms: _33  and  _34
REMARK   16  A    between atoms: _33  and  _35
REMARK   17  A    between atoms: _35  and  _36
REMARK   18  A    between atoms: _35  and  _37
REMARK   19  A    between atoms: _38  and  _40
REMARK                            x       y       z     vdW  Elec       q    Type
REMARK                         _______ _______ _______ _____ _____    ______ ____
ROOT
ATOM      1  C   UNL     1      16.734   0.988  26.413  0.00  0.00    +0.163 C 
ENDROOT
BRANCH   1   2
ATOM      2  O   UNL     1      16.219   2.121  25.694  0.00  0.00    -0.388 OA
ATOM      3  H   UNL     1      15.396   2.408  26.097  0.00  0.00    +0.210 HD
ENDBRANCH   1   2
BRANCH   1   4
ATOM      4  C   UNL     1      16.805  -0.252  25.505  0.00  0.00    +0.175 C 
BRANCH   4   5
ATOM      5  C   UNL     1      17.756  -0.046  24.317  0.00  0.00    +0.176 C 
ATOM      6  O   UNL     1      17.140   0.914  23.414  0.00  0.00    -0.332 OA
ATOM      7  C   UNL     1      17.957   1.317  22.265  0.00  0.00    +0.277 C 
ATOM      8  C   UNL     1      18.423   0.073  21.469  0.00  0.00    +0.110 C 
ATOM      9  C   UNL     1      19.056  -0.989  22.393  0.00  0.00    +0.143 C 
ATOM     10  C   UNL     1      18.123  -1.332  23.554  0.00  0.00    +0.133 C 
BRANCH  10  11
ATOM     11  N   UNL     1      18.772  -2.280  24.474  0.00  0.00    -0.308 N 
ATOM     12  H   UNL     1      19.602  -1.972  24.961  0.00  0.00    +0.149 HD
ATOM     13  C   UNL     1      18.336  -3.521  24.707  0.00  0.00    +0.210 C 
ATOM     14  C   UNL     1      17.084  -3.970  23.929  0.00  0.00    +0.109 C 
ATOM     15  O   UNL     1      18.892  -4.288  25.494  0.00  0.00    -0.276 OA
ENDBRANCH  10  11
BRANCH   7  16
ATOM     16  C   UNL     1      19.188   2.125  22.726  0.00  0.00    +0.414 C 
ATOM     17  O   UNL     1      20.306   1.858  22.286  0.00  0.00    -0.240 OA
ATOM     18  O   UNL     1      19.064   3.044  23.537  0.00  0.00    -0.240 OA
ENDBRANCH   7  16
BRANCH   7  19
ATOM     19  O   UNL     1      17.134   2.135  21.394  0.00  0.00    -0.343 OA
ATOM     20  C   UNL     1      17.079   1.695  20.014  0.00  0.00    +0.198 C 
ENDBRANCH   7  19
BRANCH   9  21
ATOM     21  O   UNL     1      19.332  -2.175  21.645  0.00  0.00    -0.390 OA
ATOM     22  H   UNL     1      19.823  -1.947  20.852  0.00  0.00    +0.210 HD
ENDBRANCH   9  21
ENDBRANCH   4   5
BRANCH   4  23
ATOM     23  O   UNL     1      15.488  -0.598  25.033  0.00  0.00    -0.387 OA
ATOM     24  H   UNL     1      15.558  -1.263  24.344  0.00  0.00    +0.210 HD
ENDBRANCH   4  23
ENDBRANCH   1   4
BRANCH   1  25
ATOM     25  C   UNL     1      18.124   1.303  26.955  0.00  0.00    +0.141 C 
BRANCH  25  28
ATOM     26  C   UNL     1      19.710   3.198  26.977  0.00  0.00    +0.401 C 
ATOM     27  O   UNL     1      20.459   2.684  27.811  0.00  0.00    -0.226 OA
ATOM     28  N   UNL     1      18.594   2.626  26.524  0.00  0.00    -0.279 N 
ATOM     29  H   UNL     1      18.039   3.130  25.847  0.00  0.00    +0.152 HD
BRANCH  26  30
ATOM     30  O   UNL     1      20.036   4.488  26.452  0.00  0.00    -0.444 OA
BRANCH  30  31
ATOM     31  C   UNL     1      18.863   5.306  26.432  0.00  0.00    +0.292 C 
BRANCH  31  33
ATOM     32  N   UNL     1      18.777   6.263  28.717  0.00  0.00    -0.131 NA
ATOM     33  C   UNL     1      19.005   6.430  27.377  0.00  0.00    +0.120 A 
ATOM     34  C   UNL     1      19.357   7.739  27.141  0.00  0.00    +0.137 A 
ATOM     35  N   UNL     1      19.354   8.312  28.379  0.00  0.00    -0.242 N 
ATOM     36  N   UNL     1      18.983   7.425  29.322  0.00  0.00    -0.065 NA
BRANCH  35  37
ATOM     37  C   UNL     1      19.568   9.694  28.733  0.00  0.00    +0.240 C 
BRANCH  37  38
ATOM     38  C   UNL     1      18.435  10.256  29.561  0.00  0.00    +0.235 C 
ATOM     39  O   UNL     1      17.445  10.774  29.049  0.00  0.00    -0.274 OA
ATOM     40  N   UNL     1      18.567  10.090  30.925  0.00  0.00    -0.309 N 
ATOM     41  H   UNL     1      19.455   9.815  31.320  0.00  0.00    +0.149 HD
BRANCH  40  42
ATOM     42  C   UNL     1      17.553  10.562  31.845  0.00  0.00    +0.146 C 
BRANCH  42  43
ATOM     43  C   UNL     1      16.938   9.400  32.555  0.00  0.00    +0.007 A 
ATOM     44  S   UNL     1      16.437   9.537  34.188  0.00  0.00    -0.100 S 
ATOM     45  C   UNL     1      15.957   7.896  34.246  0.00  0.00    +0.045 A 
ATOM     46  C   UNL     1      16.157   7.255  33.044  0.00  0.00    +0.008 A 
ATOM     47  C   UNL     1      16.716   8.126  32.065  0.00  0.00    +0.013 A 
ENDBRANCH  42  43
ENDBRANCH  40  42
ENDBRANCH  37  38
ENDBRANCH  35  37
ENDBRANCH  31  33
ENDBRANCH  30  31
ENDBRANCH  26  30
ENDBRANCH  25  28
ENDBRANCH   1  25
TORSDOF 17
