REMARK VINA RESULT:    -6.008      3.893     10.675
REMARK INTER + INTRA:         -14.046
REMARK INTER:                 -11.092
REMARK INTRA:                  -2.955
REMARK UNBOUND:                -2.243
REMARK  Name = lig_assembled_31.pdb
REMARK  20 active torsions:
REMARK  status: ('A' for Active; 'I' for Inactive)
REMARK    1  A    between atoms: _2  and  _11
REMARK    2  A    between atoms: _3  and  _12
REMARK    3  A    between atoms: _4  and  _14
REMARK    4  A    between atoms: _6  and  _24
REMARK    5  A    between atoms: _8  and  _9
REMARK    6  A    between atoms: _8  and  _24
REMARK    7  A    between atoms: _11  and  _12
REMARK    8  A    between atoms: _14  and  _15
REMARK    9  A    between atoms: _20  and  _40
REMARK   10  A    between atoms: _22  and  _28
REMARK   11  A    between atoms: _23  and  _27
REMARK   12  A    between atoms: _27  and  _28
REMARK   13  A    between atoms: _30  and  _31
REMARK   14  A    between atoms: _32  and  _33
REMARK   15  A    between atoms: _34  and  _36
REMARK   16  A    between atoms: _36  and  _37
REMARK   17  A    between atoms: _36  and  _38
REMARK   18  A    between atoms: _38  and  _39
REMARK   19  A    between atoms: _38  and  _40
REMARK   20  A    between atoms: _41  and  _43
REMARK                            x       y       z     vdW  Elec       q    Type
REMARK                         _______ _______ _______ _____ _____    ______ ____
ROOT
ATOM      1  C   UNL     1      19.907  11.843  28.601  0.00  0.00    +0.401 C 
ATOM      2  O   UNL     1      20.879  12.515  28.248  0.00  0.00    -0.226 OA
ATOM      3  N   UNL     1      19.654  11.507  29.867  0.00  0.00    -0.279 N 
ATOM      4  H   UNL     1      18.826  10.961  30.059  0.00  0.00    +0.152 HD
ENDROOT
BRANCH   1   5
ATOM      5  O   UNL     1      18.981  11.388  27.612  0.00  0.00    -0.444 OA
BRANCH   5   6
ATOM      6  C   UNL     1      19.694  10.772  26.536  0.00  0.00    +0.292 C 
BRANCH   6   8
ATOM      7  N   UNL     1      20.402   8.504  25.839  0.00  0.00    -0.131 NA
ATOM      8  C   UNL     1      19.671   9.302  26.678  0.00  0.00    +0.120 A 
ATOM      9  C   UNL     1      18.991   8.508  27.574  0.00  0.00    +0.137 A 
ATOM     10  N   UNL     1      19.344   7.240  27.221  0.00  0.00    -0.250 N 
ATOM     11  N   UNL     1      20.196   7.239  26.183  0.00  0.00    -0.065 NA
BRANCH  10  12
ATOM     12  C   UNL     1      18.912   5.992  27.817  0.00  0.00    +0.164 C 
BRANCH  12  13
ATOM     13  C   UNL     1      19.351   4.798  26.983  0.00  0.00    +0.129 C 
BRANCH  13  14
ATOM     14  N   UNL     1      18.440   4.443  25.902  0.00  0.00    -0.298 N 
ATOM     15  H   UNL     1      17.717   5.083  25.605  0.00  0.00    +0.150 HD
ATOM     16  C   UNL     1      18.287   3.118  25.590  0.00  0.00    +0.300 C 
ATOM     17  O   UNL     1      18.956   2.231  26.114  0.00  0.00    -0.253 OA
ATOM     18  N   UNL     1      17.352   2.871  24.633  0.00  0.00    -0.292 N 
ATOM     19  H   UNL     1      16.773   3.596  24.233  0.00  0.00    +0.151 HD
BRANCH  18  20
ATOM     20  C   UNL     1      17.121   1.503  24.230  0.00  0.00    +0.180 C 
BRANCH  20  21
ATOM     21  C   UNL     1      17.479   1.238  22.814  0.00  0.00    +0.122 A 
ATOM     22  O   UNL     1      17.112   2.142  21.856  0.00  0.00    -0.466 OA
ATOM     23  C   UNL     1      17.562   1.657  20.665  0.00  0.00    +0.195 A 
ATOM     24  C   UNL     1      18.209   0.456  20.842  0.00  0.00    +0.041 A 
ATOM     25  C   UNL     1      18.156   0.184  22.229  0.00  0.00    +0.046 A 
ENDBRANCH  20  21
ENDBRANCH  18  20
ENDBRANCH  13  14
ENDBRANCH  12  13
ENDBRANCH  10  12
ENDBRANCH   6   8
ENDBRANCH   5   6
ENDBRANCH   1   5
BRANCH   3  26
ATOM     26  C   UNL     1      20.510  11.887  30.997  0.00  0.00    +0.141 C 
BRANCH  26  27
ATOM     27  C   UNL     1      19.800  11.707  32.334  0.00  0.00    +0.163 C 
BRANCH  27  28
ATOM     28  O   UNL     1      18.395  11.970  32.184  0.00  0.00    -0.388 OA
ATOM     29  H   UNL     1      18.266  12.654  31.523  0.00  0.00    +0.210 HD
ENDBRANCH  27  28
BRANCH  27  30
ATOM     30  C   UNL     1      20.039  10.279  32.855  0.00  0.00    +0.175 C 
BRANCH  30  31
ATOM     31  C   UNL     1      18.809   9.380  32.661  0.00  0.00    +0.176 C 
ATOM     32  O   UNL     1      18.075   9.349  33.916  0.00  0.00    -0.332 OA
ATOM     33  C   UNL     1      16.804   8.618  33.890  0.00  0.00    +0.277 C 
ATOM     34  C   UNL     1      17.021   7.174  33.375  0.00  0.00    +0.110 C 
ATOM     35  C   UNL     1      17.825   7.154  32.058  0.00  0.00    +0.143 C 
ATOM     36  C   UNL     1      19.126   7.946  32.197  0.00  0.00    +0.133 C 
BRANCH  36  37
ATOM     37  N   UNL     1      19.841   7.992  30.911  0.00  0.00    -0.308 N 
ATOM     38  H   UNL     1      19.377   8.434  30.130  0.00  0.00    +0.149 HD
ATOM     39  C   UNL     1      21.062   7.489  30.711  0.00  0.00    +0.210 C 
ATOM     40  C   UNL     1      21.730   6.800  31.915  0.00  0.00    +0.109 C 
ATOM     41  O   UNL     1      21.642   7.556  29.627  0.00  0.00    -0.276 OA
ENDBRANCH  36  37
BRANCH  33  42
ATOM     42  C   UNL     1      15.778   9.338  32.990  0.00  0.00    +0.414 C 
ATOM     43  O   UNL     1      14.775   8.744  32.596  0.00  0.00    -0.240 OA
ATOM     44  O   UNL     1      15.953  10.511  32.658  0.00  0.00    -0.240 OA
ENDBRANCH  33  42
BRANCH  35  45
ATOM     45  O   UNL     1      18.131   5.805  31.701  0.00  0.00    -0.390 OA
ATOM     46  H   UNL     1      18.666   5.798  30.903  0.00  0.00    +0.210 HD
ENDBRANCH  35  45
BRANCH  33  47
ATOM     47  O   UNL     1      16.299   8.548  35.248  0.00  0.00    -0.343 OA
ATOM     48  C   UNL     1      15.860   7.232  35.671  0.00  0.00    +0.198 C 
ENDBRANCH  33  47
ENDBRANCH  30  31
BRANCH  30  49
ATOM     49  O   UNL     1      20.414  10.314  34.247  0.00  0.00    -0.387 OA
ATOM     50  H   UNL     1      21.370  10.267  34.322  0.00  0.00    +0.210 HD
ENDBRANCH  30  49
ENDBRANCH  27  30
ENDBRANCH  26  27
ENDBRANCH   3  26
TORSDOF 18
