REMARK VINA RESULT:    -5.077     12.104     14.400
REMARK INTER + INTRA:         -13.222
REMARK INTER:                 -10.324
REMARK INTRA:                  -2.898
REMARK UNBOUND:                -3.545
REMARK  Name = lig_assembled_55.pdb
REMARK  20 active torsions:
REMARK  status: ('A' for Active; 'I' for Inactive)
REMARK    1  A    between atoms: _2  and  _10
REMARK    2  A    between atoms: _3  and  _11
REMARK    3  A    between atoms: _3  and  _38
REMARK    4  A    between atoms: _5  and  _18
REMARK    5  A    between atoms: _6  and  _38
REMARK    6  A    between atoms: _7  and  _8
REMARK    7  A    between atoms: _7  and  _18
REMARK    8  A    between atoms: _10  and  _11
REMARK    9  A    between atoms: _14  and  _34
REMARK   10  A    between atoms: _16  and  _22
REMARK   11  A    between atoms: _17  and  _21
REMARK   12  A    between atoms: _21  and  _22
REMARK   13  A    between atoms: _24  and  _25
REMARK   14  A    between atoms: _26  and  _27
REMARK   15  A    between atoms: _28  and  _30
REMARK   16  A    between atoms: _30  and  _31
REMARK   17  A    between atoms: _30  and  _32
REMARK   18  A    between atoms: _32  and  _33
REMARK   19  A    between atoms: _32  and  _34
REMARK   20  A    between atoms: _35  and  _37
REMARK                            x       y       z     vdW  Elec       q    Type
REMARK                         _______ _______ _______ _____ _____    ______ ____
ROOT
ATOM      1  C   UNL     1      -1.347   3.280  31.624  0.00  0.00    +0.163 C 
ENDROOT
BRANCH   1   2
ATOM      2  O   UNL     1      -1.676   2.708  32.901  0.00  0.00    -0.388 OA
ATOM      3  H   UNL     1      -2.586   2.401  32.890  0.00  0.00    +0.210 HD
ENDBRANCH   1   2
BRANCH   1   4
ATOM      4  C   UNL     1      -1.279   4.814  31.710  0.00  0.00    +0.175 C 
BRANCH   4   5
ATOM      5  C   UNL     1      -2.674   5.456  31.710  0.00  0.00    +0.176 C 
ATOM      6  O   UNL     1      -3.241   5.293  33.039  0.00  0.00    -0.332 OA
ATOM      7  C   UNL     1      -4.537   5.941  33.260  0.00  0.00    +0.277 C 
ATOM      8  C   UNL     1      -5.561   5.478  32.194  0.00  0.00    +0.110 C 
ATOM      9  C   UNL     1      -4.992   5.603  30.765  0.00  0.00    +0.143 C 
ATOM     10  C   UNL     1      -3.641   4.896  30.650  0.00  0.00    +0.133 C 
BRANCH  10  11
ATOM     11  N   UNL     1      -3.068   5.096  29.309  0.00  0.00    -0.308 N 
ATOM     12  H   UNL     1      -2.736   6.020  29.071  0.00  0.00    +0.149 HD
ATOM     13  C   UNL     1      -2.960   4.136  28.386  0.00  0.00    +0.210 C 
ATOM     14  C   UNL     1      -3.500   2.746  28.771  0.00  0.00    +0.109 C 
ATOM     15  O   UNL     1      -2.462   4.329  27.276  0.00  0.00    -0.276 OA
ENDBRANCH  10  11
BRANCH   7  16
ATOM     16  C   UNL     1      -4.397   7.476  33.208  0.00  0.00    +0.414 C 
ATOM     17  O   UNL     1      -3.300   8.005  33.381  0.00  0.00    -0.240 OA
ATOM     18  O   UNL     1      -5.381   8.186  32.993  0.00  0.00    -0.240 OA
ENDBRANCH   7  16
BRANCH   7  19
ATOM     19  O   UNL     1      -5.024   5.539  34.566  0.00  0.00    -0.343 OA
ATOM     20  C   UNL     1      -5.173   4.109  34.750  0.00  0.00    +0.198 C 
ENDBRANCH   7  19
BRANCH   9  21
ATOM     21  O   UNL     1      -5.906   5.027  29.831  0.00  0.00    -0.390 OA
ATOM     22  H   UNL     1      -5.709   5.351  28.949  0.00  0.00    +0.210 HD
ENDBRANCH   9  21
ENDBRANCH   4   5
BRANCH   4  23
ATOM     23  O   UNL     1      -0.492   5.338  30.621  0.00  0.00    -0.387 OA
ATOM     24  H   UNL     1      -0.192   6.224  30.839  0.00  0.00    +0.210 HD
ENDBRANCH   4  23
ENDBRANCH   1   4
BRANCH   1  25
ATOM     25  C   UNL     1      -0.007   2.737  31.139  0.00  0.00    +0.141 C 
BRANCH  25  28
ATOM     26  C   UNL     1       0.713   3.032  28.794  0.00  0.00    +0.401 C 
ATOM     27  O   UNL     1       1.495   3.950  29.050  0.00  0.00    -0.226 OA
ATOM     28  N   UNL     1      -0.034   2.411  29.708  0.00  0.00    -0.279 N 
ATOM     29  H   UNL     1      -0.654   1.676  29.398  0.00  0.00    +0.152 HD
BRANCH  26  30
ATOM     30  O   UNL     1       0.579   2.592  27.440  0.00  0.00    -0.444 OA
BRANCH  30  31
ATOM     31  C   UNL     1       1.782   2.879  26.722  0.00  0.00    +0.292 C 
BRANCH  31  33
ATOM     32  N   UNL     1       0.573   4.791  25.722  0.00  0.00    -0.131 NA
ATOM     33  C   UNL     1       1.506   3.794  25.599  0.00  0.00    +0.120 A 
ATOM     34  C   UNL     1       2.053   3.843  24.336  0.00  0.00    +0.137 A 
ATOM     35  N   UNL     1       1.400   4.875  23.733  0.00  0.00    -0.250 N 
ATOM     36  N   UNL     1       0.513   5.444  24.571  0.00  0.00    -0.065 NA
BRANCH  35  37
ATOM     37  C   UNL     1       1.582   5.390  22.394  0.00  0.00    +0.162 C 
BRANCH  37  38
ATOM     38  C   UNL     1       0.378   5.160  21.473  0.00  0.00    +0.129 C 
BRANCH  38  39
ATOM     39  N   UNL     1      -0.901   5.709  22.011  0.00  0.00    -0.193 NA
ATOM     40  H   UNL     1      -1.127   6.604  21.559  0.00  0.00    +0.148 HD
BRANCH  39  41
ATOM     41  S   UNL     1      -2.208   4.646  22.052  0.00  0.00    +0.027 S 
ATOM     42  O   UNL     1      -2.808   4.673  20.736  0.00  0.00    -0.158 OA
ATOM     43  O   UNL     1      -1.747   3.410  22.644  0.00  0.00    -0.158 OA
ATOM     44  C   UNL     1      -3.303   5.472  23.183  0.00  0.00    +0.214 C 
ENDBRANCH  39  41
ENDBRANCH  38  39
ENDBRANCH  37  38
ENDBRANCH  35  37
ENDBRANCH  31  33
ENDBRANCH  30  31
ENDBRANCH  26  30
ENDBRANCH  25  28
ENDBRANCH   1  25
TORSDOF 17
