REMARK VINA RESULT:    -6.603      5.604     10.803
REMARK INTER + INTRA:         -15.782
REMARK INTER:                 -13.358
REMARK INTRA:                  -2.424
REMARK UNBOUND:                -2.424
REMARK  Name = lig_assembled_81.pdb
REMARK  22 active torsions:
REMARK  status: ('A' for Active; 'I' for Inactive)
REMARK    1  A    between atoms: _2  and  _12
REMARK    2  A    between atoms: _7  and  _30
REMARK    3  A    between atoms: _8  and  _24
REMARK    4  A    between atoms: _9  and  _10
REMARK    5  A    between atoms: _9  and  _30
REMARK    6  A    between atoms: _14  and  _15
REMARK    7  A    between atoms: _21  and  _22
REMARK    8  A    between atoms: _22  and  _23
REMARK    9  A    between atoms: _23  and  _25
REMARK   10  A    between atoms: _24  and  _25
REMARK   11  A    between atoms: _26  and  _46
REMARK   12  A    between atoms: _28  and  _34
REMARK   13  A    between atoms: _29  and  _33
REMARK   14  A    between atoms: _33  and  _34
REMARK   15  A    between atoms: _36  and  _37
REMARK   16  A    between atoms: _38  and  _39
REMARK   17  A    between atoms: _40  and  _42
REMARK   18  A    between atoms: _42  and  _43
REMARK   19  A    between atoms: _42  and  _44
REMARK   20  A    between atoms: _44  and  _45
REMARK   21  A    between atoms: _44  and  _46
REMARK   22  A    between atoms: _47  and  _49
REMARK                            x       y       z     vdW  Elec       q    Type
REMARK                         _______ _______ _______ _____ _____    ______ ____
ROOT
ATOM      1  C   UNL     1      19.048   5.088  26.564  0.00  0.00    +0.401 C 
ATOM      2  O   UNL     1      20.246   4.840  26.405  0.00  0.00    -0.226 OA
ATOM      3  N   UNL     1      18.073   4.193  26.400  0.00  0.00    -0.279 N 
ATOM      4  H   UNL     1      17.121   4.489  26.563  0.00  0.00    +0.152 HD
ENDROOT
BRANCH   1   5
ATOM      5  O   UNL     1      18.658   6.408  26.950  0.00  0.00    -0.444 OA
BRANCH   5   6
ATOM      6  C   UNL     1      19.614   6.939  27.871  0.00  0.00    +0.289 C 
BRANCH   6   8
ATOM      7  N   UNL     1      18.647   7.953  29.884  0.00  0.00    -0.130 NA
ATOM      8  C   UNL     1      19.106   6.835  29.254  0.00  0.00    +0.100 C 
ATOM      9  C   UNL     1      19.016   5.768  30.128  0.00  0.00    +0.124 C 
ATOM     10  N   UNL     1      18.356   6.277  31.238  0.00  0.00    -0.187 N 
ATOM     11  N   UNL     1      18.328   7.620  31.123  0.00  0.00    -0.010 NA
BRANCH  10  12
ATOM     12  C   UNL     1      17.956   5.579  32.427  0.00  0.00    +0.150 A 
ATOM     13  C   UNL     1      16.795   5.850  33.194  0.00  0.00    +0.022 A 
ATOM     14  C   UNL     1      16.697   5.053  34.364  0.00  0.00    +0.081 A 
ATOM     15  N   UNL     1      17.680   4.180  34.719  0.00  0.00    -0.214 NA
ATOM     16  C   UNL     1      18.733   4.034  33.933  0.00  0.00    +0.215 A 
ATOM     17  N   UNL     1      19.754   3.216  34.355  0.00  0.00    -0.327 N 
ATOM     18  H   UNL     1      19.430   2.548  35.038  0.00  0.00    +0.145 HD
ATOM     19  H   UNL     1      20.318   2.893  33.584  0.00  0.00    +0.145 HD
ATOM     20  N   UNL     1      18.866   4.623  32.761  0.00  0.00    -0.198 NA
BRANCH  14  21
ATOM     21  C   UNL     1      15.583   5.033  35.387  0.00  0.00    +0.001 A 
ATOM     22  C   UNL     1      15.512   5.863  36.520  0.00  0.00    +0.010 A 
ATOM     23  C   UNL     1      14.442   5.807  37.430  0.00  0.00    +0.001 A 
ATOM     24  C   UNL     1      13.373   4.959  37.208  0.00  0.00    +0.000 A 
ATOM     25  C   UNL     1      13.371   4.157  36.069  0.00  0.00    +0.001 A 
ATOM     26  C   UNL     1      14.463   4.190  35.190  0.00  0.00    +0.010 A 
ENDBRANCH  14  21
BRANCH  13  27
ATOM     27  C   UNL     1      15.628   6.785  32.862  0.00  0.00    +0.069 C 
BRANCH  27  28
ATOM     28  C   UNL     1      15.526   8.165  33.482  0.00  0.00    +0.164 C 
BRANCH  28  29
ATOM     29  O   UNL     1      16.619   8.570  34.315  0.00  0.00    -0.380 OA
BRANCH  29  30
ATOM     30  C   UNL     1      17.145   9.778  33.730  0.00  0.00    +0.156 C 
ATOM     31  C   UNL     1      16.044  10.673  33.211  0.00  0.00    +0.034 C 
ENDBRANCH  29  30
ENDBRANCH  28  29
ENDBRANCH  27  28
ENDBRANCH  13  27
ENDBRANCH  10  12
ENDBRANCH   6   8
ENDBRANCH   5   6
ENDBRANCH   1   5
BRANCH   3  32
ATOM     32  C   UNL     1      18.306   2.800  25.998  0.00  0.00    +0.141 C 
BRANCH  32  33
ATOM     33  C   UNL     1      17.040   1.957  26.109  0.00  0.00    +0.163 C 
BRANCH  33  34
ATOM     34  O   UNL     1      16.031   2.678  26.836  0.00  0.00    -0.388 OA
ATOM     35  H   UNL     1      16.053   2.417  27.759  0.00  0.00    +0.210 HD
ENDBRANCH  33  34
BRANCH  33  36
ATOM     36  C   UNL     1      16.543   1.587  24.701  0.00  0.00    +0.175 C 
BRANCH  36  37
ATOM     37  C   UNL     1      17.626   0.877  23.874  0.00  0.00    +0.176 C 
ATOM     38  O   UNL     1      17.675   1.509  22.565  0.00  0.00    -0.332 OA
ATOM     39  C   UNL     1      18.731   1.029  21.669  0.00  0.00    +0.277 C 
ATOM     40  C   UNL     1      18.645  -0.509  21.506  0.00  0.00    +0.110 C 
ATOM     41  C   UNL     1      18.559  -1.222  22.871  0.00  0.00    +0.143 C 
ATOM     42  C   UNL     1      17.429  -0.643  23.723  0.00  0.00    +0.133 C 
BRANCH  42  43
ATOM     43  N   UNL     1      17.413  -1.271  25.053  0.00  0.00    -0.308 N 
ATOM     44  H   UNL     1      18.144  -1.018  25.703  0.00  0.00    +0.149 HD
ATOM     45  C   UNL     1      16.495  -2.153  25.458  0.00  0.00    +0.210 C 
ATOM     46  C   UNL     1      15.409  -2.536  24.435  0.00  0.00    +0.109 C 
ATOM     47  O   UNL     1      16.497  -2.652  26.584  0.00  0.00    -0.276 OA
ENDBRANCH  42  43
BRANCH  39  48
ATOM     48  C   UNL     1      20.124   1.412  22.210  0.00  0.00    +0.414 C 
ATOM     49  O   UNL     1      20.293   2.490  22.779  0.00  0.00    -0.240 OA
ATOM     50  O   UNL     1      21.078   0.645  22.078  0.00  0.00    -0.240 OA
ENDBRANCH  39  48
BRANCH  39  51
ATOM     51  O   UNL     1      18.528   1.639  20.368  0.00  0.00    -0.343 OA
ATOM     52  C   UNL     1      17.142   1.767  19.962  0.00  0.00    +0.198 C 
ENDBRANCH  39  51
BRANCH  41  53
ATOM     53  O   UNL     1      18.329  -2.618  22.671  0.00  0.00    -0.390 OA
ATOM     54  H   UNL     1      18.089  -2.775  21.755  0.00  0.00    +0.210 HD
ENDBRANCH  41  53
ENDBRANCH  36  37
BRANCH  36  55
ATOM     55  O   UNL     1      16.084   2.766  24.010  0.00  0.00    -0.387 OA
ATOM     56  H   UNL     1      15.357   3.160  24.498  0.00  0.00    +0.210 HD
ENDBRANCH  36  55
ENDBRANCH  33  36
ENDBRANCH  32  33
ENDBRANCH   3  32
TORSDOF 19
