REMARK VINA RESULT:    -6.122      2.669      4.538
REMARK INTER + INTRA:         -13.900
REMARK INTER:                 -12.014
REMARK INTRA:                  -1.885
REMARK UNBOUND:                -2.230
REMARK  Name = lig_assembled_9.pdb
REMARK  20 active torsions:
REMARK  status: ('A' for Active; 'I' for Inactive)
REMARK    1  A    between atoms: _2  and  _9
REMARK    2  A    between atoms: _4  and  _23
REMARK    3  A    between atoms: _6  and  _7
REMARK    4  A    between atoms: _6  and  _23
REMARK    5  A    between atoms: _11  and  _12
REMARK    6  A    between atoms: _12  and  _17
REMARK    7  A    between atoms: _13  and  _14
REMARK    8  A    between atoms: _13  and  _17
REMARK    9  A    between atoms: _19  and  _39
REMARK   10  A    between atoms: _21  and  _27
REMARK   11  A    between atoms: _22  and  _26
REMARK   12  A    between atoms: _26  and  _27
REMARK   13  A    between atoms: _29  and  _30
REMARK   14  A    between atoms: _31  and  _32
REMARK   15  A    between atoms: _33  and  _35
REMARK   16  A    between atoms: _35  and  _36
REMARK   17  A    between atoms: _35  and  _37
REMARK   18  A    between atoms: _37  and  _38
REMARK   19  A    between atoms: _37  and  _39
REMARK   20  A    between atoms: _40  and  _42
REMARK                            x       y       z     vdW  Elec       q    Type
REMARK                         _______ _______ _______ _____ _____    ______ ____
ROOT
ATOM      1  C   UNL     1       6.131   3.215  33.474  0.00  0.00    +0.163 C 
ENDROOT
BRANCH   1   2
ATOM      2  O   UNL     1       5.960   2.132  34.403  0.00  0.00    -0.388 OA
ATOM      3  H   UNL     1       5.857   2.484  35.290  0.00  0.00    +0.210 HD
ENDBRANCH   1   2
BRANCH   1   4
ATOM      4  C   UNL     1       7.622   3.528  33.262  0.00  0.00    +0.175 C 
BRANCH   4   5
ATOM      5  C   UNL     1       8.384   3.641  34.590  0.00  0.00    +0.176 C 
ATOM      6  O   UNL     1       8.568   2.298  35.116  0.00  0.00    -0.332 OA
ATOM      7  C   UNL     1       9.374   2.200  36.337  0.00  0.00    +0.277 C 
ATOM      8  C   UNL     1       8.797   3.120  37.441  0.00  0.00    +0.110 C 
ATOM      9  C   UNL     1       8.553   4.552  36.920  0.00  0.00    +0.143 C 
ATOM     10  C   UNL     1       7.708   4.536  35.646  0.00  0.00    +0.133 C 
BRANCH  10  11
ATOM     11  N   UNL     1       7.556   5.898  35.111  0.00  0.00    -0.308 N 
ATOM     12  H   UNL     1       8.369   6.338  34.703  0.00  0.00    +0.149 HD
ATOM     13  C   UNL     1       6.415   6.592  35.131  0.00  0.00    +0.210 C 
ATOM     14  C   UNL     1       5.201   5.904  35.784  0.00  0.00    +0.109 C 
ATOM     15  O   UNL     1       6.313   7.726  34.662  0.00  0.00    -0.276 OA
ENDBRANCH  10  11
BRANCH   7  16
ATOM     16  C   UNL     1      10.840   2.588  36.057  0.00  0.00    +0.414 C 
ATOM     17  O   UNL     1      11.226   2.763  34.902  0.00  0.00    -0.240 OA
ATOM     18  O   UNL     1      11.638   2.727  36.986  0.00  0.00    -0.240 OA
ENDBRANCH   7  16
BRANCH   7  19
ATOM     19  O   UNL     1       9.313   0.828  36.806  0.00  0.00    -0.343 OA
ATOM     20  C   UNL     1       8.310   0.572  37.821  0.00  0.00    +0.198 C 
ENDBRANCH   7  19
BRANCH   9  21
ATOM     21  O   UNL     1       7.884   5.321  37.920  0.00  0.00    -0.390 OA
ATOM     22  H   UNL     1       8.446   5.401  38.693  0.00  0.00    +0.210 HD
ENDBRANCH   9  21
ENDBRANCH   4   5
BRANCH   4  23
ATOM     23  O   UNL     1       7.771   4.741  32.498  0.00  0.00    -0.387 OA
ATOM     24  H   UNL     1       8.079   4.528  31.614  0.00  0.00    +0.210 HD
ENDBRANCH   4  23
ENDBRANCH   1   4
BRANCH   1  25
ATOM     25  C   UNL     1       5.489   2.861  32.136  0.00  0.00    +0.141 C 
BRANCH  25  28
ATOM     26  C   UNL     1       3.079   3.265  32.501  0.00  0.00    +0.401 C 
ATOM     27  O   UNL     1       2.939   2.310  33.268  0.00  0.00    -0.226 OA
ATOM     28  N   UNL     1       4.234   3.592  31.921  0.00  0.00    -0.279 N 
ATOM     29  H   UNL     1       4.247   4.388  31.298  0.00  0.00    +0.152 HD
BRANCH  26  30
ATOM     30  O   UNL     1       1.946   4.083  32.196  0.00  0.00    -0.444 OA
BRANCH  30  31
ATOM     31  C   UNL     1       0.884   3.263  31.701  0.00  0.00    +0.292 C 
BRANCH  31  33
ATOM     32  N   UNL     1       0.046   4.170  29.555  0.00  0.00    -0.131 NA
ATOM     33  C   UNL     1       0.855   3.300  30.226  0.00  0.00    +0.121 A 
ATOM     34  C   UNL     1       1.567   2.555  29.316  0.00  0.00    +0.143 A 
ATOM     35  N   UNL     1       1.184   3.037  28.085  0.00  0.00    -0.220 N 
ATOM     36  N   UNL     1       0.245   3.998  28.255  0.00  0.00    -0.060 NA
BRANCH  35  37
ATOM     37  C   UNL     1       1.663   2.671  26.801  0.00  0.00    +0.068 A 
ATOM     38  C   UNL     1       1.905   1.327  26.488  0.00  0.00    +0.042 A 
ATOM     39  C   UNL     1       2.410   0.973  25.228  0.00  0.00    +0.061 A 
ATOM     40  C   UNL     1       2.668   1.969  24.279  0.00  0.00    +0.015 A 
ATOM     41  C   UNL     1       2.416   3.309  24.584  0.00  0.00    +0.003 A 
ATOM     42  C   UNL     1       1.914   3.661  25.838  0.00  0.00    +0.028 A 
BRANCH  39  43
ATOM     43  C   UNL     1       2.624  -0.445  24.835  0.00  0.00    +0.339 C 
ATOM     44  O   UNL     1       1.824  -1.095  24.182  0.00  0.00    -0.245 OA
BRANCH  43  45
ATOM     45  O   UNL     1       3.769  -0.908  25.394  0.00  0.00    -0.461 OA
BRANCH  45  46
ATOM     46  C   UNL     1       4.389  -2.007  24.714  0.00  0.00    +0.229 C 
ATOM     47  C   UNL     1       5.789  -1.581  24.313  0.00  0.00    +0.048 C 
ENDBRANCH  45  46
ENDBRANCH  43  45
ENDBRANCH  39  43
ENDBRANCH  35  37
ENDBRANCH  31  33
ENDBRANCH  30  31
ENDBRANCH  26  30
ENDBRANCH  25  28
ENDBRANCH   1  25
TORSDOF 17
