REMARK VINA RESULT:    -5.741      6.356     11.745
REMARK INTER + INTRA:         -12.658
REMARK INTER:                 -10.945
REMARK INTRA:                  -1.713
REMARK UNBOUND:                -2.722
REMARK  Name = lig_assembled_3.pdb
REMARK  16 active torsions:
REMARK  status: ('A' for Active; 'I' for Inactive)
REMARK    1  A    between atoms: _2  and  _9
REMARK    2  A    between atoms: _4  and  _18
REMARK    3  A    between atoms: _6  and  _7
REMARK    4  A    between atoms: _6  and  _18
REMARK    5  A    between atoms: _14  and  _34
REMARK    6  A    between atoms: _16  and  _22
REMARK    7  A    between atoms: _17  and  _21
REMARK    8  A    between atoms: _21  and  _22
REMARK    9  A    between atoms: _24  and  _25
REMARK   10  A    between atoms: _26  and  _27
REMARK   11  A    between atoms: _28  and  _30
REMARK   12  A    between atoms: _30  and  _31
REMARK   13  A    between atoms: _30  and  _32
REMARK   14  A    between atoms: _32  and  _33
REMARK   15  A    between atoms: _32  and  _34
REMARK   16  A    between atoms: _35  and  _37
REMARK                            x       y       z     vdW  Elec       q    Type
REMARK                         _______ _______ _______ _____ _____    ______ ____
ROOT
ATOM      1  C   UNL     1      10.033   3.217  35.167  0.00  0.00    +0.163 C 
ENDROOT
BRANCH   1   2
ATOM      2  O   UNL     1       9.968   2.271  34.087  0.00  0.00    -0.388 OA
ATOM      3  H   UNL     1      10.046   2.735  33.250  0.00  0.00    +0.210 HD
ENDBRANCH   1   2
BRANCH   1   4
ATOM      4  C   UNL     1      11.114   2.803  36.160  0.00  0.00    +0.141 C 
BRANCH   4   7
ATOM      5  C   UNL     1      13.293   2.803  34.995  0.00  0.00    +0.401 C 
ATOM      6  O   UNL     1      13.103   1.718  34.440  0.00  0.00    -0.226 OA
ATOM      7  N   UNL     1      12.420   3.381  35.820  0.00  0.00    -0.279 N 
ATOM      8  H   UNL     1      12.670   4.268  36.235  0.00  0.00    +0.152 HD
BRANCH   5   9
ATOM      9  O   UNL     1      14.519   3.499  34.757  0.00  0.00    -0.444 OA
BRANCH   9  10
ATOM     10  C   UNL     1      14.613   4.617  35.643  0.00  0.00    +0.292 C 
BRANCH  10  12
ATOM     11  N   UNL     1      15.110   5.835  33.548  0.00  0.00    -0.131 NA
ATOM     12  C   UNL     1      15.073   5.814  34.912  0.00  0.00    +0.121 A 
ATOM     13  C   UNL     1      15.504   7.028  35.393  0.00  0.00    +0.143 A 
ATOM     14  N   UNL     1      15.772   7.782  34.273  0.00  0.00    -0.220 N 
ATOM     15  N   UNL     1      15.540   7.030  33.167  0.00  0.00    -0.060 NA
BRANCH  14  16
ATOM     16  C   UNL     1      16.202   9.131  34.191  0.00  0.00    +0.067 A 
ATOM     17  C   UNL     1      16.281   9.788  32.955  0.00  0.00    +0.028 A 
ATOM     18  C   UNL     1      16.736  11.108  32.892  0.00  0.00    +0.002 A 
ATOM     19  C   UNL     1      17.109  11.777  34.056  0.00  0.00    +0.000 A 
ATOM     20  C   UNL     1      17.023  11.133  35.289  0.00  0.00    +0.002 A 
ATOM     21  C   UNL     1      16.571   9.814  35.360  0.00  0.00    +0.028 A 
ENDBRANCH  14  16
ENDBRANCH  10  12
ENDBRANCH   9  10
ENDBRANCH   5   9
ENDBRANCH   4   7
ENDBRANCH   1   4
BRANCH   1  22
ATOM     22  C   UNL     1       8.680   3.316  35.893  0.00  0.00    +0.175 C 
BRANCH  22  23
ATOM     23  C   UNL     1       7.848   4.511  35.404  0.00  0.00    +0.176 C 
ATOM     24  O   UNL     1       7.512   5.325  36.561  0.00  0.00    -0.332 OA
ATOM     25  C   UNL     1       6.803   6.576  36.272  0.00  0.00    +0.277 C 
ATOM     26  C   UNL     1       5.527   6.294  35.441  0.00  0.00    +0.110 C 
ATOM     27  C   UNL     1       5.829   5.405  34.216  0.00  0.00    +0.143 C 
ATOM     28  C   UNL     1       6.570   4.134  34.631  0.00  0.00    +0.133 C 
BRANCH  28  29
ATOM     29  N   UNL     1       6.929   3.337  33.448  0.00  0.00    -0.308 N 
ATOM     30  H   UNL     1       7.563   3.747  32.777  0.00  0.00    +0.149 HD
ATOM     31  C   UNL     1       6.471   2.106  33.201  0.00  0.00    +0.210 C 
ATOM     32  C   UNL     1       5.485   1.519  34.229  0.00  0.00    +0.109 C 
ATOM     33  O   UNL     1       6.800   1.457  32.208  0.00  0.00    -0.276 OA
ENDBRANCH  28  29
BRANCH  25  34
ATOM     34  C   UNL     1       7.714   7.555  35.503  0.00  0.00    +0.414 C 
ATOM     35  O   UNL     1       8.864   7.763  35.886  0.00  0.00    -0.240 OA
ATOM     36  O   UNL     1       7.298   8.137  34.500  0.00  0.00    -0.240 OA
ENDBRANCH  25  34
BRANCH  27  37
ATOM     37  O   UNL     1       4.608   5.047  33.568  0.00  0.00    -0.390 OA
ATOM     38  H   UNL     1       3.883   5.106  34.195  0.00  0.00    +0.210 HD
ENDBRANCH  27  37
BRANCH  25  39
ATOM     39  O   UNL     1       6.405   7.168  37.535  0.00  0.00    -0.343 OA
ATOM     40  C   UNL     1       5.485   6.371  38.322  0.00  0.00    +0.198 C 
ENDBRANCH  25  39
ENDBRANCH  22  23
BRANCH  22  41
ATOM     41  O   UNL     1       8.885   3.404  37.317  0.00  0.00    -0.387 OA
ATOM     42  H   UNL     1       8.288   4.058  37.687  0.00  0.00    +0.210 HD
ENDBRANCH  22  41
ENDBRANCH   1  22
TORSDOF 14
