REMARK VINA RESULT:    -6.285      4.133      6.921
REMARK INTER + INTRA:         -13.842
REMARK INTER:                 -11.502
REMARK INTRA:                  -2.340
REMARK UNBOUND:                -2.597
REMARK  Name = lig_assembled_89.pdb
REMARK  19 active torsions:
REMARK  status: ('A' for Active; 'I' for Inactive)
REMARK    1  A    between atoms: _2  and  _12
REMARK    2  A    between atoms: _5  and  _20
REMARK    3  A    between atoms: _7  and  _29
REMARK    4  A    between atoms: _9  and  _10
REMARK    5  A    between atoms: _9  and  _29
REMARK    6  A    between atoms: _20  and  _21
REMARK    7  A    between atoms: _20  and  _22
REMARK    8  A    between atoms: _25  and  _45
REMARK    9  A    between atoms: _27  and  _33
REMARK   10  A    between atoms: _28  and  _32
REMARK   11  A    between atoms: _32  and  _33
REMARK   12  A    between atoms: _35  and  _36
REMARK   13  A    between atoms: _37  and  _38
REMARK   14  A    between atoms: _39  and  _41
REMARK   15  A    between atoms: _41  and  _42
REMARK   16  A    between atoms: _41  and  _43
REMARK   17  A    between atoms: _43  and  _44
REMARK   18  A    between atoms: _43  and  _45
REMARK   19  A    between atoms: _46  and  _48
REMARK                            x       y       z     vdW  Elec       q    Type
REMARK                         _______ _______ _______ _____ _____    ______ ____
ROOT
ATOM      1  C   UNL     1       8.494  -0.640  36.017  0.00  0.00    +0.401 C 
ATOM      2  O   UNL     1       8.508  -0.666  37.250  0.00  0.00    -0.226 OA
ATOM      3  N   UNL     1       9.177   0.238  35.282  0.00  0.00    -0.279 N 
ATOM      4  H   UNL     1       9.110   0.172  34.276  0.00  0.00    +0.152 HD
ENDROOT
BRANCH   3   5
ATOM      5  C   UNL     1      10.022   1.294  35.852  0.00  0.00    +0.141 C 
BRANCH   5   6
ATOM      6  C   UNL     1       9.548   2.685  35.442  0.00  0.00    +0.163 C 
BRANCH   6   7
ATOM      7  O   UNL     1       9.638   2.833  34.015  0.00  0.00    -0.388 OA
ATOM      8  H   UNL     1      10.239   2.174  33.661  0.00  0.00    +0.210 HD
ENDBRANCH   6   7
BRANCH   6   9
ATOM      9  C   UNL     1       8.105   2.900  35.928  0.00  0.00    +0.175 C 
BRANCH   9  10
ATOM     10  C   UNL     1       7.674   4.371  35.829  0.00  0.00    +0.176 C 
ATOM     11  O   UNL     1       7.285   4.813  37.158  0.00  0.00    -0.332 OA
ATOM     12  C   UNL     1       6.942   6.234  37.278  0.00  0.00    +0.277 C 
ATOM     13  C   UNL     1       5.841   6.612  36.257  0.00  0.00    +0.110 C 
ATOM     14  C   UNL     1       6.196   6.134  34.833  0.00  0.00    +0.143 C 
ATOM     15  C   UNL     1       6.539   4.644  34.825  0.00  0.00    +0.133 C 
BRANCH  15  16
ATOM     16  N   UNL     1       6.959   4.219  33.480  0.00  0.00    -0.308 N 
ATOM     17  H   UNL     1       7.743   4.697  33.058  0.00  0.00    +0.149 HD
ATOM     18  C   UNL     1       6.372   3.244  32.781  0.00  0.00    +0.210 C 
ATOM     19  C   UNL     1       5.164   2.552  33.441  0.00  0.00    +0.109 C 
ATOM     20  O   UNL     1       6.755   2.899  31.662  0.00  0.00    -0.276 OA
ENDBRANCH  15  16
BRANCH  12  21
ATOM     21  C   UNL     1       8.185   7.118  37.048  0.00  0.00    +0.414 C 
ATOM     22  O   UNL     1       8.056   8.285  36.679  0.00  0.00    -0.240 OA
ATOM     23  O   UNL     1       9.316   6.666  37.231  0.00  0.00    -0.240 OA
ENDBRANCH  12  21
BRANCH  14  24
ATOM     24  O   UNL     1       5.092   6.367  33.957  0.00  0.00    -0.390 OA
ATOM     25  H   UNL     1       5.316   6.069  33.073  0.00  0.00    +0.210 HD
ENDBRANCH  14  24
BRANCH  12  26
ATOM     26  O   UNL     1       6.423   6.459  38.614  0.00  0.00    -0.343 OA
ATOM     27  C   UNL     1       6.848   5.491  39.607  0.00  0.00    +0.198 C 
ENDBRANCH  12  26
ENDBRANCH   9  10
BRANCH   9  28
ATOM     28  O   UNL     1       7.962   2.431  37.284  0.00  0.00    -0.387 OA
ATOM     29  H   UNL     1       7.054   2.553  37.571  0.00  0.00    +0.210 HD
ENDBRANCH   9  28
ENDBRANCH   6   9
ENDBRANCH   5   6
ENDBRANCH   3   5
BRANCH   1  30
ATOM     30  O   UNL     1       7.708  -1.604  35.311  0.00  0.00    -0.444 OA
BRANCH  30  31
ATOM     31  C   UNL     1       8.473  -2.145  34.230  0.00  0.00    +0.292 C 
BRANCH  31  33
ATOM     32  N   UNL     1       7.340  -0.529  32.752  0.00  0.00    -0.131 NA
ATOM     33  C   UNL     1       7.865  -1.773  32.941  0.00  0.00    +0.121 A 
ATOM     34  C   UNL     1       7.731  -2.497  31.781  0.00  0.00    +0.145 A 
ATOM     35  N   UNL     1       7.131  -1.634  30.883  0.00  0.00    -0.199 N 
ATOM     36  N   UNL     1       6.906  -0.452  31.501  0.00  0.00    -0.059 NA
BRANCH  35  37
ATOM     37  C   UNL     1       6.883  -1.907  29.505  0.00  0.00    +0.186 A 
ATOM     38  C   UNL     1       5.740  -1.706  28.759  0.00  0.00    +0.158 A 
ATOM     39  C   UNL     1       4.410  -1.297  29.093  0.00  0.00    +0.280 A 
ATOM     40  O   UNL     1       3.967  -1.374  30.231  0.00  0.00    -0.265 OA
ATOM     41  N   UNL     1       3.636  -0.829  28.012  0.00  0.00    -0.302 N 
ATOM     42  C   UNL     1       3.993  -1.182  26.656  0.00  0.00    +0.069 A 
ATOM     43  C   UNL     1       3.128  -0.989  25.569  0.00  0.00    +0.028 A 
ATOM     44  C   UNL     1       3.487  -1.390  24.275  0.00  0.00    +0.002 A 
ATOM     45  C   UNL     1       4.721  -1.982  24.035  0.00  0.00    +0.002 A 
ATOM     46  C   UNL     1       5.610  -2.176  25.088  0.00  0.00    +0.028 A 
ATOM     47  C   UNL     1       5.240  -1.787  26.383  0.00  0.00    +0.072 A 
ATOM     48  N   UNL     1       6.110  -1.977  27.469  0.00  0.00    -0.291 N 
ATOM     49  C   UNL     1       7.404  -2.431  27.501  0.00  0.00    +0.207 A 
ATOM     50  N   UNL     1       7.908  -2.392  28.716  0.00  0.00    -0.216 NA
BRANCH  41  51
ATOM     51  C   UNL     1       2.352  -0.155  28.319  0.00  0.00    +0.085 C 
ATOM     52  C   UNL     1       2.483   0.990  29.343  0.00  0.00    +0.030 C 
ATOM     53  C   UNL     1       1.280  -1.149  28.763  0.00  0.00    +0.030 C 
ENDBRANCH  41  51
ENDBRANCH  35  37
ENDBRANCH  31  33
ENDBRANCH  30  31
ENDBRANCH   1  30
TORSDOF 15
