REMARK VINA RESULT:    -5.168     14.890     17.654
REMARK INTER + INTRA:         -13.134
REMARK INTER:                 -10.674
REMARK INTRA:                  -2.460
REMARK UNBOUND:                -3.888
REMARK  Name = lig_assembled_46.pdb
REMARK  17 active torsions:
REMARK  status: ('A' for Active; 'I' for Inactive)
REMARK    1  A    between atoms: _2  and  _9
REMARK    2  A    between atoms: _4  and  _19
REMARK    3  A    between atoms: _6  and  _7
REMARK    4  A    between atoms: _6  and  _19
REMARK    5  A    between atoms: _9  and  _10
REMARK    6  A    between atoms: _15  and  _35
REMARK    7  A    between atoms: _17  and  _23
REMARK    8  A    between atoms: _18  and  _22
REMARK    9  A    between atoms: _22  and  _23
REMARK   10  A    between atoms: _25  and  _26
REMARK   11  A    between atoms: _27  and  _28
REMARK   12  A    between atoms: _29  and  _31
REMARK   13  A    between atoms: _31  and  _32
REMARK   14  A    between atoms: _31  and  _33
REMARK   15  A    between atoms: _33  and  _34
REMARK   16  A    between atoms: _33  and  _35
REMARK   17  A    between atoms: _36  and  _38
REMARK                            x       y       z     vdW  Elec       q    Type
REMARK                         _______ _______ _______ _____ _____    ______ ____
ROOT
ATOM      1  C   UNL     1      18.226  -1.227  22.165  0.00  0.00    +0.163 C 
ENDROOT
BRANCH   1   2
ATOM      2  O   UNL     1      19.196  -2.287  22.136  0.00  0.00    -0.388 OA
ATOM      3  H   UNL     1      18.897  -2.980  21.543  0.00  0.00    +0.210 HD
ENDBRANCH   1   2
BRANCH   1   4
ATOM      4  C   UNL     1      18.658  -0.099  21.234  0.00  0.00    +0.141 C 
BRANCH   4   7
ATOM      5  C   UNL     1      17.200   1.771  20.540  0.00  0.00    +0.401 C 
ATOM      6  O   UNL     1      17.124   1.401  19.366  0.00  0.00    -0.226 OA
ATOM      7  N   UNL     1      17.899   1.134  21.479  0.00  0.00    -0.279 N 
ATOM      8  H   UNL     1      17.908   1.521  22.413  0.00  0.00    +0.152 HD
BRANCH   5   9
ATOM      9  O   UNL     1      16.506   2.956  20.940  0.00  0.00    -0.444 OA
BRANCH   9  10
ATOM     10  C   UNL     1      16.546   3.075  22.365  0.00  0.00    +0.292 C 
BRANCH  10  12
ATOM     11  N   UNL     1      17.004   5.492  22.641  0.00  0.00    -0.131 NA
ATOM     12  C   UNL     1      17.421   4.194  22.763  0.00  0.00    +0.120 A 
ATOM     13  C   UNL     1      18.683   4.177  23.319  0.00  0.00    +0.137 A 
ATOM     14  N   UNL     1      18.953   5.492  23.566  0.00  0.00    -0.247 N 
ATOM     15  N   UNL     1      17.946   6.281  23.144  0.00  0.00    -0.065 NA
BRANCH  14  16
ATOM     16  C   UNL     1      20.005   6.037  24.408  0.00  0.00    +0.180 C 
BRANCH  16  17
ATOM     17  C   UNL     1      19.557   6.349  25.814  0.00  0.00    -0.026 A 
ATOM     18  C   UNL     1      19.363   5.325  26.754  0.00  0.00    +0.005 A 
ATOM     19  C   UNL     1      19.041   5.631  28.079  0.00  0.00    +0.000 A 
ATOM     20  C   UNL     1      18.914   6.958  28.479  0.00  0.00    +0.000 A 
ATOM     21  C   UNL     1      19.095   7.984  27.554  0.00  0.00    +0.000 A 
ATOM     22  C   UNL     1      19.416   7.682  26.229  0.00  0.00    +0.005 A 
ENDBRANCH  16  17
ENDBRANCH  14  16
ENDBRANCH  10  12
ENDBRANCH   9  10
ENDBRANCH   5   9
ENDBRANCH   4   7
ENDBRANCH   1   4
BRANCH   1  23
ATOM     23  C   UNL     1      18.052  -0.678  23.592  0.00  0.00    +0.175 C 
BRANCH  23  24
ATOM     24  C   UNL     1      18.189  -1.778  24.655  0.00  0.00    +0.176 C 
ATOM     25  O   UNL     1      17.476  -2.953  24.177  0.00  0.00    -0.332 OA
ATOM     26  C   UNL     1      17.586  -4.147  25.020  0.00  0.00    +0.277 C 
ATOM     27  C   UNL     1      17.153  -3.827  26.471  0.00  0.00    +0.110 C 
ATOM     28  C   UNL     1      17.861  -2.567  27.012  0.00  0.00    +0.143 C 
ATOM     29  C   UNL     1      17.685  -1.386  26.056  0.00  0.00    +0.133 C 
BRANCH  29  30
ATOM     30  N   UNL     1      18.435  -0.216  26.538  0.00  0.00    -0.308 N 
ATOM     31  H   UNL     1      19.440  -0.296  26.608  0.00  0.00    +0.149 HD
ATOM     32  C   UNL     1      17.876   0.944  26.891  0.00  0.00    +0.210 C 
ATOM     33  C   UNL     1      16.341   1.026  26.799  0.00  0.00    +0.109 C 
ATOM     34  O   UNL     1      18.531   1.913  27.278  0.00  0.00    -0.276 OA
ENDBRANCH  29  30
BRANCH  26  35
ATOM     35  C   UNL     1      19.032  -4.685  25.020  0.00  0.00    +0.414 C 
ATOM     36  O   UNL     1      19.757  -4.514  24.041  0.00  0.00    -0.240 OA
ATOM     37  O   UNL     1      19.473  -5.289  25.998  0.00  0.00    -0.240 OA
ENDBRANCH  26  35
BRANCH  26  38
ATOM     38  O   UNL     1      16.690  -5.156  24.487  0.00  0.00    -0.343 OA
ATOM     39  C   UNL     1      15.300  -4.752  24.391  0.00  0.00    +0.198 C 
ENDBRANCH  26  38
BRANCH  28  40
ATOM     40  O   UNL     1      17.322  -2.222  28.289  0.00  0.00    -0.390 OA
ATOM     41  H   UNL     1      18.026  -1.904  28.859  0.00  0.00    +0.210 HD
ENDBRANCH  28  40
ENDBRANCH  23  24
BRANCH  23  42
ATOM     42  O   UNL     1      16.776  -0.020  23.719  0.00  0.00    -0.387 OA
ATOM     43  H   UNL     1      16.072  -0.668  23.636  0.00  0.00    +0.210 HD
ENDBRANCH  23  42
ENDBRANCH   1  23
TORSDOF 15
