REMARK VINA RESULT:    -6.516      2.223      3.465
REMARK INTER + INTRA:         -15.444
REMARK INTER:                 -13.003
REMARK INTRA:                  -2.441
REMARK UNBOUND:                -2.643
REMARK  Name = lig_assembled_37.pdb
REMARK  21 active torsions:
REMARK  status: ('A' for Active; 'I' for Inactive)
REMARK    1  A    between atoms: _2  and  _9
REMARK    2  A    between atoms: _4  and  _24
REMARK    3  A    between atoms: _6  and  _7
REMARK    4  A    between atoms: _6  and  _24
REMARK    5  A    between atoms: _9  and  _10
REMARK    6  A    between atoms: _9  and  _11
REMARK    7  A    between atoms: _11  and  _18
REMARK    8  A    between atoms: _12  and  _13
REMARK    9  A    between atoms: _12  and  _18
REMARK   10  A    between atoms: _20  and  _40
REMARK   11  A    between atoms: _22  and  _28
REMARK   12  A    between atoms: _23  and  _27
REMARK   13  A    between atoms: _27  and  _28
REMARK   14  A    between atoms: _30  and  _31
REMARK   15  A    between atoms: _32  and  _33
REMARK   16  A    between atoms: _34  and  _36
REMARK   17  A    between atoms: _36  and  _37
REMARK   18  A    between atoms: _36  and  _38
REMARK   19  A    between atoms: _38  and  _39
REMARK   20  A    between atoms: _38  and  _40
REMARK   21  A    between atoms: _41  and  _43
REMARK                            x       y       z     vdW  Elec       q    Type
REMARK                         _______ _______ _______ _____ _____    ______ ____
ROOT
ATOM      1  C   UNL     1       6.976   2.861  32.486  0.00  0.00    +0.141 C 
ENDROOT
BRANCH   1   4
ATOM      2  C   UNL     1       4.885   1.797  31.710  0.00  0.00    +0.401 C 
ATOM      3  O   UNL     1       5.384   0.673  31.611  0.00  0.00    -0.226 OA
ATOM      4  N   UNL     1       5.558   2.878  32.106  0.00  0.00    -0.279 N 
ATOM      5  H   UNL     1       5.064   3.759  32.146  0.00  0.00    +0.152 HD
BRANCH   2   6
ATOM      6  O   UNL     1       3.505   1.976  31.382  0.00  0.00    -0.444 OA
BRANCH   6   7
ATOM      7  C   UNL     1       2.952   0.730  30.949  0.00  0.00    +0.292 C 
BRANCH   7   9
ATOM      8  N   UNL     1       2.975  -0.116  28.619  0.00  0.00    -0.131 NA
ATOM      9  C   UNL     1       2.547   0.811  29.533  0.00  0.00    +0.120 A 
ATOM     10  C   UNL     1       1.741   1.728  28.899  0.00  0.00    +0.138 A 
ATOM     11  N   UNL     1       1.738   1.325  27.596  0.00  0.00    -0.238 N 
ATOM     12  N   UNL     1       2.467   0.205  27.437  0.00  0.00    -0.065 NA
BRANCH  11  13
ATOM     13  C   UNL     1       1.032   1.887  26.461  0.00  0.00    +0.214 C 
ATOM     14  C   UNL     1      -0.401   2.269  26.828  0.00  0.00    +0.045 C 
BRANCH  13  15
ATOM     15  C   UNL     1       1.766   3.084  25.899  0.00  0.00    +0.332 C 
ATOM     16  O   UNL     1       1.662   4.222  26.341  0.00  0.00    -0.248 OA
BRANCH  15  17
ATOM     17  O   UNL     1       2.547   2.729  24.844  0.00  0.00    -0.458 OA
BRANCH  17  18
ATOM     18  C   UNL     1       1.955   1.831  23.893  0.00  0.00    +0.267 C 
BRANCH  18  19
ATOM     19  C   UNL     1       1.894   2.483  22.536  0.00  0.00    -0.010 A 
ATOM     20  C   UNL     1       1.751   3.873  22.422  0.00  0.00    +0.007 A 
ATOM     21  C   UNL     1       1.723   4.482  21.166  0.00  0.00    +0.000 A 
ATOM     22  C   UNL     1       1.835   3.709  20.012  0.00  0.00    +0.000 A 
ATOM     23  C   UNL     1       1.972   2.326  20.113  0.00  0.00    +0.000 A 
ATOM     24  C   UNL     1       1.998   1.715  21.368  0.00  0.00    +0.007 A 
ENDBRANCH  18  19
ENDBRANCH  17  18
ENDBRANCH  15  17
ENDBRANCH  13  15
ENDBRANCH  11  13
ENDBRANCH   7   9
ENDBRANCH   6   7
ENDBRANCH   2   6
ENDBRANCH   1   4
BRANCH   1  25
ATOM     25  C   UNL     1       7.301   3.937  33.517  0.00  0.00    +0.163 C 
BRANCH  25  26
ATOM     26  O   UNL     1       7.764   5.127  32.857  0.00  0.00    -0.388 OA
ATOM     27  H   UNL     1       7.524   5.897  33.377  0.00  0.00    +0.210 HD
ENDBRANCH  25  26
BRANCH  25  28
ATOM     28  C   UNL     1       6.051   4.231  34.365  0.00  0.00    +0.175 C 
BRANCH  28  29
ATOM     29  C   UNL     1       6.295   5.354  35.384  0.00  0.00    +0.176 C 
ATOM     30  O   UNL     1       7.671   5.250  35.843  0.00  0.00    -0.332 OA
ATOM     31  C   UNL     1       8.119   6.312  36.748  0.00  0.00    +0.277 C 
ATOM     32  C   UNL     1       7.168   6.422  37.966  0.00  0.00    +0.110 C 
ATOM     33  C   UNL     1       5.690   6.502  37.529  0.00  0.00    +0.143 C 
ATOM     34  C   UNL     1       5.333   5.352  36.587  0.00  0.00    +0.133 C 
BRANCH  34  35
ATOM     35  N   UNL     1       3.948   5.488  36.109  0.00  0.00    -0.308 N 
ATOM     36  H   UNL     1       3.746   6.230  35.454  0.00  0.00    +0.149 HD
ATOM     37  C   UNL     1       2.941   4.695  36.485  0.00  0.00    +0.210 C 
ATOM     38  C   UNL     1       3.276   3.590  37.504  0.00  0.00    +0.109 C 
ATOM     39  O   UNL     1       1.793   4.823  36.056  0.00  0.00    -0.276 OA
ENDBRANCH  34  35
BRANCH  31  40
ATOM     40  C   UNL     1       8.175   7.669  36.015  0.00  0.00    +0.414 C 
ATOM     41  O   UNL     1       8.114   7.713  34.787  0.00  0.00    -0.240 OA
ATOM     42  O   UNL     1       8.283   8.718  36.651  0.00  0.00    -0.240 OA
ENDBRANCH  31  40
BRANCH  31  43
ATOM     43  O   UNL     1       9.441   5.963  37.231  0.00  0.00    -0.343 OA
ATOM     44  C   UNL     1       9.589   4.589  37.673  0.00  0.00    +0.198 C 
ENDBRANCH  31  43
BRANCH  33  45
ATOM     45  O   UNL     1       4.844   6.449  38.678  0.00  0.00    -0.390 OA
ATOM     46  H   UNL     1       4.814   5.549  39.013  0.00  0.00    +0.210 HD
ENDBRANCH  33  45
ENDBRANCH  28  29
BRANCH  28  47
ATOM     47  O   UNL     1       5.616   3.033  35.040  0.00  0.00    -0.387 OA
ATOM     48  H   UNL     1       5.831   3.096  35.973  0.00  0.00    +0.210 HD
ENDBRANCH  28  47
ENDBRANCH  25  28
ENDBRANCH   1  25
TORSDOF 18
