REMARK VINA RESULT:    -5.467     14.826     17.080
REMARK INTER + INTRA:         -12.746
REMARK INTER:                 -10.740
REMARK INTRA:                  -2.007
REMARK UNBOUND:                -2.805
REMARK  Name = lig_assembled_72.pdb
REMARK  20 active torsions:
REMARK  status: ('A' for Active; 'I' for Inactive)
REMARK    1  A    between atoms: _2  and  _9
REMARK    2  A    between atoms: _4  and  _17
REMARK    3  A    between atoms: _5  and  _9
REMARK    4  A    between atoms: _5  and  _12
REMARK    5  A    between atoms: _6  and  _7
REMARK    6  A    between atoms: _6  and  _17
REMARK    7  A    between atoms: _9  and  _10
REMARK    8  A    between atoms: _9  and  _11
REMARK    9  A    between atoms: _13  and  _33
REMARK   10  A    between atoms: _15  and  _21
REMARK   11  A    between atoms: _16  and  _20
REMARK   12  A    between atoms: _20  and  _21
REMARK   13  A    between atoms: _23  and  _24
REMARK   14  A    between atoms: _25  and  _26
REMARK   15  A    between atoms: _27  and  _29
REMARK   16  A    between atoms: _29  and  _30
REMARK   17  A    between atoms: _29  and  _31
REMARK   18  A    between atoms: _31  and  _32
REMARK   19  A    between atoms: _31  and  _33
REMARK   20  A    between atoms: _34  and  _36
REMARK                            x       y       z     vdW  Elec       q    Type
REMARK                         _______ _______ _______ _____ _____    ______ ____
ROOT
ATOM      1  C   UNL     1       6.970   3.780  33.579  0.00  0.00    +0.163 C 
ENDROOT
BRANCH   1   2
ATOM      2  O   UNL     1       7.636   4.912  32.996  0.00  0.00    -0.388 OA
ATOM      3  H   UNL     1       8.576   4.865  33.187  0.00  0.00    +0.210 HD
ENDBRANCH   1   2
BRANCH   1   4
ATOM      4  C   UNL     1       5.732   4.222  34.379  0.00  0.00    +0.175 C 
BRANCH   4   5
ATOM      5  C   UNL     1       6.064   5.328  35.392  0.00  0.00    +0.176 C 
ATOM      6  O   UNL     1       7.445   5.150  35.812  0.00  0.00    -0.332 OA
ATOM      7  C   UNL     1       7.973   6.184  36.706  0.00  0.00    +0.277 C 
ATOM      8  C   UNL     1       7.064   6.341  37.950  0.00  0.00    +0.110 C 
ATOM      9  C   UNL     1       5.581   6.501  37.555  0.00  0.00    +0.143 C 
ATOM     10  C   UNL     1       5.137   5.373  36.622  0.00  0.00    +0.133 C 
BRANCH  10  11
ATOM     11  N   UNL     1       3.749   5.584  36.183  0.00  0.00    -0.308 N 
ATOM     12  H   UNL     1       3.571   6.324  35.518  0.00  0.00    +0.149 HD
ATOM     13  C   UNL     1       2.708   4.863  36.607  0.00  0.00    +0.210 C 
ATOM     14  C   UNL     1       3.007   3.761  37.640  0.00  0.00    +0.109 C 
ATOM     15  O   UNL     1       1.557   5.052  36.211  0.00  0.00    -0.276 OA
ENDBRANCH  10  11
BRANCH   7  16
ATOM     16  C   UNL     1       8.082   7.538  35.974  0.00  0.00    +0.414 C 
ATOM     17  O   UNL     1       8.214   8.580  36.613  0.00  0.00    -0.240 OA
ATOM     18  O   UNL     1       8.037   7.587  34.744  0.00  0.00    -0.240 OA
ENDBRANCH   7  16
BRANCH   9  19
ATOM     19  O   UNL     1       4.766   6.489  38.728  0.00  0.00    -0.390 OA
ATOM     20  H   UNL     1       3.890   6.164  38.506  0.00  0.00    +0.210 HD
ENDBRANCH   9  19
BRANCH   7  21
ATOM     21  O   UNL     1       9.289   5.763  37.151  0.00  0.00    -0.343 OA
ATOM     22  C   UNL     1       9.699   4.450  36.693  0.00  0.00    +0.198 C 
ENDBRANCH   7  21
ENDBRANCH   4   5
BRANCH   4  23
ATOM     23  O   UNL     1       5.146   3.091  35.052  0.00  0.00    -0.387 OA
ATOM     24  H   UNL     1       5.246   3.195  36.001  0.00  0.00    +0.210 HD
ENDBRANCH   4  23
ENDBRANCH   1   4
BRANCH   1  25
ATOM     25  C   UNL     1       6.548   2.804  32.486  0.00  0.00    +0.141 C 
BRANCH  25  28
ATOM     26  C   UNL     1       4.268   2.425  31.611  0.00  0.00    +0.401 C 
ATOM     27  O   UNL     1       4.235   1.239  31.947  0.00  0.00    -0.226 OA
ATOM     28  N   UNL     1       5.312   3.229  31.819  0.00  0.00    -0.279 N 
ATOM     29  H   UNL     1       5.248   4.186  31.499  0.00  0.00    +0.152 HD
BRANCH  26  30
ATOM     30  O   UNL     1       3.132   2.993  30.955  0.00  0.00    -0.444 OA
BRANCH  30  31
ATOM     31  C   UNL     1       2.498   1.997  30.149  0.00  0.00    +0.292 C 
BRANCH  31  33
ATOM     32  N   UNL     1       0.932   3.627  29.146  0.00  0.00    -0.131 NA
ATOM     33  C   UNL     1       1.843   2.620  28.985  0.00  0.00    +0.120 A 
ATOM     34  C   UNL     1       1.988   2.357  27.639  0.00  0.00    +0.137 A 
ATOM     35  N   UNL     1       1.137   3.238  27.030  0.00  0.00    -0.244 N 
ATOM     36  N   UNL     1       0.507   3.997  27.948  0.00  0.00    -0.065 NA
BRANCH  35  37
ATOM     37  C   UNL     1       0.884   3.412  25.592  0.00  0.00    +0.083 C 
ATOM     38  C   UNL     1       0.209   2.142  25.040  0.00  0.00    +0.038 C 
ATOM     39  C   UNL     1       2.218   3.646  24.856  0.00  0.00    +0.038 C 
BRANCH  37  40
ATOM     40  C   UNL     1      -0.065   4.611  25.318  0.00  0.00    +0.185 C 
BRANCH  40  41
ATOM     41  O   UNL     1       0.603   5.715  24.712  0.00  0.00    -0.393 OA
ATOM     42  H   UNL     1       0.089   6.513  24.964  0.00  0.00    +0.209 HD
ENDBRANCH  40  41
ENDBRANCH  37  40
ENDBRANCH  35  37
ENDBRANCH  31  33
ENDBRANCH  30  31
ENDBRANCH  26  30
ENDBRANCH  25  28
ENDBRANCH   1  25
TORSDOF 16
