REMARK VINA RESULT:    -5.737      8.777     13.642
REMARK INTER + INTRA:         -12.800
REMARK INTER:                 -10.953
REMARK INTRA:                  -1.847
REMARK UNBOUND:                -2.536
REMARK  Name = lig_assembled_44.pdb
REMARK  17 active torsions:
REMARK  status: ('A' for Active; 'I' for Inactive)
REMARK    1  A    between atoms: _2  and  _9
REMARK    2  A    between atoms: _4  and  _19
REMARK    3  A    between atoms: _6  and  _7
REMARK    4  A    between atoms: _6  and  _19
REMARK    5  A    between atoms: _9  and  _10
REMARK    6  A    between atoms: _15  and  _35
REMARK    7  A    between atoms: _17  and  _23
REMARK    8  A    between atoms: _18  and  _22
REMARK    9  A    between atoms: _22  and  _23
REMARK   10  A    between atoms: _25  and  _26
REMARK   11  A    between atoms: _27  and  _28
REMARK   12  A    between atoms: _29  and  _31
REMARK   13  A    between atoms: _31  and  _32
REMARK   14  A    between atoms: _31  and  _33
REMARK   15  A    between atoms: _33  and  _34
REMARK   16  A    between atoms: _33  and  _35
REMARK   17  A    between atoms: _36  and  _38
REMARK                            x       y       z     vdW  Elec       q    Type
REMARK                         _______ _______ _______ _____ _____    ______ ____
ROOT
ATOM      1  C   UNL     1      10.108   3.155  35.091  0.00  0.00    +0.163 C 
ENDROOT
BRANCH   1   2
ATOM      2  O   UNL     1       9.907   2.263  33.982  0.00  0.00    -0.388 OA
ATOM      3  H   UNL     1       9.501   2.741  33.255  0.00  0.00    +0.210 HD
ENDBRANCH   1   2
BRANCH   1   4
ATOM      4  C   UNL     1      11.217   2.624  35.993  0.00  0.00    +0.141 C 
BRANCH   4   7
ATOM      5  C   UNL     1      13.233   3.933  35.421  0.00  0.00    +0.401 C 
ATOM      6  O   UNL     1      13.406   3.371  34.338  0.00  0.00    -0.226 OA
ATOM      7  N   UNL     1      12.239   3.643  36.262  0.00  0.00    -0.279 N 
ATOM      8  H   UNL     1      12.187   4.152  37.133  0.00  0.00    +0.152 HD
BRANCH   5   9
ATOM      9  O   UNL     1      14.144   4.959  35.825  0.00  0.00    -0.444 OA
BRANCH   9  10
ATOM     10  C   UNL     1      15.342   4.867  35.048  0.00  0.00    +0.292 C 
BRANCH  10  12
ATOM     11  N   UNL     1      16.821   6.361  33.736  0.00  0.00    -0.131 NA
ATOM     12  C   UNL     1      15.655   6.169  34.429  0.00  0.00    +0.120 A 
ATOM     13  C   UNL     1      14.918   7.329  34.401  0.00  0.00    +0.137 A 
ATOM     14  N   UNL     1      15.652   8.165  33.611  0.00  0.00    -0.247 N 
ATOM     15  N   UNL     1      16.814   7.594  33.246  0.00  0.00    -0.065 NA
BRANCH  14  16
ATOM     16  C   UNL     1      15.316   9.503  33.164  0.00  0.00    +0.180 C 
BRANCH  16  17
ATOM     17  C   UNL     1      16.254  10.533  33.749  0.00  0.00    -0.026 A 
ATOM     18  C   UNL     1      16.332  10.723  35.137  0.00  0.00    +0.006 A 
ATOM     19  C   UNL     1      17.188  11.687  35.674  0.00  0.00    +0.015 A 
ATOM     20  C   UNL     1      17.970  12.467  34.825  0.00  0.00    +0.018 A 
ATOM     21 BR   UNL     1      19.141  13.760  35.555  0.00  0.00    -0.050 Br
ATOM     22  C   UNL     1      17.896  12.301  33.444  0.00  0.00    +0.015 A 
ATOM     23  C   UNL     1      17.036  11.339  32.906  0.00  0.00    +0.006 A 
ENDBRANCH  16  17
ENDBRANCH  14  16
ENDBRANCH  10  12
ENDBRANCH   9  10
ENDBRANCH   5   9
ENDBRANCH   4   7
ENDBRANCH   1   4
BRANCH   1  24
ATOM     24  C   UNL     1       8.815   3.318  35.908  0.00  0.00    +0.175 C 
BRANCH  24  25
ATOM     25  C   UNL     1       7.977   4.514  35.432  0.00  0.00    +0.176 C 
ATOM     26  O   UNL     1       7.659   5.328  36.594  0.00  0.00    -0.332 OA
ATOM     27  C   UNL     1       6.947   6.579  36.316  0.00  0.00    +0.277 C 
ATOM     28  C   UNL     1       5.659   6.299  35.504  0.00  0.00    +0.110 C 
ATOM     29  C   UNL     1       5.942   5.410  34.274  0.00  0.00    +0.143 C 
ATOM     30  C   UNL     1       6.688   4.138  34.678  0.00  0.00    +0.133 C 
BRANCH  30  31
ATOM     31  N   UNL     1       7.029   3.341  33.489  0.00  0.00    -0.308 N 
ATOM     32  H   UNL     1       7.689   3.733  32.832  0.00  0.00    +0.149 HD
ATOM     33  C   UNL     1       6.522   2.135  33.220  0.00  0.00    +0.210 C 
ATOM     34  C   UNL     1       5.499   1.577  34.227  0.00  0.00    +0.109 C 
ATOM     35  O   UNL     1       6.837   1.484  32.223  0.00  0.00    -0.276 OA
ENDBRANCH  30  31
BRANCH  27  36
ATOM     36  C   UNL     1       7.847   7.558  35.534  0.00  0.00    +0.414 C 
ATOM     37  O   UNL     1       9.012   7.743  35.884  0.00  0.00    -0.240 OA
ATOM     38  O   UNL     1       7.409   8.162  34.555  0.00  0.00    -0.240 OA
ENDBRANCH  27  36
BRANCH  27  39
ATOM     39  O   UNL     1       6.568   7.171  37.585  0.00  0.00    -0.343 OA
ATOM     40  C   UNL     1       7.323   6.701  38.730  0.00  0.00    +0.198 C 
ENDBRANCH  27  39
BRANCH  29  41
ATOM     41  O   UNL     1       4.711   5.054  33.643  0.00  0.00    -0.390 OA
ATOM     42  H   UNL     1       4.224   4.450  34.209  0.00  0.00    +0.210 HD
ENDBRANCH  29  41
ENDBRANCH  24  25
BRANCH  24  43
ATOM     43  O   UNL     1       9.127   3.456  37.309  0.00  0.00    -0.387 OA
ATOM     44  H   UNL     1       8.745   2.722  37.796  0.00  0.00    +0.210 HD
ENDBRANCH  24  43
ENDBRANCH   1  24
TORSDOF 15
