REMARK VINA RESULT:    -6.768     19.726     24.157
REMARK INTER + INTRA:         -14.571
REMARK INTER:                 -12.504
REMARK INTRA:                  -2.067
REMARK UNBOUND:                -2.067
REMARK  Name = lig_assembled_79.pdb
REMARK  20 active torsions:
REMARK  status: ('A' for Active; 'I' for Inactive)
REMARK    1  A    between atoms: _2  and  _10
REMARK    2  A    between atoms: _5  and  _26
REMARK    3  A    between atoms: _7  and  _8
REMARK    4  A    between atoms: _7  and  _26
REMARK    5  A    between atoms: _10  and  _11
REMARK    6  A    between atoms: _10  and  _12
REMARK    7  A    between atoms: _10  and  _13
REMARK    8  A    between atoms: _13  and  _14
REMARK    9  A    between atoms: _22  and  _42
REMARK   10  A    between atoms: _24  and  _30
REMARK   11  A    between atoms: _25  and  _29
REMARK   12  A    between atoms: _29  and  _30
REMARK   13  A    between atoms: _32  and  _33
REMARK   14  A    between atoms: _34  and  _35
REMARK   15  A    between atoms: _36  and  _38
REMARK   16  A    between atoms: _38  and  _39
REMARK   17  A    between atoms: _38  and  _40
REMARK   18  A    between atoms: _40  and  _41
REMARK   19  A    between atoms: _40  and  _42
REMARK   20  A    between atoms: _43  and  _45
REMARK                            x       y       z     vdW  Elec       q    Type
REMARK                         _______ _______ _______ _____ _____    ______ ____
ROOT
ATOM      1  C   UNL     1      13.131   1.997  36.689  0.00  0.00    +0.401 C 
ATOM      2  O   UNL     1      12.959   1.151  37.569  0.00  0.00    -0.226 OA
ATOM      3  N   UNL     1      12.154   2.488  35.925  0.00  0.00    -0.279 N 
ATOM      4  H   UNL     1      12.392   3.187  35.236  0.00  0.00    +0.152 HD
ENDROOT
BRANCH   3   5
ATOM      5  C   UNL     1      10.750   2.069  36.030  0.00  0.00    +0.141 C 
BRANCH   5   6
ATOM      6  C   UNL     1       9.829   2.954  35.196  0.00  0.00    +0.163 C 
BRANCH   6   7
ATOM      7  O   UNL     1       9.666   2.392  33.883  0.00  0.00    -0.388 OA
ATOM      8  H   UNL     1       9.791   1.441  33.924  0.00  0.00    +0.210 HD
ENDBRANCH   6   7
BRANCH   6   9
ATOM      9  C   UNL     1       8.472   3.097  35.906  0.00  0.00    +0.175 C 
BRANCH   9  10
ATOM     10  C   UNL     1       7.719   4.360  35.463  0.00  0.00    +0.176 C 
ATOM     11  O   UNL     1       7.399   5.131  36.654  0.00  0.00    -0.332 OA
ATOM     12  C   UNL     1       6.766   6.431  36.416  0.00  0.00    +0.277 C 
ATOM     13  C   UNL     1       5.497   6.264  35.544  0.00  0.00    +0.110 C 
ATOM     14  C   UNL     1       5.781   5.424  34.281  0.00  0.00    +0.143 C 
ATOM     15  C   UNL     1       6.442   4.094  34.645  0.00  0.00    +0.133 C 
BRANCH  15  16
ATOM     16  N   UNL     1       6.786   3.340  33.429  0.00  0.00    -0.308 N 
ATOM     17  H   UNL     1       7.446   3.756  32.787  0.00  0.00    +0.149 HD
ATOM     18  C   UNL     1       6.282   2.143  33.117  0.00  0.00    +0.210 C 
ATOM     19  C   UNL     1       5.259   1.548  34.103  0.00  0.00    +0.109 C 
ATOM     20  O   UNL     1       6.600   1.528  32.099  0.00  0.00    -0.276 OA
ENDBRANCH  15  16
BRANCH  12  21
ATOM     21  C   UNL     1       7.747   7.398  35.719  0.00  0.00    +0.414 C 
ATOM     22  O   UNL     1       8.930   7.429  36.056  0.00  0.00    -0.240 OA
ATOM     23  O   UNL     1       7.355   8.144  34.822  0.00  0.00    -0.240 OA
ENDBRANCH  12  21
BRANCH  14  24
ATOM     24  O   UNL     1       4.558   5.168  33.588  0.00  0.00    -0.390 OA
ATOM     25  H   UNL     1       4.635   5.471  32.681  0.00  0.00    +0.210 HD
ENDBRANCH  14  24
BRANCH  12  26
ATOM     26  O   UNL     1       6.370   6.979  37.700  0.00  0.00    -0.343 OA
ATOM     27  C   UNL     1       5.305   6.259  38.371  0.00  0.00    +0.198 C 
ENDBRANCH  12  26
ENDBRANCH   9  10
BRANCH   9  28
ATOM     28  O   UNL     1       8.659   3.106  37.336  0.00  0.00    -0.387 OA
ATOM     29  H   UNL     1       9.333   2.466  37.575  0.00  0.00    +0.210 HD
ENDBRANCH   9  28
ENDBRANCH   6   9
ENDBRANCH   5   6
ENDBRANCH   3   5
BRANCH   1  30
ATOM     30  O   UNL     1      14.449   2.501  36.458  0.00  0.00    -0.444 OA
BRANCH  30  31
ATOM     31  C   UNL     1      14.572   2.907  35.092  0.00  0.00    +0.292 C 
BRANCH  31  33
ATOM     32  N   UNL     1      14.120   5.279  35.597  0.00  0.00    -0.131 NA
ATOM     33  C   UNL     1      14.920   4.338  35.018  0.00  0.00    +0.120 A 
ATOM     34  C   UNL     1      15.989   4.963  34.416  0.00  0.00    +0.138 A 
ATOM     35  N   UNL     1      15.840   6.284  34.738  0.00  0.00    -0.238 N 
ATOM     36  N   UNL     1      14.662   6.466  35.384  0.00  0.00    -0.064 NA
BRANCH  35  37
ATOM     37  C   UNL     1      16.628   7.483  34.328  0.00  0.00    +0.122 C 
ATOM     38  C   UNL     1      18.084   7.003  34.123  0.00  0.00    +0.044 C 
ATOM     39  C   UNL     1      16.437   8.495  35.475  0.00  0.00    +0.044 C 
BRANCH  37  40
ATOM     40  C   UNL     1      16.156   8.103  32.996  0.00  0.00    +0.192 C 
ATOM     41  O   UNL     1      15.063   7.788  32.515  0.00  0.00    -0.289 OA
BRANCH  40  42
ATOM     42  C   UNL     1      16.983   9.075  32.224  0.00  0.00    +0.045 A 
ATOM     43  C   UNL     1      16.912  10.432  32.519  0.00  0.00    +0.095 A 
ATOM     44  N   UNL     1      17.723  11.129  31.677  0.00  0.00    -0.360 N 
ATOM     45  H   UNL     1      17.843  12.133  31.677  0.00  0.00    +0.165 HD
ATOM     46  C   UNL     1      18.351  10.269  30.813  0.00  0.00    +0.047 A 
ATOM     47  C   UNL     1      19.257  10.564  29.783  0.00  0.00    +0.026 A 
ATOM     48  C   UNL     1      19.762   9.508  29.027  0.00  0.00    +0.002 A 
ATOM     49  C   UNL     1      19.376   8.204  29.294  0.00  0.00    +0.001 A 
ATOM     50  C   UNL     1      18.471   7.931  30.327  0.00  0.00    +0.011 A 
ATOM     51  C   UNL     1      17.925   8.970  31.122  0.00  0.00    +0.010 A 
ENDBRANCH  40  42
ENDBRANCH  37  40
ENDBRANCH  35  37
ENDBRANCH  31  33
ENDBRANCH  30  31
ENDBRANCH   1  30
TORSDOF 16
