REMARK VINA RESULT:    -5.934      7.934     10.348
REMARK INTER + INTRA:         -13.153
REMARK INTER:                  -9.613
REMARK INTRA:                  -3.539
REMARK UNBOUND:                -2.536
REMARK  Name = lig_assembled_44.pdb
REMARK  17 active torsions:
REMARK  status: ('A' for Active; 'I' for Inactive)
REMARK    1  A    between atoms: _2  and  _9
REMARK    2  A    between atoms: _4  and  _19
REMARK    3  A    between atoms: _6  and  _7
REMARK    4  A    between atoms: _6  and  _19
REMARK    5  A    between atoms: _9  and  _10
REMARK    6  A    between atoms: _15  and  _35
REMARK    7  A    between atoms: _17  and  _23
REMARK    8  A    between atoms: _18  and  _22
REMARK    9  A    between atoms: _22  and  _23
REMARK   10  A    between atoms: _25  and  _26
REMARK   11  A    between atoms: _27  and  _28
REMARK   12  A    between atoms: _29  and  _31
REMARK   13  A    between atoms: _31  and  _32
REMARK   14  A    between atoms: _31  and  _33
REMARK   15  A    between atoms: _33  and  _34
REMARK   16  A    between atoms: _33  and  _35
REMARK   17  A    between atoms: _36  and  _38
REMARK                            x       y       z     vdW  Elec       q    Type
REMARK                         _______ _______ _______ _____ _____    ______ ____
ROOT
ATOM      1  C   UNL     1       3.274   5.632  36.547  0.00  0.00    +0.163 C 
ENDROOT
BRANCH   1   2
ATOM      2  O   UNL     1       2.059   6.292  36.939  0.00  0.00    -0.388 OA
ATOM      3  H   UNL     1       1.427   6.255  36.216  0.00  0.00    +0.210 HD
ENDBRANCH   1   2
BRANCH   1   4
ATOM      4  C   UNL     1       2.993   4.168  36.227  0.00  0.00    +0.141 C 
BRANCH   4   7
ATOM      5  C   UNL     1       3.647   3.617  33.909  0.00  0.00    +0.401 C 
ATOM      6  O   UNL     1       2.592   4.022  33.415  0.00  0.00    -0.226 OA
ATOM      7  N   UNL     1       3.917   3.641  35.215  0.00  0.00    -0.279 N 
ATOM      8  H   UNL     1       4.807   3.277  35.525  0.00  0.00    +0.152 HD
BRANCH   5   9
ATOM      9  O   UNL     1       4.655   3.080  33.049  0.00  0.00    -0.444 OA
BRANCH   9  10
ATOM     10  C   UNL     1       4.621   1.652  33.106  0.00  0.00    +0.292 C 
BRANCH  10  12
ATOM     11  N   UNL     1       6.891   1.049  32.312  0.00  0.00    -0.131 NA
ATOM     12  C   UNL     1       5.976   1.113  33.330  0.00  0.00    +0.120 A 
ATOM     13  C   UNL     1       6.552   0.633  34.483  0.00  0.00    +0.137 A 
ATOM     14  N   UNL     1       7.839   0.366  34.121  0.00  0.00    -0.247 N 
ATOM     15  N   UNL     1       8.029   0.578  32.806  0.00  0.00    -0.065 NA
BRANCH  14  16
ATOM     16  C   UNL     1       8.933  -0.087  34.958  0.00  0.00    +0.180 C 
BRANCH  16  17
ATOM     17  C   UNL     1       9.696   1.075  35.548  0.00  0.00    -0.026 A 
ATOM     18  C   UNL     1       9.354   1.590  36.809  0.00  0.00    +0.006 A 
ATOM     19  C   UNL     1      10.051   2.674  37.345  0.00  0.00    +0.015 A 
ATOM     20  C   UNL     1      11.095   3.251  36.623  0.00  0.00    +0.018 A 
ATOM     21 BR   UNL     1      12.048   4.708  37.358  0.00  0.00    -0.050 Br
ATOM     22  C   UNL     1      11.440   2.761  35.366  0.00  0.00    +0.015 A 
ATOM     23  C   UNL     1      10.738   1.679  34.827  0.00  0.00    +0.006 A 
ENDBRANCH  16  17
ENDBRANCH  14  16
ENDBRANCH  10  12
ENDBRANCH   9  10
ENDBRANCH   5   9
ENDBRANCH   4   7
ENDBRANCH   1   4
BRANCH   1  24
ATOM     24  C   UNL     1       4.332   5.722  37.660  0.00  0.00    +0.175 C 
BRANCH  24  25
ATOM     25  C   UNL     1       5.656   6.314  37.154  0.00  0.00    +0.176 C 
ATOM     26  O   UNL     1       5.986   5.660  35.897  0.00  0.00    -0.332 OA
ATOM     27  C   UNL     1       7.172   6.176  35.207  0.00  0.00    +0.277 C 
ATOM     28  C   UNL     1       8.400   6.148  36.150  0.00  0.00    +0.110 C 
ATOM     29  C   UNL     1       8.088   6.804  37.511  0.00  0.00    +0.143 C 
ATOM     30  C   UNL     1       6.834   6.195  38.138  0.00  0.00    +0.133 C 
BRANCH  30  31
ATOM     31  N   UNL     1       6.497   6.886  39.393  0.00  0.00    -0.308 N 
ATOM     32  H   UNL     1       6.185   7.845  39.334  0.00  0.00    +0.149 HD
ATOM     33  C   UNL     1       6.577   6.329  40.604  0.00  0.00    +0.210 C 
ATOM     34  C   UNL     1       7.080   4.875  40.663  0.00  0.00    +0.109 C 
ATOM     35  O   UNL     1       6.274   6.928  41.637  0.00  0.00    -0.276 OA
ENDBRANCH  30  31
BRANCH  27  36
ATOM     36  C   UNL     1       6.934   7.618  34.712  0.00  0.00    +0.414 C 
ATOM     37  O   UNL     1       5.817   7.966  34.331  0.00  0.00    -0.240 OA
ATOM     38  O   UNL     1       7.858   8.432  34.694  0.00  0.00    -0.240 OA
ENDBRANCH  27  36
BRANCH  27  39
ATOM     39  O   UNL     1       7.445   5.310  34.075  0.00  0.00    -0.343 OA
ATOM     40  C   UNL     1       7.924   3.985  34.419  0.00  0.00    +0.198 C 
ENDBRANCH  27  39
BRANCH  29  41
ATOM     41  O   UNL     1       9.193   6.622  38.398  0.00  0.00    -0.390 OA
ATOM     42  H   UNL     1       9.536   5.730  38.305  0.00  0.00    +0.210 HD
ENDBRANCH  29  41
ENDBRANCH  24  25
BRANCH  24  43
ATOM     43  O   UNL     1       4.559   4.419  38.236  0.00  0.00    -0.387 OA
ATOM     44  H   UNL     1       5.153   3.919  37.672  0.00  0.00    +0.210 HD
ENDBRANCH  24  43
ENDBRANCH   1  24
TORSDOF 15
