REMARK VINA RESULT:    -5.662      1.876      2.950
REMARK INTER + INTRA:         -16.001
REMARK INTER:                 -12.090
REMARK INTRA:                  -3.911
REMARK UNBOUND:                -2.725
REMARK  Name = lig_assembled_30.pdb
REMARK  27 active torsions:
REMARK  status: ('A' for Active; 'I' for Inactive)
REMARK    1  A    between atoms: _2  and  _9
REMARK    2  A    between atoms: _4  and  _25
REMARK    3  A    between atoms: _5  and  _18
REMARK    4  A    between atoms: _5  and  _19
REMARK    5  A    between atoms: _6  and  _7
REMARK    6  A    between atoms: _6  and  _25
REMARK    7  A    between atoms: _9  and  _10
REMARK    8  A    between atoms: _10  and  _11
REMARK    9  A    between atoms: _11  and  _12
REMARK   10  A    between atoms: _12  and  _13
REMARK   11  A    between atoms: _13  and  _14
REMARK   12  A    between atoms: _14  and  _15
REMARK   13  A    between atoms: _15  and  _16
REMARK   14  A    between atoms: _16  and  _17
REMARK   15  A    between atoms: _17  and  _18
REMARK   16  A    between atoms: _21  and  _41
REMARK   17  A    between atoms: _23  and  _29
REMARK   18  A    between atoms: _24  and  _28
REMARK   19  A    between atoms: _28  and  _29
REMARK   20  A    between atoms: _31  and  _32
REMARK   21  A    between atoms: _33  and  _34
REMARK   22  A    between atoms: _35  and  _37
REMARK   23  A    between atoms: _37  and  _38
REMARK   24  A    between atoms: _37  and  _39
REMARK   25  A    between atoms: _39  and  _40
REMARK   26  A    between atoms: _39  and  _41
REMARK   27  A    between atoms: _42  and  _44
REMARK                            x       y       z     vdW  Elec       q    Type
REMARK                         _______ _______ _______ _____ _____    ______ ____
ROOT
ATOM      1  C   UNL     1      19.803   9.751  26.679  0.00  0.00    +0.401 C 
ATOM      2  O   UNL     1      20.211  10.802  26.179  0.00  0.00    -0.226 OA
ATOM      3  N   UNL     1      19.182   9.677  27.857  0.00  0.00    -0.279 N 
ATOM      4  H   UNL     1      18.875   8.770  28.179  0.00  0.00    +0.152 HD
ENDROOT
BRANCH   1   5
ATOM      5  O   UNL     1      19.991   8.524  25.968  0.00  0.00    -0.444 OA
BRANCH   5   6
ATOM      6  C   UNL     1      18.860   7.674  26.175  0.00  0.00    +0.292 C 
BRANCH   6   8
ATOM      7  N   UNL     1      18.579   5.227  26.427  0.00  0.00    -0.131 NA
ATOM      8  C   UNL     1      19.190   6.285  25.806  0.00  0.00    +0.120 A 
ATOM      9  C   UNL     1      20.081   5.806  24.872  0.00  0.00    +0.137 A 
ATOM     10  N   UNL     1      19.964   4.453  24.976  0.00  0.00    -0.251 N 
ATOM     11  N   UNL     1      19.064   4.106  25.909  0.00  0.00    -0.065 NA
BRANCH  10  12
ATOM     12  C   UNL     1      20.702   3.439  24.253  0.00  0.00    +0.145 C 
BRANCH  12  13
ATOM     13  C   UNL     1      19.918   2.134  24.178  0.00  0.00    +0.023 C 
BRANCH  13  14
ATOM     14  C   UNL     1      19.899   1.558  22.764  0.00  0.00    +0.002 C 
BRANCH  14  15
ATOM     15  C   UNL     1      18.521   1.756  22.133  0.00  0.00    +0.000 C 
BRANCH  15  16
ATOM     16  C   UNL     1      17.905   0.431  21.690  0.00  0.00    +0.000 C 
BRANCH  16  17
ATOM     17  C   UNL     1      18.454  -0.728  22.523  0.00  0.00    +0.000 C 
BRANCH  17  18
ATOM     18  C   UNL     1      17.351  -1.364  23.365  0.00  0.00    +0.000 C 
BRANCH  18  19
ATOM     19  C   UNL     1      17.425  -0.913  24.824  0.00  0.00    +0.001 C 
BRANCH  19  20
ATOM     20  C   UNL     1      16.160  -0.147  25.210  0.00  0.00    +0.011 C 
BRANCH  20  21
ATOM     21  C   UNL     1      16.394   1.361  25.240  0.00  0.00    +0.120 C 
BRANCH  21  22
ATOM     22  C   UNL     1      16.780   1.834  26.623  0.00  0.00    +0.305 C 
ATOM     23  O   UNL     1      17.563   1.269  27.372  0.00  0.00    -0.251 OA
BRANCH  22  24
ATOM     24  O   UNL     1      16.156   2.983  26.968  0.00  0.00    -0.481 OA
ATOM     25  H   UNL     1      16.207   3.677  26.284  0.00  0.00    +0.295 HD
ENDBRANCH  22  24
ENDBRANCH  21  22
ENDBRANCH  20  21
ENDBRANCH  19  20
ENDBRANCH  18  19
ENDBRANCH  17  18
ENDBRANCH  16  17
ENDBRANCH  15  16
ENDBRANCH  14  15
ENDBRANCH  13  14
ENDBRANCH  12  13
ENDBRANCH  10  12
ENDBRANCH   6   8
ENDBRANCH   5   6
ENDBRANCH   1   5
BRANCH   3  26
ATOM     26  C   UNL     1      18.920  10.841  28.713  0.00  0.00    +0.141 C 
BRANCH  26  27
ATOM     27  C   UNL     1      18.499  10.428  30.120  0.00  0.00    +0.163 C 
BRANCH  27  28
ATOM     28  O   UNL     1      17.117  10.759  30.336  0.00  0.00    -0.388 OA
ATOM     29  H   UNL     1      16.703  10.076  30.869  0.00  0.00    +0.210 HD
ENDBRANCH  27  28
BRANCH  27  30
ATOM     30  C   UNL     1      18.738   8.920  30.306  0.00  0.00    +0.175 C 
BRANCH  30  31
ATOM     31  C   UNL     1      17.888   8.336  31.444  0.00  0.00    +0.176 C 
ATOM     32  O   UNL     1      17.900   9.286  32.545  0.00  0.00    -0.332 OA
ATOM     33  C   UNL     1      17.049   8.943  33.688  0.00  0.00    +0.277 C 
ATOM     34  C   UNL     1      17.393   7.528  34.214  0.00  0.00    +0.110 C 
ATOM     35  C   UNL     1      17.423   6.489  33.074  0.00  0.00    +0.143 C 
ATOM     36  C   UNL     1      18.336   6.948  31.936  0.00  0.00    +0.133 C 
BRANCH  36  37
ATOM     37  N   UNL     1      18.289   5.991  30.820  0.00  0.00    -0.308 N 
ATOM     38  H   UNL     1      17.436   5.939  30.279  0.00  0.00    +0.149 HD
ATOM     39  C   UNL     1      19.298   5.187  30.473  0.00  0.00    +0.210 C 
ATOM     40  C   UNL     1      20.573   5.272  31.333  0.00  0.00    +0.109 C 
ATOM     41  O   UNL     1      19.235   4.406  29.523  0.00  0.00    -0.276 OA
ENDBRANCH  36  37
BRANCH  33  42
ATOM     42  C   UNL     1      15.558   8.999  33.295  0.00  0.00    +0.414 C 
ATOM     43  O   UNL     1      15.122   9.951  32.648  0.00  0.00    -0.240 OA
ATOM     44  O   UNL     1      14.791   8.093  33.625  0.00  0.00    -0.240 OA
ENDBRANCH  33  42
BRANCH  35  45
ATOM     45  O   UNL     1      17.890   5.236  33.576  0.00  0.00    -0.390 OA
ATOM     46  H   UNL     1      17.169   4.777  34.013  0.00  0.00    +0.210 HD
ENDBRANCH  35  45
BRANCH  33  47
ATOM     47  O   UNL     1      17.311   9.901  34.746  0.00  0.00    -0.343 OA
ATOM     48  C   UNL     1      16.921   9.468  36.074  0.00  0.00    +0.198 C 
ENDBRANCH  33  47
ENDBRANCH  30  31
BRANCH  30  49
ATOM     49  O   UNL     1      20.136   8.666  30.551  0.00  0.00    -0.387 OA
ATOM     50  H   UNL     1      20.554   8.366  29.740  0.00  0.00    +0.210 HD
ENDBRANCH  30  49
ENDBRANCH  27  30
ENDBRANCH  26  27
ENDBRANCH   3  26
TORSDOF 25
