REMARK VINA RESULT:    -6.497     13.728     15.611
REMARK INTER + INTRA:         -13.438
REMARK INTER:                 -10.790
REMARK INTRA:                  -2.648
REMARK UNBOUND:                -1.813
REMARK  Name = lig_assembled_41.pdb
REMARK  18 active torsions:
REMARK  status: ('A' for Active; 'I' for Inactive)
REMARK    1  A    between atoms: _2  and  _9
REMARK    2  A    between atoms: _4  and  _21
REMARK    3  A    between atoms: _6  and  _7
REMARK    4  A    between atoms: _6  and  _21
REMARK    5  A    between atoms: _10  and  _11
REMARK    6  A    between atoms: _11  and  _12
REMARK    7  A    between atoms: _17  and  _37
REMARK    8  A    between atoms: _19  and  _25
REMARK    9  A    between atoms: _20  and  _24
REMARK   10  A    between atoms: _24  and  _25
REMARK   11  A    between atoms: _27  and  _28
REMARK   12  A    between atoms: _29  and  _30
REMARK   13  A    between atoms: _31  and  _33
REMARK   14  A    between atoms: _33  and  _34
REMARK   15  A    between atoms: _33  and  _35
REMARK   16  A    between atoms: _35  and  _36
REMARK   17  A    between atoms: _35  and  _37
REMARK   18  A    between atoms: _38  and  _40
REMARK                            x       y       z     vdW  Elec       q    Type
REMARK                         _______ _______ _______ _____ _____    ______ ____
ROOT
ATOM      1  C   UNL     1      18.588  10.278  29.170  0.00  0.00    +0.163 C 
ENDROOT
BRANCH   1   2
ATOM      2  O   UNL     1      17.347  10.878  29.576  0.00  0.00    -0.388 OA
ATOM      3  H   UNL     1      16.788  11.010  28.806  0.00  0.00    +0.210 HD
ENDBRANCH   1   2
BRANCH   1   4
ATOM      4  C   UNL     1      18.608  10.093  27.656  0.00  0.00    +0.141 C 
BRANCH   4   7
ATOM      5  C   UNL     1      20.266   8.738  26.424  0.00  0.00    +0.401 C 
ATOM      6  O   UNL     1      20.791   9.709  25.874  0.00  0.00    -0.226 OA
ATOM      7  N   UNL     1      19.237   8.825  27.267  0.00  0.00    -0.279 N 
ATOM      8  H   UNL     1      18.869   7.970  27.661  0.00  0.00    +0.152 HD
BRANCH   5   9
ATOM      9  O   UNL     1      20.773   7.429  26.153  0.00  0.00    -0.444 OA
BRANCH   9  10
ATOM     10  C   UNL     1      20.386   7.029  24.836  0.00  0.00    +0.292 C 
BRANCH  10  12
ATOM     11  N   UNL     1      20.661   4.681  24.135  0.00  0.00    -0.131 NA
ATOM     12  C   UNL     1      19.960   5.618  24.831  0.00  0.00    +0.121 A 
ATOM     13  C   UNL     1      18.902   5.007  25.468  0.00  0.00    +0.143 A 
ATOM     14  N   UNL     1      18.933   3.699  25.042  0.00  0.00    -0.219 N 
ATOM     15  N   UNL     1      20.066   3.511  24.310  0.00  0.00    -0.060 NA
BRANCH  14  16
ATOM     16  C   UNL     1      18.074   2.603  25.340  0.00  0.00    +0.077 A 
ATOM     17  C   UNL     1      17.088   2.093  24.469  0.00  0.00    +0.043 A 
ATOM     18  C   UNL     1      16.272   1.032  24.915  0.00  0.00    +0.013 A 
ATOM     19  C   UNL     1      16.419   0.491  26.194  0.00  0.00    +0.001 A 
ATOM     20  C   UNL     1      17.405   0.975  27.041  0.00  0.00    +0.002 A 
ATOM     21  C   UNL     1      18.232   2.013  26.615  0.00  0.00    +0.028 A 
BRANCH  17  22
ATOM     22  C   UNL     1      16.984   2.459  23.024  0.00  0.00    +0.162 C 
ATOM     23  O   UNL     1      16.286   3.416  22.694  0.00  0.00    -0.292 OA
ATOM     24  C   UNL     1      17.731   1.663  21.981  0.00  0.00    +0.091 C 
ENDBRANCH  17  22
ENDBRANCH  14  16
ENDBRANCH  10  12
ENDBRANCH   9  10
ENDBRANCH   5   9
ENDBRANCH   4   7
ENDBRANCH   1   4
BRANCH   1  25
ATOM     25  C   UNL     1      18.791   8.916  29.856  0.00  0.00    +0.175 C 
BRANCH  25  26
ATOM     26  C   UNL     1      18.062   8.834  31.206  0.00  0.00    +0.176 C 
ATOM     27  O   UNL     1      18.352  10.053  31.945  0.00  0.00    -0.332 OA
ATOM     28  C   UNL     1      17.652  10.200  33.224  0.00  0.00    +0.277 C 
ATOM     29  C   UNL     1      17.906   8.968  34.126  0.00  0.00    +0.110 C 
ATOM     30  C   UNL     1      17.641   7.647  33.373  0.00  0.00    +0.143 C 
ATOM     31  C   UNL     1      18.417   7.601  32.056  0.00  0.00    +0.133 C 
BRANCH  31  32
ATOM     32  N   UNL     1      18.089   6.377  31.308  0.00  0.00    -0.308 N 
ATOM     33  H   UNL     1      17.153   6.287  30.937  0.00  0.00    +0.149 HD
ATOM     34  C   UNL     1      18.947   5.377  31.086  0.00  0.00    +0.210 C 
ATOM     35  C   UNL     1      20.357   5.533  31.686  0.00  0.00    +0.109 C 
ATOM     36  O   UNL     1      18.649   4.371  30.443  0.00  0.00    -0.276 OA
ENDBRANCH  31  32
BRANCH  28  37
ATOM     37  C   UNL     1      16.135  10.371  33.000  0.00  0.00    +0.414 C 
ATOM     38  O   UNL     1      15.332   9.723  33.671  0.00  0.00    -0.240 OA
ATOM     39  O   UNL     1      15.714  11.156  32.149  0.00  0.00    -0.240 OA
ENDBRANCH  28  37
BRANCH  30  40
ATOM     40  O   UNL     1      18.032   6.541  34.188  0.00  0.00    -0.390 OA
ATOM     41  H   UNL     1      18.528   6.861  34.945  0.00  0.00    +0.210 HD
ENDBRANCH  30  40
BRANCH  28  42
ATOM     42  O   UNL     1      18.181  11.374  33.893  0.00  0.00    -0.343 OA
ATOM     43  C   UNL     1      19.053  12.200  33.081  0.00  0.00    +0.198 C 
ENDBRANCH  28  42
ENDBRANCH  25  26
BRANCH  25  44
ATOM     44  O   UNL     1      20.197   8.654  30.034  0.00  0.00    -0.387 OA
ATOM     45  H   UNL     1      20.689   9.037  29.304  0.00  0.00    +0.210 HD
ENDBRANCH  25  44
ENDBRANCH   1  25
TORSDOF 15
