REMARK VINA RESULT:    -5.603     18.681     22.190
REMARK INTER + INTRA:         -13.321
REMARK INTER:                 -11.257
REMARK INTRA:                  -2.063
REMARK UNBOUND:                -2.640
REMARK  Name = lig_assembled_29.pdb
REMARK  21 active torsions:
REMARK  status: ('A' for Active; 'I' for Inactive)
REMARK    1  A    between atoms: _2  and  _9
REMARK    2  A    between atoms: _4  and  _23
REMARK    3  A    between atoms: _6  and  _7
REMARK    4  A    between atoms: _6  and  _23
REMARK    5  A    between atoms: _9  and  _10
REMARK    6  A    between atoms: _12  and  _18
REMARK    7  A    between atoms: _13  and  _18
REMARK    8  A    between atoms: _14  and  _17
REMARK    9  A    between atoms: _15  and  _17
REMARK   10  A    between atoms: _19  and  _39
REMARK   11  A    between atoms: _21  and  _27
REMARK   12  A    between atoms: _22  and  _26
REMARK   13  A    between atoms: _26  and  _27
REMARK   14  A    between atoms: _29  and  _30
REMARK   15  A    between atoms: _31  and  _32
REMARK   16  A    between atoms: _33  and  _35
REMARK   17  A    between atoms: _35  and  _36
REMARK   18  A    between atoms: _35  and  _37
REMARK   19  A    between atoms: _37  and  _38
REMARK   20  A    between atoms: _37  and  _39
REMARK   21  A    between atoms: _40  and  _42
REMARK                            x       y       z     vdW  Elec       q    Type
REMARK                         _______ _______ _______ _____ _____    ______ ____
ROOT
ATOM      1  C   UNL     1      19.207   4.897  24.564  0.00  0.00    +0.163 C 
ENDROOT
BRANCH   1   2
ATOM      2  O   UNL     1      18.264   4.831  25.647  0.00  0.00    -0.388 OA
ATOM      3  H   UNL     1      17.424   5.200  25.364  0.00  0.00    +0.210 HD
ENDBRANCH   1   2
BRANCH   1   4
ATOM      4  C   UNL     1      19.116   3.643  23.679  0.00  0.00    +0.175 C 
BRANCH   4   5
ATOM      5  C   UNL     1      18.240   2.551  24.311  0.00  0.00    +0.176 C 
ATOM      6  O   UNL     1      18.821   2.202  25.598  0.00  0.00    -0.332 OA
ATOM      7  C   UNL     1      18.055   1.242  26.399  0.00  0.00    +0.277 C 
ATOM      8  C   UNL     1      17.777  -0.044  25.584  0.00  0.00    +0.110 C 
ATOM      9  C   UNL     1      17.188   0.278  24.194  0.00  0.00    +0.143 C 
ATOM     10  C   UNL     1      18.062   1.288  23.449  0.00  0.00    +0.133 C 
BRANCH  10  11
ATOM     11  N   UNL     1      17.446   1.653  22.163  0.00  0.00    -0.308 N 
ATOM     12  H   UNL     1      16.565   2.148  22.186  0.00  0.00    +0.149 HD
ATOM     13  C   UNL     1      17.973   1.372  20.969  0.00  0.00    +0.210 C 
ATOM     14  C   UNL     1      19.302   0.594  20.968  0.00  0.00    +0.109 C 
ATOM     15  O   UNL     1      17.442   1.704  19.909  0.00  0.00    -0.276 OA
ENDBRANCH  10  11
BRANCH   7  16
ATOM     16  C   UNL     1      16.718   1.859  26.861  0.00  0.00    +0.414 C 
ATOM     17  O   UNL     1      16.706   2.930  27.466  0.00  0.00    -0.240 OA
ATOM     18  O   UNL     1      15.653   1.286  26.627  0.00  0.00    -0.240 OA
ENDBRANCH   7  16
BRANCH   7  19
ATOM     19  O   UNL     1      18.854   0.886  27.557  0.00  0.00    -0.343 OA
ATOM     20  C   UNL     1      20.074   1.652  27.718  0.00  0.00    +0.198 C 
ENDBRANCH   7  19
BRANCH   9  21
ATOM     21  O   UNL     1      17.090  -0.919  23.423  0.00  0.00    -0.390 OA
ATOM     22  H   UNL     1      16.216  -0.976  23.029  0.00  0.00    +0.210 HD
ENDBRANCH   9  21
ENDBRANCH   4   5
BRANCH   4  23
ATOM     23  O   UNL     1      20.435   3.128  23.410  0.00  0.00    -0.387 OA
ATOM     24  H   UNL     1      20.457   2.187  23.601  0.00  0.00    +0.210 HD
ENDBRANCH   4  23
ENDBRANCH   1   4
BRANCH   1  25
ATOM     25  C   UNL     1      18.943   6.139  23.718  0.00  0.00    +0.141 C 
BRANCH  25  28
ATOM     26  C   UNL     1      20.773   7.757  24.089  0.00  0.00    +0.401 C 
ATOM     27  O   UNL     1      21.571   7.165  23.359  0.00  0.00    -0.226 OA
ATOM     28  N   UNL     1      19.525   7.345  24.319  0.00  0.00    -0.279 N 
ATOM     29  H   UNL     1      18.949   7.893  24.942  0.00  0.00    +0.152 HD
BRANCH  26  30
ATOM     30  O   UNL     1      21.189   8.958  24.743  0.00  0.00    -0.444 OA
BRANCH  30  31
ATOM     31  C   UNL     1      21.513   8.673  26.107  0.00  0.00    +0.292 C 
BRANCH  31  33
ATOM     32  N   UNL     1      19.322   9.653  26.731  0.00  0.00    -0.131 NA
ATOM     33  C   UNL     1      20.646   9.446  27.015  0.00  0.00    +0.120 A 
ATOM     34  C   UNL     1      20.944  10.034  28.224  0.00  0.00    +0.137 A 
ATOM     35  N   UNL     1      19.739  10.500  28.666  0.00  0.00    -0.247 N 
ATOM     36  N   UNL     1      18.777  10.311  27.747  0.00  0.00    -0.065 NA
BRANCH  35  37
ATOM     37  C   UNL     1      19.424  11.082  29.957  0.00  0.00    +0.180 C 
BRANCH  37  38
ATOM     38  C   UNL     1      18.619  10.118  30.800  0.00  0.00    -0.022 A 
ATOM     39  C   UNL     1      17.706  10.604  31.752  0.00  0.00    +0.054 A 
ATOM     40  C   UNL     1      16.897   9.724  32.484  0.00  0.00    +0.162 A 
ATOM     41  C   UNL     1      17.006   8.336  32.267  0.00  0.00    +0.162 A 
ATOM     42  C   UNL     1      17.915   7.855  31.321  0.00  0.00    +0.050 A 
ATOM     43  C   UNL     1      18.716   8.739  30.594  0.00  0.00    +0.009 A 
BRANCH  40  44
ATOM     44  O   UNL     1      15.968  10.120  33.415  0.00  0.00    -0.491 OA
ATOM     45  C   UNL     1      16.444  10.603  34.663  0.00  0.00    +0.277 C 
ENDBRANCH  40  44
BRANCH  41  46
ATOM     46  O   UNL     1      16.184   7.539  33.027  0.00  0.00    -0.491 OA
ATOM     47  C   UNL     1      16.544   6.173  33.177  0.00  0.00    +0.277 C 
ENDBRANCH  41  46
ENDBRANCH  37  38
ENDBRANCH  35  37
ENDBRANCH  31  33
ENDBRANCH  30  31
ENDBRANCH  26  30
ENDBRANCH  25  28
ENDBRANCH   1  25
TORSDOF 17
