REMARK VINA RESULT:    -6.887     14.549     16.719
REMARK INTER + INTRA:         -13.767
REMARK INTER:                 -11.238
REMARK INTRA:                  -2.530
REMARK UNBOUND:                -1.847
REMARK  Name = lig_assembled_2.pdb
REMARK  16 active torsions:
REMARK  status: ('A' for Active; 'I' for Inactive)
REMARK    1  A    between atoms: _2  and  _9
REMARK    2  A    between atoms: _4  and  _18
REMARK    3  A    between atoms: _6  and  _7
REMARK    4  A    between atoms: _6  and  _18
REMARK    5  A    between atoms: _14  and  _34
REMARK    6  A    between atoms: _16  and  _22
REMARK    7  A    between atoms: _17  and  _21
REMARK    8  A    between atoms: _21  and  _22
REMARK    9  A    between atoms: _24  and  _25
REMARK   10  A    between atoms: _26  and  _27
REMARK   11  A    between atoms: _28  and  _30
REMARK   12  A    between atoms: _30  and  _31
REMARK   13  A    between atoms: _30  and  _32
REMARK   14  A    between atoms: _32  and  _33
REMARK   15  A    between atoms: _32  and  _34
REMARK   16  A    between atoms: _35  and  _37
REMARK                            x       y       z     vdW  Elec       q    Type
REMARK                         _______ _______ _______ _____ _____    ______ ____
ROOT
ATOM      1  C   UNL     1      17.690   3.941  22.591  0.00  0.00    +0.163 C 
ENDROOT
BRANCH   1   2
ATOM      2  O   UNL     1      17.052   5.156  23.019  0.00  0.00    -0.388 OA
ATOM      3  H   UNL     1      16.138   4.974  23.251  0.00  0.00    +0.210 HD
ENDBRANCH   1   2
BRANCH   1   4
ATOM      4  C   UNL     1      16.709   3.092  21.790  0.00  0.00    +0.141 C 
BRANCH   4   7
ATOM      5  C   UNL     1      17.937   1.276  20.650  0.00  0.00    +0.401 C 
ATOM      6  O   UNL     1      18.328   1.993  19.726  0.00  0.00    -0.226 OA
ATOM      7  N   UNL     1      17.170   1.705  21.653  0.00  0.00    -0.279 N 
ATOM      8  H   UNL     1      16.892   1.038  22.359  0.00  0.00    +0.152 HD
BRANCH   5   9
ATOM      9  O   UNL     1      18.311  -0.104  20.664  0.00  0.00    -0.444 OA
BRANCH   9  10
ATOM     10  C   UNL     1      19.083  -0.378  21.836  0.00  0.00    +0.292 C 
BRANCH  10  12
ATOM     11  N   UNL     1      19.073  -2.764  22.493  0.00  0.00    -0.131 NA
ATOM     12  C   UNL     1      18.510  -1.523  22.570  0.00  0.00    +0.121 A 
ATOM     13  C   UNL     1      17.416  -1.576  23.404  0.00  0.00    +0.143 A 
ATOM     14  N   UNL     1      17.366  -2.880  23.841  0.00  0.00    -0.220 N 
ATOM     15  N   UNL     1      18.369  -3.584  23.262  0.00  0.00    -0.060 NA
BRANCH  14  16
ATOM     16  C   UNL     1      16.469  -3.471  24.768  0.00  0.00    +0.067 A 
ATOM     17  C   UNL     1      15.805  -4.669  24.466  0.00  0.00    +0.029 A 
ATOM     18  C   UNL     1      14.896  -5.215  25.379  0.00  0.00    +0.022 A 
ATOM     19  C   UNL     1      14.650  -4.571  26.590  0.00  0.00    +0.041 A 
ATOM     20 CL   UNL     1      13.514  -5.239  27.695  0.00  0.00    -0.084 Cl
ATOM     21  C   UNL     1      15.315  -3.389  26.906  0.00  0.00    +0.022 A 
ATOM     22  C   UNL     1      16.225  -2.838  25.999  0.00  0.00    +0.029 A 
ENDBRANCH  14  16
ENDBRANCH  10  12
ENDBRANCH   9  10
ENDBRANCH   5   9
ENDBRANCH   4   7
ENDBRANCH   1   4
BRANCH   1  23
ATOM     23  C   UNL     1      18.203   3.135  23.796  0.00  0.00    +0.175 C 
BRANCH  23  24
ATOM     24  C   UNL     1      18.291   3.990  25.069  0.00  0.00    +0.176 C 
ATOM     25  O   UNL     1      19.560   4.700  25.043  0.00  0.00    -0.332 OA
ATOM     26  C   UNL     1      19.775   5.654  26.135  0.00  0.00    +0.277 C 
ATOM     27  C   UNL     1      19.593   4.957  27.506  0.00  0.00    +0.110 C 
ATOM     28  C   UNL     1      18.271   4.163  27.570  0.00  0.00    +0.143 C 
ATOM     29  C   UNL     1      18.150   3.204  26.385  0.00  0.00    +0.133 C 
BRANCH  29  30
ATOM     30  N   UNL     1      16.850   2.516  26.410  0.00  0.00    -0.308 N 
ATOM     31  H   UNL     1      16.016   3.080  26.315  0.00  0.00    +0.149 HD
ATOM     32  C   UNL     1      16.698   1.197  26.550  0.00  0.00    +0.210 C 
ATOM     33  C   UNL     1      17.986   0.369  26.719  0.00  0.00    +0.109 C 
ATOM     34  O   UNL     1      15.596   0.646  26.552  0.00  0.00    -0.276 OA
ENDBRANCH  29  30
BRANCH  26  35
ATOM     35  C   UNL     1      18.795   6.841  26.026  0.00  0.00    +0.414 C 
ATOM     36  O   UNL     1      18.120   6.996  25.008  0.00  0.00    -0.240 OA
ATOM     37  O   UNL     1      18.679   7.642  26.954  0.00  0.00    -0.240 OA
ENDBRANCH  26  35
BRANCH  28  38
ATOM     38  O   UNL     1      18.216   3.417  28.786  0.00  0.00    -0.390 OA
ATOM     39  H   UNL     1      17.505   3.754  29.337  0.00  0.00    +0.210 HD
ENDBRANCH  28  38
BRANCH  26  40
ATOM     40  O   UNL     1      21.140   6.138  26.046  0.00  0.00    -0.343 OA
ATOM     41  C   UNL     1      21.784   5.921  24.765  0.00  0.00    +0.198 C 
ENDBRANCH  26  40
ENDBRANCH  23  24
BRANCH  23  42
ATOM     42  O   UNL     1      19.489   2.557  23.496  0.00  0.00    -0.387 OA
ATOM     43  H   UNL     1      20.179   3.078  23.913  0.00  0.00    +0.210 HD
ENDBRANCH  23  42
ENDBRANCH   1  23
TORSDOF 14
