REMARK VINA RESULT:    -6.706      2.449      4.332
REMARK INTER + INTRA:         -13.757
REMARK INTER:                 -12.024
REMARK INTRA:                  -1.733
REMARK UNBOUND:                -2.150
REMARK  Name = lig_assembled_80.pdb
REMARK  16 active torsions:
REMARK  status: ('A' for Active; 'I' for Inactive)
REMARK    1  A    between atoms: _2  and  _10
REMARK    2  A    between atoms: _5  and  _24
REMARK    3  A    between atoms: _7  and  _8
REMARK    4  A    between atoms: _7  and  _24
REMARK    5  A    between atoms: _20  and  _40
REMARK    6  A    between atoms: _22  and  _28
REMARK    7  A    between atoms: _23  and  _27
REMARK    8  A    between atoms: _27  and  _28
REMARK    9  A    between atoms: _30  and  _31
REMARK   10  A    between atoms: _32  and  _33
REMARK   11  A    between atoms: _34  and  _36
REMARK   12  A    between atoms: _36  and  _37
REMARK   13  A    between atoms: _36  and  _38
REMARK   14  A    between atoms: _38  and  _39
REMARK   15  A    between atoms: _38  and  _40
REMARK   16  A    between atoms: _41  and  _43
REMARK                            x       y       z     vdW  Elec       q    Type
REMARK                         _______ _______ _______ _____ _____    ______ ____
ROOT
ATOM      1  C   UNL     1       5.015   4.039  33.353  0.00  0.00    +0.141 C 
ENDROOT
BRANCH   1   4
ATOM      2  C   UNL     1       3.191   3.404  31.812  0.00  0.00    +0.401 C 
ATOM      3  O   UNL     1       2.332   4.058  32.409  0.00  0.00    -0.226 OA
ATOM      4  N   UNL     1       4.468   3.333  32.187  0.00  0.00    -0.279 N 
ATOM      5  H   UNL     1       5.096   2.763  31.638  0.00  0.00    +0.152 HD
BRANCH   2   6
ATOM      6  O   UNL     1       2.815   2.665  30.647  0.00  0.00    -0.444 OA
BRANCH   6   7
ATOM      7  C   UNL     1       1.510   3.070  30.224  0.00  0.00    +0.292 C 
BRANCH   7   9
ATOM      8  N   UNL     1       2.517   3.822  28.105  0.00  0.00    -0.131 NA
ATOM      9  C   UNL     1       1.470   3.230  28.757  0.00  0.00    +0.120 A 
ATOM     10  C   UNL     1       0.507   2.864  27.843  0.00  0.00    +0.138 A 
ATOM     11  N   UNL     1       1.005   3.314  26.649  0.00  0.00    -0.239 N 
ATOM     12  N   UNL     1       2.232   3.857  26.811  0.00  0.00    -0.065 NA
BRANCH  11  13
ATOM     13  C   UNL     1       0.489   3.129  25.287  0.00  0.00    +0.195 C 
ATOM     14  C   UNL     1       0.751   4.403  24.496  0.00  0.00    +0.041 C 
ATOM     15  C   UNL     1      -0.005   4.395  23.184  0.00  0.00    +0.039 C 
ATOM     16  C   UNL     1       0.789   3.667  22.145  0.00  0.00    -0.026 A 
ATOM     17  C   UNL     1       1.079   2.304  22.239  0.00  0.00    +0.037 A 
ATOM     18  C   UNL     1       1.723   1.665  21.166  0.00  0.00    +0.023 A 
ATOM     19  C   UNL     1       2.180   2.388  20.065  0.00  0.00    +0.002 A 
ATOM     20  C   UNL     1       1.957   3.756  20.004  0.00  0.00    +0.000 A 
ATOM     21  N   UNL     1       0.860   1.496  23.367  0.00  0.00    -0.284 N 
ATOM     22  H   UNL     1       1.110   0.519  23.244  0.00  0.00    +0.155 HD
ATOM     23  C   UNL     1       1.245   4.386  21.023  0.00  0.00    +0.005 A 
ATOM     24  C   UNL     1       0.950   1.803  24.695  0.00  0.00    +0.242 C 
ATOM     25  O   UNL     1       1.334   0.873  25.414  0.00  0.00    -0.273 OA
ENDBRANCH  11  13
ENDBRANCH   7   9
ENDBRANCH   6   7
ENDBRANCH   2   6
ENDBRANCH   1   4
BRANCH   1  26
ATOM     26  C   UNL     1       6.011   3.177  34.123  0.00  0.00    +0.163 C 
BRANCH  26  27
ATOM     27  O   UNL     1       5.677   1.787  33.973  0.00  0.00    -0.388 OA
ATOM     28  H   UNL     1       4.785   1.707  33.626  0.00  0.00    +0.210 HD
ENDBRANCH  26  27
BRANCH  26  29
ATOM     29  C   UNL     1       7.435   3.459  33.615  0.00  0.00    +0.175 C 
BRANCH  29  30
ATOM     30  C   UNL     1       8.443   3.595  34.766  0.00  0.00    +0.176 C 
ATOM     31  O   UNL     1       8.652   2.274  35.335  0.00  0.00    -0.332 OA
ATOM     32  C   UNL     1       9.671   2.191  36.386  0.00  0.00    +0.277 C 
ATOM     33  C   UNL     1       9.367   3.205  37.516  0.00  0.00    +0.110 C 
ATOM     34  C   UNL     1       9.106   4.619  36.956  0.00  0.00    +0.143 C 
ATOM     35  C   UNL     1       8.032   4.589  35.868  0.00  0.00    +0.133 C 
BRANCH  35  36
ATOM     36  N   UNL     1       7.854   5.927  35.282  0.00  0.00    -0.308 N 
ATOM     37  H   UNL     1       8.597   6.290  34.702  0.00  0.00    +0.149 HD
ATOM     38  C   UNL     1       6.774   6.692  35.466  0.00  0.00    +0.210 C 
ATOM     39  C   UNL     1       5.671   6.120  36.375  0.00  0.00    +0.109 C 
ATOM     40  O   UNL     1       6.646   7.803  34.950  0.00  0.00    -0.276 OA
ENDBRANCH  35  36
BRANCH  32  41
ATOM     41  C   UNL     1      11.075   2.466  35.810  0.00  0.00    +0.414 C 
ATOM     42  O   UNL     1      12.028   2.660  36.564  0.00  0.00    -0.240 OA
ATOM     43  O   UNL     1      11.255   2.494  34.592  0.00  0.00    -0.240 OA
ENDBRANCH  32  41
BRANCH  34  44
ATOM     44  O   UNL     1       8.683   5.485  38.010  0.00  0.00    -0.390 OA
ATOM     45  H   UNL     1       9.330   5.465  38.720  0.00  0.00    +0.210 HD
ENDBRANCH  34  44
BRANCH  32  46
ATOM     46  O   UNL     1       9.627   0.854  36.949  0.00  0.00    -0.343 OA
ATOM     47  C   UNL     1       8.945  -0.132  36.133  0.00  0.00    +0.198 C 
ENDBRANCH  32  46
ENDBRANCH  29  30
BRANCH  29  48
ATOM     48  O   UNL     1       7.446   4.649  32.802  0.00  0.00    -0.387 OA
ATOM     49  H   UNL     1       6.662   4.665  32.247  0.00  0.00    +0.210 HD
ENDBRANCH  29  48
ENDBRANCH  26  29
ENDBRANCH   1  26
TORSDOF 14
