REMARK VINA RESULT:    -6.695      2.350      3.743
REMARK INTER + INTRA:         -15.439
REMARK INTER:                 -13.382
REMARK INTRA:                  -2.057
REMARK UNBOUND:                -2.090
REMARK  Name = lig_assembled_76.pdb
REMARK  21 active torsions:
REMARK  status: ('A' for Active; 'I' for Inactive)
REMARK    1  A    between atoms: _2  and  _9
REMARK    2  A    between atoms: _4  and  _23
REMARK    3  A    between atoms: _6  and  _7
REMARK    4  A    between atoms: _6  and  _23
REMARK    5  A    between atoms: _9  and  _10
REMARK    6  A    between atoms: _10  and  _11
REMARK    7  A    between atoms: _10  and  _18
REMARK    8  A    between atoms: _11  and  _12
REMARK    9  A    between atoms: _12  and  _13
REMARK   10  A    between atoms: _19  and  _39
REMARK   11  A    between atoms: _21  and  _27
REMARK   12  A    between atoms: _22  and  _26
REMARK   13  A    between atoms: _26  and  _27
REMARK   14  A    between atoms: _29  and  _30
REMARK   15  A    between atoms: _31  and  _32
REMARK   16  A    between atoms: _33  and  _35
REMARK   17  A    between atoms: _35  and  _36
REMARK   18  A    between atoms: _35  and  _37
REMARK   19  A    between atoms: _37  and  _38
REMARK   20  A    between atoms: _37  and  _39
REMARK   21  A    between atoms: _40  and  _42
REMARK                            x       y       z     vdW  Elec       q    Type
REMARK                         _______ _______ _______ _____ _____    ______ ____
ROOT
ATOM      1  C   UNL     1       2.133   3.290  33.210  0.00  0.00    +0.141 C 
ENDROOT
BRANCH   1   4
ATOM      2  C   UNL     1       0.952   3.482  31.048  0.00  0.00    +0.401 C 
ATOM      3  O   UNL     1      -0.052   2.880  31.436  0.00  0.00    -0.226 OA
ATOM      4  N   UNL     1       2.022   3.714  31.808  0.00  0.00    -0.279 N 
ATOM      5  H   UNL     1       2.802   4.208  31.397  0.00  0.00    +0.152 HD
BRANCH   2   6
ATOM      6  O   UNL     1       0.994   3.967  29.703  0.00  0.00    -0.444 OA
BRANCH   6   7
ATOM      7  C   UNL     1       0.494   2.962  28.817  0.00  0.00    +0.292 C 
BRANCH   7   9
ATOM      8  N   UNL     1       2.194   3.799  27.217  0.00  0.00    -0.131 NA
ATOM      9  C   UNL     1       0.986   3.193  27.448  0.00  0.00    +0.120 A 
ATOM     10  C   UNL     1       0.393   2.893  26.242  0.00  0.00    +0.137 A 
ATOM     11  N   UNL     1       1.290   3.337  25.321  0.00  0.00    -0.249 N 
ATOM     12  N   UNL     1       2.366   3.889  25.905  0.00  0.00    -0.065 NA
BRANCH  11  13
ATOM     13  C   UNL     1       1.131   3.387  23.885  0.00  0.00    +0.176 C 
BRANCH  13  14
ATOM     14  C   UNL     1       0.460   4.678  23.404  0.00  0.00    +0.136 C 
BRANCH  14  15
ATOM     15  O   UNL     1       0.858   5.781  24.231  0.00  0.00    -0.390 OA
ATOM     16  H   UNL     1       1.562   5.487  24.835  0.00  0.00    +0.210 HD
ENDBRANCH  14  15
BRANCH  14  17
ATOM     17  C   UNL     1       0.836   5.031  21.956  0.00  0.00    +0.038 C 
BRANCH  17  18
ATOM     18  C   UNL     1       1.897   4.106  21.359  0.00  0.00    +0.038 C 
BRANCH  18  19
ATOM     19  C   UNL     1       1.546   3.669  19.960  0.00  0.00    -0.047 A 
ATOM     20  C   UNL     1       0.457   4.245  19.291  0.00  0.00    +0.003 A 
ATOM     21  C   UNL     1       0.141   3.855  17.989  0.00  0.00    +0.000 A 
ATOM     22  C   UNL     1       0.905   2.883  17.348  0.00  0.00    +0.000 A 
ATOM     23  C   UNL     1       1.983   2.296  18.010  0.00  0.00    +0.000 A 
ATOM     24  C   UNL     1       2.300   2.684  19.312  0.00  0.00    +0.003 A 
ENDBRANCH  18  19
ENDBRANCH  17  18
ENDBRANCH  14  17
ENDBRANCH  13  14
ENDBRANCH  11  13
ENDBRANCH   7   9
ENDBRANCH   6   7
ENDBRANCH   2   6
ENDBRANCH   1   4
BRANCH   1  25
ATOM     25  C   UNL     1       3.507   3.605  33.792  0.00  0.00    +0.163 C 
BRANCH  25  26
ATOM     26  O   UNL     1       4.082   4.733  33.113  0.00  0.00    -0.388 OA
ATOM     27  H   UNL     1       3.696   5.543  33.453  0.00  0.00    +0.210 HD
ENDBRANCH  25  26
BRANCH  25  28
ATOM     28  C   UNL     1       3.375   3.879  35.300  0.00  0.00    +0.175 C 
BRANCH  28  29
ATOM     29  C   UNL     1       4.317   4.999  35.768  0.00  0.00    +0.176 C 
ATOM     30  O   UNL     1       5.642   4.718  35.240  0.00  0.00    -0.332 OA
ATOM     31  C   UNL     1       6.658   5.743  35.499  0.00  0.00    +0.277 C 
ATOM     32  C   UNL     1       6.751   6.041  37.015  0.00  0.00    +0.110 C 
ATOM     33  C   UNL     1       5.362   6.315  37.628  0.00  0.00    +0.143 C 
ATOM     34  C   UNL     1       4.383   5.188  37.295  0.00  0.00    +0.133 C 
BRANCH  34  35
ATOM     35  N   UNL     1       3.041   5.502  37.810  0.00  0.00    -0.308 N 
ATOM     36  H   UNL     1       2.550   6.284  37.400  0.00  0.00    +0.149 HD
ATOM     37  C   UNL     1       2.431   4.822  38.784  0.00  0.00    +0.210 C 
ATOM     38  C   UNL     1       3.217   3.652  39.406  0.00  0.00    +0.109 C 
ATOM     39  O   UNL     1       1.300   5.098  39.185  0.00  0.00    -0.276 OA
ENDBRANCH  34  35
BRANCH  31  40
ATOM     40  C   UNL     1       6.330   7.043  34.736  0.00  0.00    +0.414 C 
ATOM     41  O   UNL     1       5.353   7.094  33.990  0.00  0.00    -0.240 OA
ATOM     42  O   UNL     1       7.040   8.040  34.868  0.00  0.00    -0.240 OA
ENDBRANCH  31  40
BRANCH  33  43
ATOM     43  O   UNL     1       5.476   6.435  39.047  0.00  0.00    -0.390 OA
ATOM     44  H   UNL     1       6.216   7.008  39.262  0.00  0.00    +0.210 HD
ENDBRANCH  33  43
BRANCH  31  45
ATOM     45  O   UNL     1       7.939   5.227  35.055  0.00  0.00    -0.343 OA
ATOM     46  C   UNL     1       7.868   4.036  34.230  0.00  0.00    +0.198 C 
ENDBRANCH  31  45
ENDBRANCH  28  29
BRANCH  28  47
ATOM     47  O   UNL     1       3.627   2.673  36.048  0.00  0.00    -0.387 OA
ATOM     48  H   UNL     1       3.933   1.985  35.453  0.00  0.00    +0.210 HD
ENDBRANCH  28  47
ENDBRANCH  25  28
ENDBRANCH   1  25
TORSDOF 19
