REMARK VINA RESULT:    -6.575     12.863     17.528
REMARK INTER + INTRA:         -13.877
REMARK INTER:                 -10.904
REMARK INTRA:                  -2.973
REMARK UNBOUND:                -1.921
REMARK  Name = lig_assembled_23.pdb
REMARK  18 active torsions:
REMARK  status: ('A' for Active; 'I' for Inactive)
REMARK    1  A    between atoms: _2  and  _10
REMARK    2  A    between atoms: _3  and  _41
REMARK    3  A    between atoms: _5  and  _21
REMARK    4  A    between atoms: _7  and  _8
REMARK    5  A    between atoms: _7  and  _21
REMARK    6  A    between atoms: _12  and  _41
REMARK    7  A    between atoms: _17  and  _37
REMARK    8  A    between atoms: _19  and  _25
REMARK    9  A    between atoms: _20  and  _24
REMARK   10  A    between atoms: _24  and  _25
REMARK   11  A    between atoms: _27  and  _28
REMARK   12  A    between atoms: _29  and  _30
REMARK   13  A    between atoms: _31  and  _33
REMARK   14  A    between atoms: _33  and  _34
REMARK   15  A    between atoms: _33  and  _35
REMARK   16  A    between atoms: _35  and  _36
REMARK   17  A    between atoms: _35  and  _37
REMARK   18  A    between atoms: _38  and  _40
REMARK                            x       y       z     vdW  Elec       q    Type
REMARK                         _______ _______ _______ _____ _____    ______ ____
ROOT
ATOM      1  C   UNL     1       2.302   3.987  31.751  0.00  0.00    +0.141 C 
ENDROOT
BRANCH   1   4
ATOM      2  C   UNL     1       0.877   3.035  29.971  0.00  0.00    +0.401 C 
ATOM      3  O   UNL     1      -0.170   3.166  30.609  0.00  0.00    -0.226 OA
ATOM      4  N   UNL     1       2.078   3.386  30.430  0.00  0.00    -0.279 N 
ATOM      5  H   UNL     1       2.880   3.229  29.836  0.00  0.00    +0.152 HD
BRANCH   2   6
ATOM      6  O   UNL     1       0.824   2.469  28.659  0.00  0.00    -0.444 OA
BRANCH   6   7
ATOM      7  C   UNL     1       0.646   1.053  28.756  0.00  0.00    +0.292 C 
BRANCH   7   9
ATOM      8  N   UNL     1       2.341   0.216  30.350  0.00  0.00    -0.131 NA
ATOM      9  C   UNL     1       1.929   0.396  29.060  0.00  0.00    +0.121 A 
ATOM     10  C   UNL     1       2.881  -0.122  28.210  0.00  0.00    +0.143 A 
ATOM     11  N   UNL     1       3.861  -0.621  29.035  0.00  0.00    -0.220 N 
ATOM     12  N   UNL     1       3.515  -0.398  30.327  0.00  0.00    -0.060 NA
BRANCH  11  13
ATOM     13  C   UNL     1       5.075  -1.268  28.687  0.00  0.00    +0.069 A 
ATOM     14  C   UNL     1       5.322  -1.595  27.346  0.00  0.00    +0.056 A 
ATOM     15  C   UNL     1       6.503  -2.264  27.004  0.00  0.00    +0.107 A 
ATOM     16  C   UNL     1       7.451  -2.589  27.976  0.00  0.00    +0.028 A 
ATOM     17  C   UNL     1       7.210  -2.250  29.307  0.00  0.00    +0.004 A 
ATOM     18  C   UNL     1       6.025  -1.596  29.665  0.00  0.00    +0.028 A 
BRANCH  15  19
ATOM     19  S   UNL     1       6.772  -2.720  25.318  0.00  0.00    +0.056 S 
ATOM     20  O   UNL     1       6.954  -4.150  25.246  0.00  0.00    -0.153 OA
ATOM     21  O   UNL     1       5.837  -2.008  24.477  0.00  0.00    -0.153 OA
BRANCH  19  22
ATOM     22  N   UNL     1       8.269  -2.027  25.004  0.00  0.00    -0.204 NA
ATOM     23  H   UNL     1       8.153  -1.048  24.745  0.00  0.00    +0.144 HD
ATOM     24  H   UNL     1       8.773  -2.584  24.312  0.00  0.00    +0.144 HD
ENDBRANCH  19  22
ENDBRANCH  15  19
ENDBRANCH  11  13
ENDBRANCH   7   9
ENDBRANCH   6   7
ENDBRANCH   2   6
ENDBRANCH   1   4
BRANCH   1  25
ATOM     25  C   UNL     1       3.262   3.159  32.598  0.00  0.00    +0.163 C 
BRANCH  25  26
ATOM     26  O   UNL     1       4.055   2.309  31.753  0.00  0.00    -0.388 OA
ATOM     27  H   UNL     1       3.773   2.411  30.841  0.00  0.00    +0.210 HD
ENDBRANCH  25  26
BRANCH  25  28
ATOM     28  C   UNL     1       4.155   4.097  33.428  0.00  0.00    +0.175 C 
BRANCH  28  29
ATOM     29  C   UNL     1       5.554   3.507  33.659  0.00  0.00    +0.176 C 
ATOM     30  O   UNL     1       5.391   2.146  34.145  0.00  0.00    -0.332 OA
ATOM     31  C   UNL     1       6.631   1.384  34.323  0.00  0.00    +0.277 C 
ATOM     32  C   UNL     1       7.612   2.153  35.241  0.00  0.00    +0.110 C 
ATOM     33  C   UNL     1       7.793   3.616  34.783  0.00  0.00    +0.143 C 
ATOM     34  C   UNL     1       6.441   4.313  34.627  0.00  0.00    +0.133 C 
BRANCH  34  35
ATOM     35  N   UNL     1       6.622   5.677  34.107  0.00  0.00    -0.308 N 
ATOM     36  H   UNL     1       6.928   5.781  33.150  0.00  0.00    +0.149 HD
ATOM     37  C   UNL     1       6.408   6.788  34.818  0.00  0.00    +0.210 C 
ATOM     38  C   UNL     1       5.968   6.597  36.282  0.00  0.00    +0.109 C 
ATOM     39  O   UNL     1       6.554   7.919  34.352  0.00  0.00    -0.276 OA
ENDBRANCH  34  35
BRANCH  31  40
ATOM     40  C   UNL     1       7.305   1.111  32.962  0.00  0.00    +0.414 C 
ATOM     41  O   UNL     1       6.623   0.825  31.978  0.00  0.00    -0.240 OA
ATOM     42  O   UNL     1       8.530   1.175  32.848  0.00  0.00    -0.240 OA
ENDBRANCH  31  40
BRANCH  33  43
ATOM     43  O   UNL     1       8.581   4.326  35.739  0.00  0.00    -0.390 OA
ATOM     44  H   UNL     1       9.465   3.952  35.767  0.00  0.00    +0.210 HD
ENDBRANCH  33  43
BRANCH  31  45
ATOM     45  O   UNL     1       6.296   0.126  34.963  0.00  0.00    -0.343 OA
ATOM     46  C   UNL     1       4.898  -0.250  34.880  0.00  0.00    +0.198 C 
ENDBRANCH  31  45
ENDBRANCH  28  29
BRANCH  28  47
ATOM     47  O   UNL     1       3.526   4.393  34.691  0.00  0.00    -0.387 OA
ATOM     48  H   UNL     1       2.581   4.241  34.621  0.00  0.00    +0.210 HD
ENDBRANCH  28  47
ENDBRANCH  25  28
ENDBRANCH   1  25
TORSDOF 16
