REMARK VINA RESULT:    -6.602     14.316     17.908
REMARK INTER + INTRA:         -13.255
REMARK INTER:                 -10.894
REMARK INTRA:                  -2.361
REMARK UNBOUND:                -1.828
REMARK  Name = lig_assembled_70.pdb
REMARK  16 active torsions:
REMARK  status: ('A' for Active; 'I' for Inactive)
REMARK    1  A    between atoms: _2  and  _10
REMARK    2  A    between atoms: _5  and  _22
REMARK    3  A    between atoms: _7  and  _8
REMARK    4  A    between atoms: _7  and  _22
REMARK    5  A    between atoms: _18  and  _38
REMARK    6  A    between atoms: _20  and  _26
REMARK    7  A    between atoms: _21  and  _25
REMARK    8  A    between atoms: _25  and  _26
REMARK    9  A    between atoms: _28  and  _29
REMARK   10  A    between atoms: _30  and  _31
REMARK   11  A    between atoms: _32  and  _34
REMARK   12  A    between atoms: _34  and  _35
REMARK   13  A    between atoms: _34  and  _36
REMARK   14  A    between atoms: _36  and  _37
REMARK   15  A    between atoms: _36  and  _38
REMARK   16  A    between atoms: _39  and  _41
REMARK                            x       y       z     vdW  Elec       q    Type
REMARK                         _______ _______ _______ _____ _____    ______ ____
ROOT
ATOM      1  C   UNL     1      17.118   1.623  26.732  0.00  0.00    +0.163 C 
ENDROOT
BRANCH   1   2
ATOM      2  O   UNL     1      16.724   2.877  26.150  0.00  0.00    -0.388 OA
ATOM      3  H   UNL     1      17.495   3.317  25.784  0.00  0.00    +0.210 HD
ENDBRANCH   1   2
BRANCH   1   4
ATOM      4  C   UNL     1      18.629   1.596  26.937  0.00  0.00    +0.141 C 
BRANCH   4   7
ATOM      5  C   UNL     1      20.336   3.367  27.177  0.00  0.00    +0.401 C 
ATOM      6  O   UNL     1      20.918   2.811  28.111  0.00  0.00    -0.226 OA
ATOM      7  N   UNL     1      19.255   2.873  26.572  0.00  0.00    -0.279 N 
ATOM      8  H   UNL     1      18.842   3.408  25.821  0.00  0.00    +0.152 HD
BRANCH   5   9
ATOM      9  O   UNL     1      20.831   4.620  26.698  0.00  0.00    -0.444 OA
BRANCH   9  10
ATOM     10  C   UNL     1      19.738   5.423  26.242  0.00  0.00    +0.292 C 
BRANCH  10  12
ATOM     11  N   UNL     1      20.037   7.846  26.670  0.00  0.00    -0.131 NA
ATOM     12  C   UNL     1      19.593   6.624  27.086  0.00  0.00    +0.121 A 
ATOM     13  C   UNL     1      19.036   6.752  28.337  0.00  0.00    +0.143 A 
ATOM     14  N   UNL     1      19.152   8.088  28.643  0.00  0.00    -0.218 N 
ATOM     15  N   UNL     1      19.771   8.729  27.625  0.00  0.00    -0.060 NA
BRANCH  14  16
ATOM     16  C   UNL     1      18.701   8.763  29.796  0.00  0.00    +0.086 A 
ATOM     17  C   UNL     1      19.004  10.101  29.991  0.00  0.00    +0.139 A 
ATOM     18  N   UNL     1      18.564  10.823  31.054  0.00  0.00    -0.253 NA
ATOM     19  C   UNL     1      17.786  10.210  31.964  0.00  0.00    +0.071 A 
ATOM     20  C   UNL     1      17.439   8.847  31.857  0.00  0.00    +0.002 A 
ATOM     21  C   UNL     1      16.622   8.240  32.827  0.00  0.00    +0.010 A 
ATOM     22  C   UNL     1      16.128   8.985  33.896  0.00  0.00    +0.001 A 
ATOM     23  C   UNL     1      16.459  10.330  34.002  0.00  0.00    +0.002 A 
ATOM     24  C   UNL     1      17.286  10.926  33.044  0.00  0.00    +0.028 A 
ATOM     25  C   UNL     1      17.917   8.124  30.758  0.00  0.00    +0.039 A 
ENDBRANCH  14  16
ENDBRANCH  10  12
ENDBRANCH   9  10
ENDBRANCH   5   9
ENDBRANCH   4   7
ENDBRANCH   1   4
BRANCH   1  26
ATOM     26  C   UNL     1      16.701   0.445  25.835  0.00  0.00    +0.175 C 
BRANCH  26  27
ATOM     27  C   UNL     1      17.598   0.316  24.595  0.00  0.00    +0.176 C 
ATOM     28  O   UNL     1      17.240   1.380  23.671  0.00  0.00    -0.332 OA
ATOM     29  C   UNL     1      18.070   1.479  22.466  0.00  0.00    +0.277 C 
ATOM     30  C   UNL     1      18.102   0.124  21.718  0.00  0.00    +0.110 C 
ATOM     31  C   UNL     1      18.448  -1.043  22.667  0.00  0.00    +0.143 C 
ATOM     32  C   UNL     1      17.525  -1.050  23.887  0.00  0.00    +0.133 C 
BRANCH  32  33
ATOM     33  N   UNL     1      17.920  -2.112  24.826  0.00  0.00    -0.308 N 
ATOM     34  H   UNL     1      18.852  -2.076  25.213  0.00  0.00    +0.149 HD
ATOM     35  C   UNL     1      17.127  -3.120  25.198  0.00  0.00    +0.210 C 
ATOM     36  C   UNL     1      15.721  -3.160  24.570  0.00  0.00    +0.109 C 
ATOM     37  O   UNL     1      17.480  -3.987  25.998  0.00  0.00    -0.276 OA
ENDBRANCH  32  33
BRANCH  29  38
ATOM     38  C   UNL     1      19.509   1.903  22.827  0.00  0.00    +0.414 C 
ATOM     39  O   UNL     1      19.707   2.726  23.721  0.00  0.00    -0.240 OA
ATOM     40  O   UNL     1      20.470   1.423  22.226  0.00  0.00    -0.240 OA
ENDBRANCH  29  38
BRANCH  31  41
ATOM     41  O   UNL     1      18.318  -2.284  21.973  0.00  0.00    -0.390 OA
ATOM     42  H   UNL     1      17.741  -2.870  22.468  0.00  0.00    +0.210 HD
ENDBRANCH  31  41
BRANCH  29  43
ATOM     43  O   UNL     1      17.474   2.471  21.591  0.00  0.00    -0.343 OA
ATOM     44  C   UNL     1      16.510   3.348  22.227  0.00  0.00    +0.198 C 
ENDBRANCH  29  43
ENDBRANCH  26  27
BRANCH  26  45
ATOM     45  O   UNL     1      15.322   0.588  25.437  0.00  0.00    -0.387 OA
ATOM     46  H   UNL     1      14.974  -0.267  25.176  0.00  0.00    +0.210 HD
ENDBRANCH  26  45
ENDBRANCH   1  26
TORSDOF 14
