REMARK VINA RESULT:    -6.352      1.691      3.917
REMARK INTER + INTRA:         -13.715
REMARK INTER:                 -11.646
REMARK INTRA:                  -2.069
REMARK UNBOUND:                -2.722
REMARK  Name = lig_assembled_3.pdb
REMARK  16 active torsions:
REMARK  status: ('A' for Active; 'I' for Inactive)
REMARK    1  A    between atoms: _2  and  _9
REMARK    2  A    between atoms: _4  and  _18
REMARK    3  A    between atoms: _6  and  _7
REMARK    4  A    between atoms: _6  and  _18
REMARK    5  A    between atoms: _14  and  _34
REMARK    6  A    between atoms: _16  and  _22
REMARK    7  A    between atoms: _17  and  _21
REMARK    8  A    between atoms: _21  and  _22
REMARK    9  A    between atoms: _24  and  _25
REMARK   10  A    between atoms: _26  and  _27
REMARK   11  A    between atoms: _28  and  _30
REMARK   12  A    between atoms: _30  and  _31
REMARK   13  A    between atoms: _30  and  _32
REMARK   14  A    between atoms: _32  and  _33
REMARK   15  A    between atoms: _32  and  _34
REMARK   16  A    between atoms: _35  and  _37
REMARK                            x       y       z     vdW  Elec       q    Type
REMARK                         _______ _______ _______ _____ _____    ______ ____
ROOT
ATOM      1  C   UNL     1       2.698   2.596  33.403  0.00  0.00    +0.163 C 
ENDROOT
BRANCH   1   2
ATOM      2  O   UNL     1       3.204   1.787  32.329  0.00  0.00    -0.388 OA
ATOM      3  H   UNL     1       3.622   2.351  31.673  0.00  0.00    +0.210 HD
ENDBRANCH   1   2
BRANCH   1   4
ATOM      4  C   UNL     1       1.338   3.175  33.024  0.00  0.00    +0.141 C 
BRANCH   4   7
ATOM      5  C   UNL     1       1.124   4.041  30.720  0.00  0.00    +0.401 C 
ATOM      6  O   UNL     1       1.405   5.201  31.029  0.00  0.00    -0.226 OA
ATOM      7  N   UNL     1       1.063   3.031  31.589  0.00  0.00    -0.279 N 
ATOM      8  H   UNL     1       0.814   2.116  31.241  0.00  0.00    +0.152 HD
BRANCH   5   9
ATOM      9  O   UNL     1       0.836   3.737  29.353  0.00  0.00    -0.444 OA
BRANCH   9  10
ATOM     10  C   UNL     1       1.511   2.532  28.979  0.00  0.00    +0.292 C 
BRANCH  10  12
ATOM     11  N   UNL     1       2.047   1.323  26.889  0.00  0.00    -0.131 NA
ATOM     12  C   UNL     1       1.704   2.485  27.517  0.00  0.00    +0.121 A 
ATOM     13  C   UNL     1       1.583   3.485  26.580  0.00  0.00    +0.143 A 
ATOM     14  N   UNL     1       1.839   2.876  25.373  0.00  0.00    -0.220 N 
ATOM     15  N   UNL     1       2.133   1.569  25.588  0.00  0.00    -0.060 NA
BRANCH  14  16
ATOM     16  C   UNL     1       1.804   3.436  24.070  0.00  0.00    +0.067 A 
ATOM     17  C   UNL     1       1.811   2.615  22.933  0.00  0.00    +0.028 A 
ATOM     18  C   UNL     1       1.807   3.187  21.658  0.00  0.00    +0.002 A 
ATOM     19  C   UNL     1       1.792   4.572  21.510  0.00  0.00    +0.000 A 
ATOM     20  C   UNL     1       1.775   5.394  22.636  0.00  0.00    +0.002 A 
ATOM     21  C   UNL     1       1.780   4.830  23.914  0.00  0.00    +0.028 A 
ENDBRANCH  14  16
ENDBRANCH  10  12
ENDBRANCH   9  10
ENDBRANCH   5   9
ENDBRANCH   4   7
ENDBRANCH   1   4
BRANCH   1  22
ATOM     22  C   UNL     1       3.670   3.742  33.735  0.00  0.00    +0.175 C 
BRANCH  22  23
ATOM     23  C   UNL     1       5.130   3.268  33.773  0.00  0.00    +0.176 C 
ATOM     24  O   UNL     1       5.144   1.905  34.281  0.00  0.00    -0.332 OA
ATOM     25  C   UNL     1       6.454   1.245  34.289  0.00  0.00    +0.277 C 
ATOM     26  C   UNL     1       7.487   2.103  35.061  0.00  0.00    +0.110 C 
ATOM     27  C   UNL     1       7.485   3.568  34.578  0.00  0.00    +0.143 C 
ATOM     28  C   UNL     1       6.073   4.154  34.607  0.00  0.00    +0.133 C 
BRANCH  28  29
ATOM     29  N   UNL     1       6.072   5.521  34.063  0.00  0.00    -0.308 N 
ATOM     30  H   UNL     1       6.174   5.631  33.064  0.00  0.00    +0.149 HD
ATOM     31  C   UNL     1       5.944   6.626  34.803  0.00  0.00    +0.210 C 
ATOM     32  C   UNL     1       5.816   6.426  36.325  0.00  0.00    +0.109 C 
ATOM     33  O   UNL     1       5.931   7.758  34.318  0.00  0.00    -0.276 OA
ENDBRANCH  28  29
BRANCH  25  34
ATOM     34  C   UNL     1       6.955   1.007  32.849  0.00  0.00    +0.414 C 
ATOM     35  O   UNL     1       6.151   0.884  31.926  0.00  0.00    -0.240 OA
ATOM     36  O   UNL     1       8.161   0.937  32.612  0.00  0.00    -0.240 OA
ENDBRANCH  25  34
BRANCH  27  37
ATOM     37  O   UNL     1       8.338   4.352  35.414  0.00  0.00    -0.390 OA
ATOM     38  H   UNL     1       7.906   4.506  36.257  0.00  0.00    +0.210 HD
ENDBRANCH  27  37
BRANCH  25  39
ATOM     39  O   UNL     1       6.312  -0.026  34.974  0.00  0.00    -0.343 OA
ATOM     40  C   UNL     1       4.972  -0.582  34.961  0.00  0.00    +0.198 C 
ENDBRANCH  25  39
ENDBRANCH  22  23
BRANCH  22  41
ATOM     41  O   UNL     1       3.311   4.349  34.992  0.00  0.00    -0.387 OA
ATOM     42  H   UNL     1       2.871   5.186  34.830  0.00  0.00    +0.210 HD
ENDBRANCH  22  41
ENDBRANCH   1  22
TORSDOF 14
