REMARK VINA RESULT:    -6.398     15.040     17.403
REMARK INTER + INTRA:         -14.044
REMARK INTER:                 -10.992
REMARK INTRA:                  -3.051
REMARK UNBOUND:                -2.597
REMARK  Name = lig_assembled_89.pdb
REMARK  19 active torsions:
REMARK  status: ('A' for Active; 'I' for Inactive)
REMARK    1  A    between atoms: _2  and  _12
REMARK    2  A    between atoms: _5  and  _20
REMARK    3  A    between atoms: _7  and  _29
REMARK    4  A    between atoms: _9  and  _10
REMARK    5  A    between atoms: _9  and  _29
REMARK    6  A    between atoms: _20  and  _21
REMARK    7  A    between atoms: _20  and  _22
REMARK    8  A    between atoms: _25  and  _45
REMARK    9  A    between atoms: _27  and  _33
REMARK   10  A    between atoms: _28  and  _32
REMARK   11  A    between atoms: _32  and  _33
REMARK   12  A    between atoms: _35  and  _36
REMARK   13  A    between atoms: _37  and  _38
REMARK   14  A    between atoms: _39  and  _41
REMARK   15  A    between atoms: _41  and  _42
REMARK   16  A    between atoms: _41  and  _43
REMARK   17  A    between atoms: _43  and  _44
REMARK   18  A    between atoms: _43  and  _45
REMARK   19  A    between atoms: _46  and  _48
REMARK                            x       y       z     vdW  Elec       q    Type
REMARK                         _______ _______ _______ _____ _____    ______ ____
ROOT
ATOM      1  C   UNL     1      17.047   4.855  22.749  0.00  0.00    +0.401 C 
ATOM      2  O   UNL     1      16.476   5.879  22.367  0.00  0.00    -0.226 OA
ATOM      3  N   UNL     1      18.246   4.843  23.333  0.00  0.00    -0.279 N 
ATOM      4  H   UNL     1      18.628   3.953  23.620  0.00  0.00    +0.152 HD
ENDROOT
BRANCH   3   5
ATOM      5  C   UNL     1      19.043   6.051  23.581  0.00  0.00    +0.141 C 
BRANCH   5   6
ATOM      6  C   UNL     1      20.171   5.794  24.575  0.00  0.00    +0.163 C 
BRANCH   6   7
ATOM      7  O   UNL     1      21.179   6.810  24.447  0.00  0.00    -0.388 OA
ATOM      8  H   UNL     1      21.630   6.710  23.605  0.00  0.00    +0.210 HD
ENDBRANCH   6   7
BRANCH   6   9
ATOM      9  C   UNL     1      19.600   5.763  26.003  0.00  0.00    +0.175 C 
BRANCH   9  10
ATOM     10  C   UNL     1      19.573   4.341  26.583  0.00  0.00    +0.176 C 
ATOM     11  O   UNL     1      18.471   3.625  25.961  0.00  0.00    -0.332 OA
ATOM     12  C   UNL     1      18.354   2.208  26.318  0.00  0.00    +0.277 C 
ATOM     13  C   UNL     1      18.285   2.041  27.856  0.00  0.00    +0.110 C 
ATOM     14  C   UNL     1      19.419   2.812  28.564  0.00  0.00    +0.143 C 
ATOM     15  C   UNL     1      19.451   4.274  28.117  0.00  0.00    +0.133 C 
BRANCH  15  16
ATOM     16  N   UNL     1      20.588   4.976  28.732  0.00  0.00    -0.308 N 
ATOM     17  H   UNL     1      21.513   4.596  28.584  0.00  0.00    +0.149 HD
ATOM     18  C   UNL     1      20.479   6.082  29.473  0.00  0.00    +0.210 C 
ATOM     19  C   UNL     1      19.054   6.620  29.702  0.00  0.00    +0.109 C 
ATOM     20  O   UNL     1      21.451   6.657  29.964  0.00  0.00    -0.276 OA
ENDBRANCH  15  16
BRANCH  12  21
ATOM     21  C   UNL     1      19.550   1.404  25.765  0.00  0.00    +0.414 C 
ATOM     22  O   UNL     1      20.263   1.881  24.883  0.00  0.00    -0.240 OA
ATOM     23  O   UNL     1      19.802   0.281  26.202  0.00  0.00    -0.240 OA
ENDBRANCH  12  21
BRANCH  14  24
ATOM     24  O   UNL     1      19.229   2.756  29.978  0.00  0.00    -0.390 OA
ATOM     25  H   UNL     1      18.301   2.892  30.183  0.00  0.00    +0.210 HD
ENDBRANCH  14  24
BRANCH  12  26
ATOM     26  O   UNL     1      17.120   1.701  25.747  0.00  0.00    -0.343 OA
ATOM     27  C   UNL     1      16.389   0.778  26.592  0.00  0.00    +0.198 C 
ENDBRANCH  12  26
ENDBRANCH   9  10
BRANCH   9  28
ATOM     28  O   UNL     1      18.275   6.332  26.021  0.00  0.00    -0.387 OA
ATOM     29  H   UNL     1      17.670   5.721  26.449  0.00  0.00    +0.210 HD
ENDBRANCH   9  28
ENDBRANCH   6   9
ENDBRANCH   5   6
ENDBRANCH   3   5
BRANCH   1  30
ATOM     30  O   UNL     1      16.401   3.592  22.570  0.00  0.00    -0.444 OA
BRANCH  30  31
ATOM     31  C   UNL     1      16.688   3.090  21.262  0.00  0.00    +0.292 C 
BRANCH  31  33
ATOM     32  N   UNL     1      17.906   1.213  20.227  0.00  0.00    -0.131 NA
ATOM     33  C   UNL     1      17.466   1.843  21.353  0.00  0.00    +0.121 A 
ATOM     34  C   UNL     1      17.890   1.140  22.455  0.00  0.00    +0.145 A 
ATOM     35  N   UNL     1      18.621   0.081  21.950  0.00  0.00    -0.199 N 
ATOM     36  N   UNL     1      18.610   0.152  20.599  0.00  0.00    -0.059 NA
BRANCH  35  37
ATOM     37  C   UNL     1      19.350  -0.870  22.722  0.00  0.00    +0.186 A 
ATOM     38  C   UNL     1      18.897  -1.960  23.437  0.00  0.00    +0.158 A 
ATOM     39  C   UNL     1      17.591  -2.442  23.764  0.00  0.00    +0.280 A 
ATOM     40  O   UNL     1      16.598  -1.728  23.723  0.00  0.00    -0.265 OA
ATOM     41  N   UNL     1      17.532  -3.791  24.170  0.00  0.00    -0.302 N 
ATOM     42  C   UNL     1      18.721  -4.455  24.658  0.00  0.00    +0.069 A 
ATOM     43  C   UNL     1      18.680  -5.686  25.328  0.00  0.00    +0.028 A 
ATOM     44  C   UNL     1      19.847  -6.277  25.832  0.00  0.00    +0.002 A 
ATOM     45  C   UNL     1      21.081  -5.657  25.670  0.00  0.00    +0.002 A 
ATOM     46  C   UNL     1      21.160  -4.441  24.998  0.00  0.00    +0.028 A 
ATOM     47  C   UNL     1      19.987  -3.847  24.508  0.00  0.00    +0.072 A 
ATOM     48  N   UNL     1      20.031  -2.617  23.833  0.00  0.00    -0.291 N 
ATOM     49  C   UNL     1      21.103  -1.852  23.449  0.00  0.00    +0.207 A 
ATOM     50  N   UNL     1      20.730  -0.793  22.763  0.00  0.00    -0.216 NA
BRANCH  41  51
ATOM     51  C   UNL     1      16.198  -4.426  24.277  0.00  0.00    +0.085 C 
ATOM     52  C   UNL     1      15.357  -4.322  22.989  0.00  0.00    +0.030 C 
ATOM     53  C   UNL     1      15.410  -3.895  25.474  0.00  0.00    +0.030 C 
ENDBRANCH  41  51
ENDBRANCH  35  37
ENDBRANCH  31  33
ENDBRANCH  30  31
ENDBRANCH   1  30
TORSDOF 15
