REMARK VINA RESULT:    -6.333      2.676      4.330
REMARK INTER + INTRA:         -14.716
REMARK INTER:                 -12.100
REMARK INTRA:                  -2.616
REMARK UNBOUND:                -2.090
REMARK  Name = lig_assembled_76.pdb
REMARK  21 active torsions:
REMARK  status: ('A' for Active; 'I' for Inactive)
REMARK    1  A    between atoms: _2  and  _9
REMARK    2  A    between atoms: _4  and  _23
REMARK    3  A    between atoms: _6  and  _7
REMARK    4  A    between atoms: _6  and  _23
REMARK    5  A    between atoms: _9  and  _10
REMARK    6  A    between atoms: _10  and  _11
REMARK    7  A    between atoms: _10  and  _18
REMARK    8  A    between atoms: _11  and  _12
REMARK    9  A    between atoms: _12  and  _13
REMARK   10  A    between atoms: _19  and  _39
REMARK   11  A    between atoms: _21  and  _27
REMARK   12  A    between atoms: _22  and  _26
REMARK   13  A    between atoms: _26  and  _27
REMARK   14  A    between atoms: _29  and  _30
REMARK   15  A    between atoms: _31  and  _32
REMARK   16  A    between atoms: _33  and  _35
REMARK   17  A    between atoms: _35  and  _36
REMARK   18  A    between atoms: _35  and  _37
REMARK   19  A    between atoms: _37  and  _38
REMARK   20  A    between atoms: _37  and  _39
REMARK   21  A    between atoms: _40  and  _42
REMARK                            x       y       z     vdW  Elec       q    Type
REMARK                         _______ _______ _______ _____ _____    ______ ____
ROOT
ATOM      1  C   UNL     1       2.448   3.513  37.446  0.00  0.00    +0.141 C 
ENDROOT
BRANCH   1   4
ATOM      2  C   UNL     1       2.011   3.670  35.019  0.00  0.00    +0.401 C 
ATOM      3  O   UNL     1       0.852   4.070  35.158  0.00  0.00    -0.226 OA
ATOM      4  N   UNL     1       2.826   3.379  36.034  0.00  0.00    -0.279 N 
ATOM      5  H   UNL     1       3.756   3.048  35.819  0.00  0.00    +0.152 HD
BRANCH   2   6
ATOM      6  O   UNL     1       2.531   3.495  33.699  0.00  0.00    -0.444 OA
BRANCH   6   7
ATOM      7  C   UNL     1       1.784   2.482  33.020  0.00  0.00    +0.292 C 
BRANCH   7   9
ATOM      8  N   UNL     1       1.136   4.299  31.462  0.00  0.00    -0.131 NA
ATOM      9  C   UNL     1       1.344   2.964  31.701  0.00  0.00    +0.120 A 
ATOM     10  C   UNL     1       1.065   2.252  30.555  0.00  0.00    +0.137 A 
ATOM     11  N   UNL     1       0.699   3.209  29.660  0.00  0.00    -0.249 N 
ATOM     12  N   UNL     1       0.732   4.435  30.206  0.00  0.00    -0.065 NA
BRANCH  11  13
ATOM     13  C   UNL     1       0.184   3.017  28.323  0.00  0.00    +0.176 C 
BRANCH  13  14
ATOM     14  C   UNL     1       1.065   3.659  27.245  0.00  0.00    +0.136 C 
BRANCH  14  15
ATOM     15  O   UNL     1       2.377   3.913  27.767  0.00  0.00    -0.390 OA
ATOM     16  H   UNL     1       2.905   4.373  27.091  0.00  0.00    +0.210 HD
ENDBRANCH  14  15
BRANCH  14  17
ATOM     17  C   UNL     1       1.228   2.761  26.009  0.00  0.00    +0.038 C 
BRANCH  17  18
ATOM     18  C   UNL     1       2.457   3.102  25.166  0.00  0.00    +0.038 C 
BRANCH  18  19
ATOM     19  C   UNL     1       2.091   3.469  23.751  0.00  0.00    -0.047 A 
ATOM     20  C   UNL     1       1.964   2.472  22.773  0.00  0.00    +0.003 A 
ATOM     21  C   UNL     1       1.608   2.806  21.466  0.00  0.00    +0.000 A 
ATOM     22  C   UNL     1       1.382   4.137  21.124  0.00  0.00    +0.000 A 
ATOM     23  C   UNL     1       1.516   5.136  22.088  0.00  0.00    +0.000 A 
ATOM     24  C   UNL     1       1.874   4.804  23.395  0.00  0.00    +0.003 A 
ENDBRANCH  18  19
ENDBRANCH  17  18
ENDBRANCH  14  17
ENDBRANCH  13  14
ENDBRANCH  11  13
ENDBRANCH   7   9
ENDBRANCH   6   7
ENDBRANCH   2   6
ENDBRANCH   1   4
BRANCH   1  25
ATOM     25  C   UNL     1       3.291   4.562  38.163  0.00  0.00    +0.163 C 
BRANCH  25  26
ATOM     26  O   UNL     1       3.912   3.984  39.324  0.00  0.00    -0.388 OA
ATOM     27  H   UNL     1       4.791   4.353  39.434  0.00  0.00    +0.210 HD
ENDBRANCH  25  26
BRANCH  25  28
ATOM     28  C   UNL     1       4.348   5.121  37.196  0.00  0.00    +0.175 C 
BRANCH  28  29
ATOM     29  C   UNL     1       5.566   5.691  37.937  0.00  0.00    +0.176 C 
ATOM     30  O   UNL     1       5.079   6.481  39.057  0.00  0.00    -0.332 OA
ATOM     31  C   UNL     1       6.111   7.021  39.947  0.00  0.00    +0.277 C 
ATOM     32  C   UNL     1       7.147   7.841  39.140  0.00  0.00    +0.110 C 
ATOM     33  C   UNL     1       7.670   7.054  37.920  0.00  0.00    +0.143 C 
ATOM     34  C   UNL     1       6.514   6.536  37.065  0.00  0.00    +0.133 C 
BRANCH  34  35
ATOM     35  N   UNL     1       7.022   5.715  35.954  0.00  0.00    -0.308 N 
ATOM     36  H   UNL     1       7.457   4.832  36.181  0.00  0.00    +0.149 HD
ATOM     37  C   UNL     1       6.945   6.061  34.666  0.00  0.00    +0.210 C 
ATOM     38  C   UNL     1       6.300   7.424  34.355  0.00  0.00    +0.109 C 
ATOM     39  O   UNL     1       7.367   5.346  33.756  0.00  0.00    -0.276 OA
ENDBRANCH  34  35
BRANCH  31  40
ATOM     40  C   UNL     1       6.829   5.885  40.705  0.00  0.00    +0.414 C 
ATOM     41  O   UNL     1       8.013   6.001  41.018  0.00  0.00    -0.240 OA
ATOM     42  O   UNL     1       6.225   4.854  41.003  0.00  0.00    -0.240 OA
ENDBRANCH  31  40
BRANCH  33  43
ATOM     43  O   UNL     1       8.503   7.898  37.124  0.00  0.00    -0.390 OA
ATOM     44  H   UNL     1       8.915   8.562  37.683  0.00  0.00    +0.210 HD
ENDBRANCH  33  43
BRANCH  31  45
ATOM     45  O   UNL     1       5.464   7.908  40.896  0.00  0.00    -0.343 OA
ATOM     46  C   UNL     1       6.021   9.246  40.961  0.00  0.00    +0.198 C 
ENDBRANCH  31  45
ENDBRANCH  28  29
BRANCH  28  47
ATOM     47  O   UNL     1       3.762   6.133  36.352  0.00  0.00    -0.387 OA
ATOM     48  H   UNL     1       4.296   6.238  35.560  0.00  0.00    +0.210 HD
ENDBRANCH  28  47
ENDBRANCH  25  28
ENDBRANCH   1  25
TORSDOF 19
