REMARK VINA RESULT:    -6.415     14.030     15.503
REMARK INTER + INTRA:         -13.290
REMARK INTER:                 -10.642
REMARK INTRA:                  -2.648
REMARK UNBOUND:                -1.813
REMARK  Name = lig_assembled_41.pdb
REMARK  18 active torsions:
REMARK  status: ('A' for Active; 'I' for Inactive)
REMARK    1  A    between atoms: _2  and  _9
REMARK    2  A    between atoms: _4  and  _21
REMARK    3  A    between atoms: _6  and  _7
REMARK    4  A    between atoms: _6  and  _21
REMARK    5  A    between atoms: _10  and  _11
REMARK    6  A    between atoms: _11  and  _12
REMARK    7  A    between atoms: _17  and  _37
REMARK    8  A    between atoms: _19  and  _25
REMARK    9  A    between atoms: _20  and  _24
REMARK   10  A    between atoms: _24  and  _25
REMARK   11  A    between atoms: _27  and  _28
REMARK   12  A    between atoms: _29  and  _30
REMARK   13  A    between atoms: _31  and  _33
REMARK   14  A    between atoms: _33  and  _34
REMARK   15  A    between atoms: _33  and  _35
REMARK   16  A    between atoms: _35  and  _36
REMARK   17  A    between atoms: _35  and  _37
REMARK   18  A    between atoms: _38  and  _40
REMARK                            x       y       z     vdW  Elec       q    Type
REMARK                         _______ _______ _______ _____ _____    ______ ____
ROOT
ATOM      1  C   UNL     1      19.285   9.136  28.734  0.00  0.00    +0.163 C 
ENDROOT
BRANCH   1   2
ATOM      2  O   UNL     1      18.178   9.852  29.305  0.00  0.00    -0.388 OA
ATOM      3  H   UNL     1      18.112  10.719  28.898  0.00  0.00    +0.210 HD
ENDBRANCH   1   2
BRANCH   1   4
ATOM      4  C   UNL     1      19.267   9.273  27.215  0.00  0.00    +0.141 C 
BRANCH   4   7
ATOM      5  C   UNL     1      19.669   7.556  25.484  0.00  0.00    +0.401 C 
ATOM      6  O   UNL     1      20.572   8.188  24.933  0.00  0.00    -0.226 OA
ATOM      7  N   UNL     1      19.000   7.990  26.553  0.00  0.00    -0.279 N 
ATOM      8  H   UNL     1      18.268   7.403  26.929  0.00  0.00    +0.152 HD
BRANCH   5   9
ATOM      9  O   UNL     1      19.296   6.279  24.961  0.00  0.00    -0.444 OA
BRANCH   9  10
ATOM     10  C   UNL     1      18.467   6.458  23.809  0.00  0.00    +0.292 C 
BRANCH  10  12
ATOM     11  N   UNL     1      17.017   5.049  22.396  0.00  0.00    -0.131 NA
ATOM     12  C   UNL     1      18.072   5.152  23.252  0.00  0.00    +0.121 A 
ATOM     13  C   UNL     1      18.626   3.903  23.434  0.00  0.00    +0.143 A 
ATOM     14  N   UNL     1      17.802   3.041  22.747  0.00  0.00    -0.219 N 
ATOM     15  N   UNL     1      16.892   3.777  22.051  0.00  0.00    -0.060 NA
BRANCH  14  16
ATOM     16  C   UNL     1      17.854   1.626  22.597  0.00  0.00    +0.077 A 
ATOM     17  C   UNL     1      17.606   0.697  23.630  0.00  0.00    +0.043 A 
ATOM     18  C   UNL     1      17.743  -0.679  23.353  0.00  0.00    +0.013 A 
ATOM     19  C   UNL     1      18.124  -1.131  22.087  0.00  0.00    +0.001 A 
ATOM     20  C   UNL     1      18.343  -0.219  21.065  0.00  0.00    +0.002 A 
ATOM     21  C   UNL     1      18.199   1.144  21.313  0.00  0.00    +0.028 A 
BRANCH  17  22
ATOM     22  C   UNL     1      17.003   1.060  24.948  0.00  0.00    +0.162 C 
ATOM     23  O   UNL     1      15.781   1.156  25.046  0.00  0.00    -0.292 OA
ATOM     24  C   UNL     1      17.886   1.303  26.148  0.00  0.00    +0.091 C 
ENDBRANCH  17  22
ENDBRANCH  14  16
ENDBRANCH  10  12
ENDBRANCH   9  10
ENDBRANCH   5   9
ENDBRANCH   4   7
ENDBRANCH   1   4
BRANCH   1  25
ATOM     25  C   UNL     1      19.234   7.647  29.116  0.00  0.00    +0.175 C 
BRANCH  25  26
ATOM     26  C   UNL     1      18.668   7.432  30.528  0.00  0.00    +0.176 C 
ATOM     27  O   UNL     1      19.208   8.471  31.389  0.00  0.00    -0.332 OA
ATOM     28  C   UNL     1      18.692   8.489  32.761  0.00  0.00    +0.277 C 
ATOM     29  C   UNL     1      18.882   7.105  33.429  0.00  0.00    +0.110 C 
ATOM     30  C   UNL     1      18.351   5.964  32.535  0.00  0.00    +0.143 C 
ATOM     31  C   UNL     1      18.951   6.043  31.131  0.00  0.00    +0.133 C 
BRANCH  31  32
ATOM     32  N   UNL     1      18.372   5.004  30.264  0.00  0.00    -0.308 N 
ATOM     33  H   UNL     1      17.402   5.099  29.997  0.00  0.00    +0.149 HD
ATOM     34  C   UNL     1      19.045   3.944  29.808  0.00  0.00    +0.210 C 
ATOM     35  C   UNL     1      20.513   3.815  30.255  0.00  0.00    +0.109 C 
ATOM     36  O   UNL     1      18.538   3.097  29.072  0.00  0.00    -0.276 OA
ENDBRANCH  31  32
BRANCH  28  37
ATOM     37  C   UNL     1      17.196   8.868  32.778  0.00  0.00    +0.414 C 
ATOM     38  O   UNL     1      16.453   8.421  33.650  0.00  0.00    -0.240 OA
ATOM     39  O   UNL     1      16.733   9.622  31.921  0.00  0.00    -0.240 OA
ENDBRANCH  28  37
BRANCH  30  40
ATOM     40  O   UNL     1      18.682   4.703  33.118  0.00  0.00    -0.390 OA
ATOM     41  H   UNL     1      18.789   4.047  32.424  0.00  0.00    +0.210 HD
ENDBRANCH  30  40
BRANCH  28  42
ATOM     42  O   UNL     1      19.452   9.468  33.514  0.00  0.00    -0.343 OA
ATOM     43  C   UNL     1      20.114  10.479  32.712  0.00  0.00    +0.198 C 
ENDBRANCH  28  42
ENDBRANCH  25  26
BRANCH  25  44
ATOM     44  O   UNL     1      20.548   7.063  29.014  0.00  0.00    -0.387 OA
ATOM     45  H   UNL     1      20.546   6.387  28.332  0.00  0.00    +0.210 HD
ENDBRANCH  25  44
ENDBRANCH   1  25
TORSDOF 15
