REMARK VINA RESULT:    -6.195     13.285     14.927
REMARK INTER + INTRA:         -13.017
REMARK INTER:                 -10.280
REMARK INTRA:                  -2.737
REMARK UNBOUND:                -1.933
REMARK  Name = lig_assembled_39.pdb
REMARK  17 active torsions:
REMARK  status: ('A' for Active; 'I' for Inactive)
REMARK    1  A    between atoms: _2  and  _9
REMARK    2  A    between atoms: _4  and  _19
REMARK    3  A    between atoms: _6  and  _7
REMARK    4  A    between atoms: _6  and  _19
REMARK    5  A    between atoms: _9  and  _10
REMARK    6  A    between atoms: _15  and  _35
REMARK    7  A    between atoms: _17  and  _23
REMARK    8  A    between atoms: _18  and  _22
REMARK    9  A    between atoms: _22  and  _23
REMARK   10  A    between atoms: _25  and  _26
REMARK   11  A    between atoms: _27  and  _28
REMARK   12  A    between atoms: _29  and  _31
REMARK   13  A    between atoms: _31  and  _32
REMARK   14  A    between atoms: _31  and  _33
REMARK   15  A    between atoms: _33  and  _34
REMARK   16  A    between atoms: _33  and  _35
REMARK   17  A    between atoms: _36  and  _38
REMARK                            x       y       z     vdW  Elec       q    Type
REMARK                         _______ _______ _______ _____ _____    ______ ____
ROOT
ATOM      1  C   UNL     1       5.673   3.529  33.088  0.00  0.00    +0.163 C 
ENDROOT
BRANCH   1   2
ATOM      2  O   UNL     1       4.962   4.735  33.409  0.00  0.00    -0.388 OA
ATOM      3  H   UNL     1       5.568   5.479  33.392  0.00  0.00    +0.210 HD
ENDBRANCH   1   2
BRANCH   1   4
ATOM      4  C   UNL     1       5.032   2.340  33.796  0.00  0.00    +0.141 C 
BRANCH   4   7
ATOM      5  C   UNL     1       6.112   0.155  34.204  0.00  0.00    +0.401 C 
ATOM      6  O   UNL     1       6.142   0.293  35.429  0.00  0.00    -0.226 OA
ATOM      7  N   UNL     1       5.617   1.065  33.364  0.00  0.00    -0.279 N 
ATOM      8  H   UNL     1       5.646   0.865  32.374  0.00  0.00    +0.152 HD
BRANCH   5   9
ATOM      9  O   UNL     1       6.639  -1.042  33.627  0.00  0.00    -0.444 OA
BRANCH   9  10
ATOM     10  C   UNL     1       7.310  -0.728  32.404  0.00  0.00    +0.292 C 
BRANCH  10  12
ATOM     11  N   UNL     1       5.661  -0.510  30.570  0.00  0.00    -0.131 NA
ATOM     12  C   UNL     1       6.568  -1.277  31.254  0.00  0.00    +0.120 A 
ATOM     13  C   UNL     1       6.635  -2.523  30.672  0.00  0.00    +0.137 A 
ATOM     14  N   UNL     1       5.808  -2.423  29.592  0.00  0.00    -0.247 N 
ATOM     15  N   UNL     1       5.178  -1.234  29.570  0.00  0.00    -0.065 NA
BRANCH  14  16
ATOM     16  C   UNL     1       5.624  -3.383  28.514  0.00  0.00    +0.181 C 
BRANCH  16  17
ATOM     17  C   UNL     1       6.165  -2.897  27.180  0.00  0.00    -0.012 A 
ATOM     18  C   UNL     1       7.552  -2.770  26.962  0.00  0.00    +0.006 A 
ATOM     19  C   UNL     1       8.063  -2.319  25.743  0.00  0.00    +0.000 A 
ATOM     20  C   UNL     1       7.198  -1.961  24.717  0.00  0.00    +0.001 A 
ATOM     21  C   UNL     1       5.822  -2.035  24.918  0.00  0.00    +0.015 A 
ATOM     22  C   UNL     1       5.307  -2.488  26.142  0.00  0.00    +0.023 A 
ATOM     23 BR   UNL     1       3.413  -2.491  26.320  0.00  0.00    -0.050 Br
ENDBRANCH  16  17
ENDBRANCH  14  16
ENDBRANCH  10  12
ENDBRANCH   9  10
ENDBRANCH   5   9
ENDBRANCH   4   7
ENDBRANCH   1   4
BRANCH   1  24
ATOM     24  C   UNL     1       7.152   3.636  33.499  0.00  0.00    +0.175 C 
BRANCH  24  25
ATOM     25  C   UNL     1       7.319   4.230  34.905  0.00  0.00    +0.176 C 
ATOM     26  O   UNL     1       7.338   5.678  34.780  0.00  0.00    -0.332 OA
ATOM     27  C   UNL     1       7.385   6.423  36.042  0.00  0.00    +0.277 C 
ATOM     28  C   UNL     1       8.586   5.957  36.901  0.00  0.00    +0.110 C 
ATOM     29  C   UNL     1       8.626   4.420  37.036  0.00  0.00    +0.143 C 
ATOM     30  C   UNL     1       8.569   3.746  35.665  0.00  0.00    +0.133 C 
BRANCH  30  31
ATOM     31  N   UNL     1       8.520   2.283  35.811  0.00  0.00    -0.308 N 
ATOM     32  H   UNL     1       7.707   1.880  36.255  0.00  0.00    +0.149 HD
ATOM     33  C   UNL     1       9.480   1.453  35.394  0.00  0.00    +0.210 C 
ATOM     34  C   UNL     1      10.717   2.100  34.744  0.00  0.00    +0.109 C 
ATOM     35  O   UNL     1       9.405   0.230  35.516  0.00  0.00    -0.276 OA
ENDBRANCH  30  31
BRANCH  27  36
ATOM     36  C   UNL     1       6.077   6.234  36.838  0.00  0.00    +0.414 C 
ATOM     37  O   UNL     1       6.082   6.311  38.066  0.00  0.00    -0.240 OA
ATOM     38  O   UNL     1       5.018   6.006  36.253  0.00  0.00    -0.240 OA
ENDBRANCH  27  36
BRANCH  27  39
ATOM     39  O   UNL     1       7.567   7.828  35.727  0.00  0.00    -0.343 OA
ATOM     40  C   UNL     1       7.567   8.143  34.312  0.00  0.00    +0.198 C 
ENDBRANCH  27  39
BRANCH  29  41
ATOM     41  O   UNL     1       9.826   4.026  37.704  0.00  0.00    -0.390 OA
ATOM     42  H   UNL     1       9.654   3.936  38.644  0.00  0.00    +0.210 HD
ENDBRANCH  29  41
ENDBRANCH  24  25
BRANCH  24  43
ATOM     43  O   UNL     1       7.879   4.426  32.537  0.00  0.00    -0.387 OA
ATOM     44  H   UNL     1       7.663   5.354  32.655  0.00  0.00    +0.210 HD
ENDBRANCH  24  43
ENDBRANCH   1  24
TORSDOF 15
