REMARK VINA RESULT:    -6.275      8.432     13.538
REMARK INTER + INTRA:         -14.155
REMARK INTER:                 -11.680
REMARK INTRA:                  -2.475
REMARK UNBOUND:                -2.378
REMARK  Name = lig_assembled_68.pdb
REMARK  19 active torsions:
REMARK  status: ('A' for Active; 'I' for Inactive)
REMARK    1  A    between atoms: _2  and  _9
REMARK    2  A    between atoms: _4  and  _21
REMARK    3  A    between atoms: _6  and  _7
REMARK    4  A    between atoms: _6  and  _21
REMARK    5  A    between atoms: _9  and  _10
REMARK    6  A    between atoms: _10  and  _11
REMARK    7  A    between atoms: _10  and  _16
REMARK    8  A    between atoms: _17  and  _37
REMARK    9  A    between atoms: _19  and  _25
REMARK   10  A    between atoms: _20  and  _24
REMARK   11  A    between atoms: _24  and  _25
REMARK   12  A    between atoms: _27  and  _28
REMARK   13  A    between atoms: _29  and  _30
REMARK   14  A    between atoms: _31  and  _33
REMARK   15  A    between atoms: _33  and  _34
REMARK   16  A    between atoms: _33  and  _35
REMARK   17  A    between atoms: _35  and  _36
REMARK   18  A    between atoms: _35  and  _37
REMARK   19  A    between atoms: _38  and  _40
REMARK                            x       y       z     vdW  Elec       q    Type
REMARK                         _______ _______ _______ _____ _____    ______ ____
ROOT
ATOM      1  C   UNL     1       9.786   3.847  37.260  0.00  0.00    +0.163 C 
ENDROOT
BRANCH   1   2
ATOM      2  O   UNL     1      10.227   5.193  37.016  0.00  0.00    -0.388 OA
ATOM      3  H   UNL     1      10.078   5.727  37.800  0.00  0.00    +0.210 HD
ENDBRANCH   1   2
BRANCH   1   4
ATOM      4  C   UNL     1       8.780   3.395  36.187  0.00  0.00    +0.175 C 
BRANCH   4   5
ATOM      5  C   UNL     1       7.984   4.573  35.608  0.00  0.00    +0.176 C 
ATOM      6  O   UNL     1       7.574   5.423  36.714  0.00  0.00    -0.332 OA
ATOM      7  C   UNL     1       6.888   6.663  36.340  0.00  0.00    +0.277 C 
ATOM      8  C   UNL     1       5.669   6.356  35.436  0.00  0.00    +0.110 C 
ATOM      9  C   UNL     1       6.049   5.429  34.263  0.00  0.00    +0.143 C 
ATOM     10  C   UNL     1       6.760   4.171  34.765  0.00  0.00    +0.133 C 
BRANCH  10  11
ATOM     11  N   UNL     1       7.194   3.338  33.633  0.00  0.00    -0.308 N 
ATOM     12  H   UNL     1       7.926   3.698  33.036  0.00  0.00    +0.149 HD
ATOM     13  C   UNL     1       6.686   2.138  33.343  0.00  0.00    +0.210 C 
ATOM     14  C   UNL     1       5.555   1.629  34.256  0.00  0.00    +0.109 C 
ATOM     15  O   UNL     1       7.080   1.455  32.396  0.00  0.00    -0.276 OA
ENDBRANCH  10  11
BRANCH   7  16
ATOM     16  C   UNL     1       7.848   7.619  35.603  0.00  0.00    +0.414 C 
ATOM     17  O   UNL     1       7.469   8.233  34.606  0.00  0.00    -0.240 OA
ATOM     18  O   UNL     1       9.002   7.777  36.004  0.00  0.00    -0.240 OA
ENDBRANCH   7  16
BRANCH   7  19
ATOM     19  O   UNL     1       6.408   7.295  37.555  0.00  0.00    -0.343 OA
ATOM     20  C   UNL     1       7.004   6.798  38.780  0.00  0.00    +0.198 C 
ENDBRANCH   7  19
BRANCH   9  21
ATOM     21  O   UNL     1       4.873   5.051  33.546  0.00  0.00    -0.390 OA
ATOM     22  H   UNL     1       4.335   4.474  34.094  0.00  0.00    +0.210 HD
ENDBRANCH   9  21
ENDBRANCH   4   5
BRANCH   4  23
ATOM     23  O   UNL     1       7.881   2.410  36.734  0.00  0.00    -0.387 OA
ATOM     24  H   UNL     1       7.049   2.435  36.256  0.00  0.00    +0.210 HD
ENDBRANCH   4  23
ENDBRANCH   1   4
BRANCH   1  25
ATOM     25  C   UNL     1      10.982   2.901  37.268  0.00  0.00    +0.141 C 
BRANCH  25  28
ATOM     26  C   UNL     1      12.288   2.845  35.171  0.00  0.00    +0.401 C 
ATOM     27  O   UNL     1      11.640   1.917  34.682  0.00  0.00    -0.226 OA
ATOM     28  N   UNL     1      12.053   3.363  36.377  0.00  0.00    -0.279 N 
ATOM     29  H   UNL     1      12.646   4.117  36.696  0.00  0.00    +0.152 HD
BRANCH  26  30
ATOM     30  O   UNL     1      13.364   3.412  34.420  0.00  0.00    -0.444 OA
BRANCH  30  31
ATOM     31  C   UNL     1      14.335   3.960  35.315  0.00  0.00    +0.292 C 
BRANCH  31  33
ATOM     32  N   UNL     1      14.988   5.505  33.488  0.00  0.00    -0.131 NA
ATOM     33  C   UNL     1      14.806   5.268  34.827  0.00  0.00    +0.120 A 
ATOM     34  C   UNL     1      15.137   6.402  35.532  0.00  0.00    +0.137 A 
ATOM     35  N   UNL     1      15.503   7.294  34.567  0.00  0.00    -0.249 N 
ATOM     36  N   UNL     1      15.423   6.749  33.341  0.00  0.00    -0.065 NA
BRANCH  35  37
ATOM     37  C   UNL     1      16.029   8.631  34.750  0.00  0.00    +0.181 C 
BRANCH  37  38
ATOM     38  C   UNL     1      16.220   9.364  33.416  0.00  0.00    +0.166 C 
BRANCH  38  39
ATOM     39  C   UNL     1      17.136  10.577  33.493  0.00  0.00    -0.017 A 
ATOM     40  C   UNL     1      17.057  11.418  34.619  0.00  0.00    +0.006 A 
ATOM     41  C   UNL     1      17.897  12.527  34.743  0.00  0.00    +0.000 A 
ATOM     42  C   UNL     1      18.830  12.810  33.751  0.00  0.00    +0.000 A 
ATOM     43  C   UNL     1      18.935  11.980  32.641  0.00  0.00    +0.000 A 
ATOM     44  C   UNL     1      18.098  10.869  32.513  0.00  0.00    +0.006 A 
ENDBRANCH  38  39
BRANCH  38  45
ATOM     45  O   UNL     1      14.944   9.805  32.939  0.00  0.00    -0.385 OA
ATOM     46  H   UNL     1      14.976  10.770  32.830  0.00  0.00    +0.210 HD
ENDBRANCH  38  45
ENDBRANCH  37  38
ENDBRANCH  35  37
ENDBRANCH  31  33
ENDBRANCH  30  31
ENDBRANCH  26  30
ENDBRANCH  25  28
ENDBRANCH   1  25
TORSDOF 17
