REMARK VINA RESULT:    -6.294      8.424     13.547
REMARK INTER + INTRA:         -13.167
REMARK INTER:                 -11.288
REMARK INTRA:                  -1.879
REMARK UNBOUND:                -1.905
REMARK  Name = lig_assembled_38.pdb
REMARK  17 active torsions:
REMARK  status: ('A' for Active; 'I' for Inactive)
REMARK    1  A    between atoms: _2  and  _9
REMARK    2  A    between atoms: _4  and  _19
REMARK    3  A    between atoms: _6  and  _7
REMARK    4  A    between atoms: _6  and  _19
REMARK    5  A    between atoms: _9  and  _10
REMARK    6  A    between atoms: _15  and  _35
REMARK    7  A    between atoms: _17  and  _23
REMARK    8  A    between atoms: _18  and  _22
REMARK    9  A    between atoms: _22  and  _23
REMARK   10  A    between atoms: _25  and  _26
REMARK   11  A    between atoms: _27  and  _28
REMARK   12  A    between atoms: _29  and  _31
REMARK   13  A    between atoms: _31  and  _32
REMARK   14  A    between atoms: _31  and  _33
REMARK   15  A    between atoms: _33  and  _34
REMARK   16  A    between atoms: _33  and  _35
REMARK   17  A    between atoms: _36  and  _38
REMARK                            x       y       z     vdW  Elec       q    Type
REMARK                         _______ _______ _______ _____ _____    ______ ____
ROOT
ATOM      1  C   UNL     1       9.885   2.964  34.900  0.00  0.00    +0.163 C 
ENDROOT
BRANCH   1   2
ATOM      2  O   UNL     1       9.625   2.128  33.761  0.00  0.00    -0.388 OA
ATOM      3  H   UNL     1       9.660   1.205  34.026  0.00  0.00    +0.210 HD
ENDBRANCH   1   2
BRANCH   1   4
ATOM      4  C   UNL     1      10.991   2.353  35.754  0.00  0.00    +0.141 C 
BRANCH   4   7
ATOM      5  C   UNL     1      13.104   3.594  35.434  0.00  0.00    +0.401 C 
ATOM      6  O   UNL     1      13.403   3.003  34.394  0.00  0.00    -0.226 OA
ATOM      7  N   UNL     1      11.999   3.349  36.139  0.00  0.00    -0.279 N 
ATOM      8  H   UNL     1      11.846   3.880  36.985  0.00  0.00    +0.152 HD
BRANCH   5   9
ATOM      9  O   UNL     1      13.984   4.603  35.937  0.00  0.00    -0.444 OA
BRANCH   9  10
ATOM     10  C   UNL     1      15.250   4.504  35.279  0.00  0.00    +0.292 C 
BRANCH  10  12
ATOM     11  N   UNL     1      16.304   5.710  33.389  0.00  0.00    -0.131 NA
ATOM     12  C   UNL     1      15.533   5.739  34.520  0.00  0.00    +0.120 A 
ATOM     13  C   UNL     1      15.101   7.029  34.737  0.00  0.00    +0.137 A 
ATOM     14  N   UNL     1      15.596   7.726  33.673  0.00  0.00    -0.247 N 
ATOM     15  N   UNL     1      16.331   6.931  32.873  0.00  0.00    -0.065 NA
BRANCH  14  16
ATOM     16  C   UNL     1      15.223   9.060  33.237  0.00  0.00    +0.180 C 
BRANCH  16  17
ATOM     17  C   UNL     1      16.305  10.089  33.458  0.00  0.00    -0.025 A 
ATOM     18  C   UNL     1      17.177  10.452  32.419  0.00  0.00    +0.005 A 
ATOM     19  C   UNL     1      18.118  11.470  32.603  0.00  0.00    +0.001 A 
ATOM     20  C   UNL     1      18.200  12.135  33.825  0.00  0.00    +0.015 A 
ATOM     21  C   UNL     1      17.346  11.773  34.863  0.00  0.00    +0.018 A 
ATOM     22 BR   UNL     1      17.447  12.680  36.519  0.00  0.00    -0.050 Br
ATOM     23  C   UNL     1      16.403  10.759  34.688  0.00  0.00    +0.020 A 
ENDBRANCH  16  17
ENDBRANCH  14  16
ENDBRANCH  10  12
ENDBRANCH   9  10
ENDBRANCH   5   9
ENDBRANCH   4   7
ENDBRANCH   1   4
BRANCH   1  24
ATOM     24  C   UNL     1       8.617   3.142  35.753  0.00  0.00    +0.175 C 
BRANCH  24  25
ATOM     25  C   UNL     1       7.829   4.401  35.361  0.00  0.00    +0.176 C 
ATOM     26  O   UNL     1       7.580   5.167  36.571  0.00  0.00    -0.332 OA
ATOM     27  C   UNL     1       6.926   6.465  36.377  0.00  0.00    +0.277 C 
ATOM     28  C   UNL     1       5.606   6.292  35.585  0.00  0.00    +0.110 C 
ATOM     29  C   UNL     1       5.815   5.456  34.305  0.00  0.00    +0.143 C 
ATOM     30  C   UNL     1       6.505   4.130  34.623  0.00  0.00    +0.133 C 
BRANCH  30  31
ATOM     31  N   UNL     1       6.777   3.381  33.385  0.00  0.00    -0.308 N 
ATOM     32  H   UNL     1       7.405   3.796  32.711  0.00  0.00    +0.149 HD
ATOM     33  C   UNL     1       6.249   2.189  33.095  0.00  0.00    +0.210 C 
ATOM     34  C   UNL     1       5.275   1.596  34.131  0.00  0.00    +0.109 C 
ATOM     35  O   UNL     1       6.506   1.579  32.057  0.00  0.00    -0.276 OA
ENDBRANCH  30  31
BRANCH  27  36
ATOM     36  C   UNL     1       7.855   7.439  35.623  0.00  0.00    +0.414 C 
ATOM     37  O   UNL     1       9.011   7.615  36.007  0.00  0.00    -0.240 OA
ATOM     38  O   UNL     1       7.450   8.047  34.632  0.00  0.00    -0.240 OA
ENDBRANCH  27  36
BRANCH  27  39
ATOM     39  O   UNL     1       6.607   7.007  37.684  0.00  0.00    -0.343 OA
ATOM     40  C   UNL     1       7.085   6.222  38.806  0.00  0.00    +0.198 C 
ENDBRANCH  27  39
BRANCH  29  41
ATOM     41  O   UNL     1       4.554   5.195  33.689  0.00  0.00    -0.390 OA
ATOM     42  H   UNL     1       4.438   5.778  32.935  0.00  0.00    +0.210 HD
ENDBRANCH  29  41
ENDBRANCH  24  25
BRANCH  24  43
ATOM     43  O   UNL     1       8.961   3.187  37.152  0.00  0.00    -0.387 OA
ATOM     44  H   UNL     1       8.611   2.409  37.593  0.00  0.00    +0.210 HD
ENDBRANCH  24  43
ENDBRANCH   1  24
TORSDOF 15
