REMARK VINA RESULT:    -6.239     14.494     18.412
REMARK INTER + INTRA:         -13.037
REMARK INTER:                 -11.162
REMARK INTRA:                  -1.875
REMARK UNBOUND:                -1.875
REMARK  Name = lig_assembled_82.pdb
REMARK  19 active torsions:
REMARK  status: ('A' for Active; 'I' for Inactive)
REMARK    1  A    between atoms: _2  and  _9
REMARK    2  A    between atoms: _4  and  _22
REMARK    3  A    between atoms: _5  and  _16
REMARK    4  A    between atoms: _6  and  _7
REMARK    5  A    between atoms: _6  and  _22
REMARK    6  A    between atoms: _9  and  _10
REMARK    7  A    between atoms: _16  and  _17
REMARK    8  A    between atoms: _18  and  _38
REMARK    9  A    between atoms: _20  and  _26
REMARK   10  A    between atoms: _21  and  _25
REMARK   11  A    between atoms: _25  and  _26
REMARK   12  A    between atoms: _28  and  _29
REMARK   13  A    between atoms: _30  and  _31
REMARK   14  A    between atoms: _32  and  _34
REMARK   15  A    between atoms: _34  and  _35
REMARK   16  A    between atoms: _34  and  _36
REMARK   17  A    between atoms: _36  and  _37
REMARK   18  A    between atoms: _36  and  _38
REMARK   19  A    between atoms: _39  and  _41
REMARK                            x       y       z     vdW  Elec       q    Type
REMARK                         _______ _______ _______ _____ _____    ______ ____
ROOT
ATOM      1  C   UNL     1      16.936   1.926  27.205  0.00  0.00    +0.163 C 
ENDROOT
BRANCH   1   2
ATOM      2  O   UNL     1      15.991   2.968  26.911  0.00  0.00    -0.388 OA
ATOM      3  H   UNL     1      15.284   2.952  27.561  0.00  0.00    +0.210 HD
ENDBRANCH   1   2
BRANCH   1   4
ATOM      4  C   UNL     1      18.352   2.405  26.898  0.00  0.00    +0.141 C 
BRANCH   4   7
ATOM      5  C   UNL     1      19.190   4.723  26.737  0.00  0.00    +0.401 C 
ATOM      6  O   UNL     1      20.028   4.582  27.632  0.00  0.00    -0.226 OA
ATOM      7  N   UNL     1      18.361   3.760  26.334  0.00  0.00    -0.279 N 
ATOM      8  H   UNL     1      17.702   3.975  25.599  0.00  0.00    +0.152 HD
BRANCH   5   9
ATOM      9  O   UNL     1      19.082   5.989  26.082  0.00  0.00    -0.444 OA
BRANCH   9  10
ATOM     10  C   UNL     1      20.227   6.787  26.390  0.00  0.00    +0.292 C 
BRANCH  10  12
ATOM     11  N   UNL     1      20.332   9.232  26.022  0.00  0.00    -0.131 NA
ATOM     12  C   UNL     1      19.835   8.160  26.725  0.00  0.00    +0.120 A 
ATOM     13  C   UNL     1      18.989   8.637  27.709  0.00  0.00    +0.137 A 
ATOM     14  N   UNL     1      19.119   9.995  27.632  0.00  0.00    -0.247 N 
ATOM     15  N   UNL     1      19.856  10.345  26.561  0.00  0.00    -0.065 NA
BRANCH  14  16
ATOM     16  C   UNL     1      18.656  11.011  28.582  0.00  0.00    +0.176 C 
BRANCH  16  17
ATOM     17  C   UNL     1      18.962  10.648  30.014  0.00  0.00    -0.049 C 
ATOM     18  C   UNL     1      17.898   9.947  30.797  0.00  0.00    +0.023 C 
ATOM     19  C   UNL     1      18.340   8.836  31.853  0.00  0.00    -0.025 C 
ATOM     20  C   UNL     1      19.508   7.842  31.843  0.00  0.00    +0.012 C 
ATOM     21  C   UNL     1      18.751  10.125  32.707  0.00  0.00    -0.000 C 
ATOM     22  C   UNL     1      20.064  10.826  32.237  0.00  0.00    +0.031 C 
ATOM     23  C   UNL     1      17.060   7.987  32.057  0.00  0.00    +0.012 C 
ATOM     24  C   UNL     1      17.522  10.820  32.062  0.00  0.00    +0.012 C 
ATOM     25  C   UNL     1      20.031  11.042  30.733  0.00  0.00    -0.025 C 
ENDBRANCH  16  17
ENDBRANCH  14  16
ENDBRANCH  10  12
ENDBRANCH   9  10
ENDBRANCH   5   9
ENDBRANCH   4   7
ENDBRANCH   1   4
BRANCH   1  26
ATOM     26  C   UNL     1      16.633   0.660  26.385  0.00  0.00    +0.175 C 
BRANCH  26  27
ATOM     27  C   UNL     1      17.405   0.632  25.058  0.00  0.00    +0.176 C 
ATOM     28  O   UNL     1      16.954   1.757  24.255  0.00  0.00    -0.332 OA
ATOM     29  C   UNL     1      17.662   1.954  22.986  0.00  0.00    +0.277 C 
ATOM     30  C   UNL     1      17.624   0.658  22.139  0.00  0.00    +0.110 C 
ATOM     31  C   UNL     1      18.065  -0.572  22.960  0.00  0.00    +0.143 C 
ATOM     32  C   UNL     1      17.267  -0.678  24.260  0.00  0.00    +0.133 C 
BRANCH  32  33
ATOM     33  N   UNL     1      17.755  -1.803  25.074  0.00  0.00    -0.308 N 
ATOM     34  H   UNL     1      18.708  -1.765  25.406  0.00  0.00    +0.149 HD
ATOM     35  C   UNL     1      17.020  -2.869  25.402  0.00  0.00    +0.210 C 
ATOM     36  C   UNL     1      15.580  -2.908  24.859  0.00  0.00    +0.109 C 
ATOM     37  O   UNL     1      17.451  -3.789  26.098  0.00  0.00    -0.276 OA
ENDBRANCH  32  33
BRANCH  29  38
ATOM     38  C   UNL     1      19.128   2.365  23.235  0.00  0.00    +0.414 C 
ATOM     39  O   UNL     1      20.038   1.557  23.055  0.00  0.00    -0.240 OA
ATOM     40  O   UNL     1      19.401   3.504  23.617  0.00  0.00    -0.240 OA
ENDBRANCH  29  38
BRANCH  29  41
ATOM     41  O   UNL     1      16.979   3.002  22.249  0.00  0.00    -0.343 OA
ATOM     42  C   UNL     1      16.559   2.635  20.911  0.00  0.00    +0.198 C 
ENDBRANCH  29  41
BRANCH  31  43
ATOM     43  O   UNL     1      17.872  -1.759  22.191  0.00  0.00    -0.390 OA
ATOM     44  H   UNL     1      17.502  -1.530  21.335  0.00  0.00    +0.210 HD
ENDBRANCH  31  43
ENDBRANCH  26  27
BRANCH  26  45
ATOM     45  O   UNL     1      15.216   0.557  26.138  0.00  0.00    -0.387 OA
ATOM     46  H   UNL     1      15.063  -0.025  25.390  0.00  0.00    +0.210 HD
ENDBRANCH  26  45
ENDBRANCH   1  26
TORSDOF 15
