REMARK VINA RESULT:    -6.173     12.466     16.709
REMARK INTER + INTRA:         -13.252
REMARK INTER:                 -12.023
REMARK INTRA:                  -1.229
REMARK UNBOUND:                -2.568
REMARK  Name = lig_assembled_27.pdb
REMARK  16 active torsions:
REMARK  status: ('A' for Active; 'I' for Inactive)
REMARK    1  A    between atoms: _2  and  _9
REMARK    2  A    between atoms: _4  and  _18
REMARK    3  A    between atoms: _6  and  _7
REMARK    4  A    between atoms: _6  and  _18
REMARK    5  A    between atoms: _14  and  _34
REMARK    6  A    between atoms: _16  and  _22
REMARK    7  A    between atoms: _17  and  _21
REMARK    8  A    between atoms: _21  and  _22
REMARK    9  A    between atoms: _24  and  _25
REMARK   10  A    between atoms: _26  and  _27
REMARK   11  A    between atoms: _28  and  _30
REMARK   12  A    between atoms: _30  and  _31
REMARK   13  A    between atoms: _30  and  _32
REMARK   14  A    between atoms: _32  and  _33
REMARK   15  A    between atoms: _32  and  _34
REMARK   16  A    between atoms: _35  and  _37
REMARK                            x       y       z     vdW  Elec       q    Type
REMARK                         _______ _______ _______ _____ _____    ______ ____
ROOT
ATOM      1  C   UNL     1      17.059   1.974  26.023  0.00  0.00    +0.163 C 
ENDROOT
BRANCH   1   2
ATOM      2  O   UNL     1      16.057   2.670  26.782  0.00  0.00    -0.388 OA
ATOM      3  H   UNL     1      16.295   2.658  27.713  0.00  0.00    +0.210 HD
ENDBRANCH   1   2
BRANCH   1   4
ATOM      4  C   UNL     1      18.308   2.838  25.890  0.00  0.00    +0.141 C 
BRANCH   4   7
ATOM      5  C   UNL     1      19.052   5.112  26.506  0.00  0.00    +0.401 C 
ATOM      6  O   UNL     1      20.098   5.048  25.856  0.00  0.00    -0.226 OA
ATOM      7  N   UNL     1      18.161   4.124  26.583  0.00  0.00    -0.279 N 
ATOM      8  H   UNL     1      17.337   4.267  27.151  0.00  0.00    +0.152 HD
BRANCH   5   9
ATOM      9  O   UNL     1      18.759   6.308  27.234  0.00  0.00    -0.444 OA
BRANCH   9  10
ATOM     10  C   UNL     1      19.756   6.513  28.238  0.00  0.00    +0.292 C 
BRANCH  10  12
ATOM     11  N   UNL     1      19.255   6.024  30.612  0.00  0.00    -0.131 NA
ATOM     12  C   UNL     1      19.124   6.845  29.529  0.00  0.00    +0.121 A 
ATOM     13  C   UNL     1      18.358   7.932  29.879  0.00  0.00    +0.143 A 
ATOM     14  N   UNL     1      18.045   7.737  31.204  0.00  0.00    -0.220 N 
ATOM     15  N   UNL     1      18.596   6.571  31.625  0.00  0.00    -0.060 NA
BRANCH  14  16
ATOM     16  C   UNL     1      17.281   8.562  32.068  0.00  0.00    +0.068 A 
ATOM     17  C   UNL     1      16.069   8.085  32.594  0.00  0.00    +0.028 A 
ATOM     18  C   UNL     1      15.306   8.890  33.443  0.00  0.00    +0.003 A 
ATOM     19  C   UNL     1      15.744  10.172  33.772  0.00  0.00    +0.020 A 
ATOM     20  C   UNL     1      16.946  10.645  33.253  0.00  0.00    +0.043 A 
ATOM     21 CL   UNL     1      17.487  12.228  33.660  0.00  0.00    -0.083 Cl
ATOM     22  C   UNL     1      17.719   9.851  32.404  0.00  0.00    +0.047 A 
ENDBRANCH  14  16
ENDBRANCH  10  12
ENDBRANCH   9  10
ENDBRANCH   5   9
ENDBRANCH   4   7
ENDBRANCH   1   4
BRANCH   1  23
ATOM     23  C   UNL     1      16.533   1.611  24.623  0.00  0.00    +0.175 C 
BRANCH  23  24
ATOM     24  C   UNL     1      17.614   0.954  23.752  0.00  0.00    +0.176 C 
ATOM     25  O   UNL     1      17.594   1.600  22.450  0.00  0.00    -0.332 OA
ATOM     26  C   UNL     1      18.636   1.171  21.513  0.00  0.00    +0.277 C 
ATOM     27  C   UNL     1      18.605  -0.367  21.335  0.00  0.00    +0.110 C 
ATOM     28  C   UNL     1      18.594  -1.097  22.694  0.00  0.00    +0.143 C 
ATOM     29  C   UNL     1      17.472  -0.571  23.591  0.00  0.00    +0.133 C 
BRANCH  29  30
ATOM     30  N   UNL     1      17.526  -1.213  24.914  0.00  0.00    -0.308 N 
ATOM     31  H   UNL     1      18.291  -0.966  25.526  0.00  0.00    +0.149 HD
ATOM     32  C   UNL     1      16.631  -2.099  25.357  0.00  0.00    +0.210 C 
ATOM     33  C   UNL     1      15.493  -2.473  24.390  0.00  0.00    +0.109 C 
ATOM     34  O   UNL     1      16.693  -2.609  26.476  0.00  0.00    -0.276 OA
ENDBRANCH  29  30
BRANCH  26  35
ATOM     35  C   UNL     1      20.031   1.604  22.011  0.00  0.00    +0.414 C 
ATOM     36  O   UNL     1      20.140   2.503  22.844  0.00  0.00    -0.240 OA
ATOM     37  O   UNL     1      21.046   1.055  21.580  0.00  0.00    -0.240 OA
ENDBRANCH  26  35
BRANCH  28  38
ATOM     38  O   UNL     1      18.412  -2.499  22.487  0.00  0.00    -0.390 OA
ATOM     39  H   UNL     1      19.217  -2.965  22.726  0.00  0.00    +0.210 HD
ENDBRANCH  28  38
BRANCH  26  40
ATOM     40  O   UNL     1      18.365   1.786  20.227  0.00  0.00    -0.343 OA
ATOM     41  C   UNL     1      16.970   1.783  19.829  0.00  0.00    +0.198 C 
ENDBRANCH  26  40
ENDBRANCH  23  24
BRANCH  23  42
ATOM     42  O   UNL     1      16.015   2.786  23.967  0.00  0.00    -0.387 OA
ATOM     43  H   UNL     1      15.058   2.801  24.048  0.00  0.00    +0.210 HD
ENDBRANCH  23  42
ENDBRANCH   1  23
TORSDOF 14
