REMARK VINA RESULT:    -5.450      5.245      7.477
REMARK INTER + INTRA:         -13.223
REMARK INTER:                 -11.231
REMARK INTRA:                  -1.992
REMARK UNBOUND:                -3.154
REMARK  Name = lig_assembled_67.pdb
REMARK  18 active torsions:
REMARK  status: ('A' for Active; 'I' for Inactive)
REMARK    1  A    between atoms: _2  and  _9
REMARK    2  A    between atoms: _4  and  _19
REMARK    3  A    between atoms: _6  and  _7
REMARK    4  A    between atoms: _6  and  _19
REMARK    5  A    between atoms: _9  and  _10
REMARK    6  A    between atoms: _10  and  _11
REMARK    7  A    between atoms: _15  and  _35
REMARK    8  A    between atoms: _17  and  _23
REMARK    9  A    between atoms: _18  and  _22
REMARK   10  A    between atoms: _22  and  _23
REMARK   11  A    between atoms: _25  and  _26
REMARK   12  A    between atoms: _27  and  _28
REMARK   13  A    between atoms: _29  and  _31
REMARK   14  A    between atoms: _31  and  _32
REMARK   15  A    between atoms: _31  and  _33
REMARK   16  A    between atoms: _33  and  _34
REMARK   17  A    between atoms: _33  and  _35
REMARK   18  A    between atoms: _36  and  _38
REMARK                            x       y       z     vdW  Elec       q    Type
REMARK                         _______ _______ _______ _____ _____    ______ ____
ROOT
ATOM      1  C   UNL     1       7.933   2.470  34.383  0.00  0.00    +0.163 C 
ENDROOT
BRANCH   1   2
ATOM      2  O   UNL     1       8.394   2.837  35.693  0.00  0.00    -0.388 OA
ATOM      3  H   UNL     1       7.980   3.661  35.960  0.00  0.00    +0.210 HD
ENDBRANCH   1   2
BRANCH   1   4
ATOM      4  C   UNL     1       7.898   3.692  33.450  0.00  0.00    +0.175 C 
BRANCH   4   5
ATOM      5  C   UNL     1       7.015   4.819  34.006  0.00  0.00    +0.176 C 
ATOM      6  O   UNL     1       7.729   5.443  35.109  0.00  0.00    -0.332 OA
ATOM      7  C   UNL     1       7.080   6.616  35.701  0.00  0.00    +0.277 C 
ATOM      8  C   UNL     1       5.635   6.273  36.139  0.00  0.00    +0.110 C 
ATOM      9  C   UNL     1       4.847   5.579  35.009  0.00  0.00    +0.143 C 
ATOM     10  C   UNL     1       5.614   4.374  34.465  0.00  0.00    +0.133 C 
BRANCH  10  11
ATOM     11  N   UNL     1       4.894   3.773  33.331  0.00  0.00    -0.308 N 
ATOM     12  H   UNL     1       4.831   4.308  32.475  0.00  0.00    +0.149 HD
ATOM     13  C   UNL     1       4.317   2.569  33.358  0.00  0.00    +0.210 C 
ATOM     14  C   UNL     1       4.408   1.790  34.684  0.00  0.00    +0.109 C 
ATOM     15  O   UNL     1       3.733   2.085  32.388  0.00  0.00    -0.276 OA
ENDBRANCH  10  11
BRANCH   7  16
ATOM     16  C   UNL     1       7.049   7.788  34.698  0.00  0.00    +0.414 C 
ATOM     17  O   UNL     1       8.099   8.287  34.295  0.00  0.00    -0.240 OA
ATOM     18  O   UNL     1       5.975   8.234  34.291  0.00  0.00    -0.240 OA
ENDBRANCH   7  16
BRANCH   9  19
ATOM     19  O   UNL     1       3.578   5.146  35.502  0.00  0.00    -0.390 OA
ATOM     20  H   UNL     1       3.168   5.857  35.999  0.00  0.00    +0.210 HD
ENDBRANCH   9  19
BRANCH   7  21
ATOM     21  O   UNL     1       7.836   7.001  36.878  0.00  0.00    -0.343 OA
ATOM     22  C   UNL     1       7.114   6.894  38.131  0.00  0.00    +0.198 C 
ENDBRANCH   7  21
ENDBRANCH   4   5
BRANCH   4  23
ATOM     23  O   UNL     1       7.440   3.304  32.139  0.00  0.00    -0.387 OA
ATOM     24  H   UNL     1       6.599   3.729  31.954  0.00  0.00    +0.210 HD
ENDBRANCH   4  23
ENDBRANCH   1   4
BRANCH   1  25
ATOM     25  C   UNL     1       8.845   1.401  33.789  0.00  0.00    +0.141 C 
BRANCH  25  28
ATOM     26  C   UNL     1       7.326  -0.442  33.154  0.00  0.00    +0.401 C 
ATOM     27  O   UNL     1       7.091  -0.775  34.317  0.00  0.00    -0.226 OA
ATOM     28  N   UNL     1       8.139   0.560  32.815  0.00  0.00    -0.279 N 
ATOM     29  H   UNL     1       8.277   0.750  31.832  0.00  0.00    +0.152 HD
BRANCH  26  30
ATOM     30  O   UNL     1       6.706  -1.163  32.086  0.00  0.00    -0.444 OA
BRANCH  30  31
ATOM     31  C   UNL     1       7.709  -1.810  31.299  0.00  0.00    +0.292 C 
BRANCH  31  33
ATOM     32  N   UNL     1       6.177  -1.277  29.430  0.00  0.00    -0.131 NA
ATOM     33  C   UNL     1       7.235  -2.001  29.916  0.00  0.00    +0.120 A 
ATOM     34  C   UNL     1       7.692  -2.844  28.928  0.00  0.00    +0.137 A 
ATOM     35  N   UNL     1       6.872  -2.588  27.872  0.00  0.00    -0.251 N 
ATOM     36  N   UNL     1       5.962  -1.649  28.176  0.00  0.00    -0.065 NA
BRANCH  35  37
ATOM     37  C   UNL     1       6.900  -3.180  26.553  0.00  0.00    +0.150 C 
BRANCH  37  38
ATOM     38  C   UNL     1       7.479  -2.260  25.481  0.00  0.00    +0.084 C 
BRANCH  38  39
ATOM     39  C   UNL     1       6.564  -2.127  24.272  0.00  0.00    +0.252 C 
ATOM     40  O   UNL     1       6.294  -3.417  23.713  0.00  0.00    -0.349 OA
ATOM     41  C   UNL     1       5.000  -3.257  23.136  0.00  0.00    +0.191 C 
ATOM     42  C   UNL     1       4.300  -2.339  24.104  0.00  0.00    +0.191 C 
ATOM     43  O   UNL     1       5.329  -1.508  24.645  0.00  0.00    -0.349 OA
ENDBRANCH  38  39
ENDBRANCH  37  38
ENDBRANCH  35  37
ENDBRANCH  31  33
ENDBRANCH  30  31
ENDBRANCH  26  30
ENDBRANCH  25  28
ENDBRANCH   1  25
TORSDOF 16
