REMARK VINA RESULT:    -5.119      2.476      4.905
REMARK INTER + INTRA:         -11.980
REMARK INTER:                  -9.677
REMARK INTRA:                  -2.303
REMARK UNBOUND:                -2.671
REMARK  Name = lig_assembled_1.pdb
REMARK  18 active torsions:
REMARK  status: ('A' for Active; 'I' for Inactive)
REMARK    1  A    between atoms: _2  and  _9
REMARK    2  A    between atoms: _4  and  _15
REMARK    3  A    between atoms: _5  and  _9
REMARK    4  A    between atoms: _5  and  _10
REMARK    5  A    between atoms: _6  and  _7
REMARK    6  A    between atoms: _6  and  _15
REMARK    7  A    between atoms: _11  and  _31
REMARK    8  A    between atoms: _13  and  _19
REMARK    9  A    between atoms: _14  and  _18
REMARK   10  A    between atoms: _18  and  _19
REMARK   11  A    between atoms: _21  and  _22
REMARK   12  A    between atoms: _23  and  _24
REMARK   13  A    between atoms: _25  and  _27
REMARK   14  A    between atoms: _27  and  _28
REMARK   15  A    between atoms: _27  and  _29
REMARK   16  A    between atoms: _29  and  _30
REMARK   17  A    between atoms: _29  and  _31
REMARK   18  A    between atoms: _32  and  _34
REMARK                            x       y       z     vdW  Elec       q    Type
REMARK                         _______ _______ _______ _____ _____    ______ ____
ROOT
ATOM      1  C   UNL     1      16.563   0.703  25.687  0.00  0.00    +0.175 C 
ENDROOT
BRANCH   1   2
ATOM      2  C   UNL     1      16.896  -0.216  24.503  0.00  0.00    +0.176 C 
ATOM      3  O   UNL     1      17.418  -1.463  25.039  0.00  0.00    -0.332 OA
ATOM      4  C   UNL     1      17.695  -2.511  24.051  0.00  0.00    +0.277 C 
ATOM      5  C   UNL     1      18.642  -1.978  22.949  0.00  0.00    +0.110 C 
ATOM      6  C   UNL     1      18.145  -0.636  22.371  0.00  0.00    +0.143 C 
ATOM      7  C   UNL     1      17.886   0.379  23.484  0.00  0.00    +0.133 C 
BRANCH   7   8
ATOM      8  N   UNL     1      17.331   1.623  22.929  0.00  0.00    -0.308 N 
ATOM      9  H   UNL     1      16.400   1.590  22.536  0.00  0.00    +0.149 HD
ATOM     10  C   UNL     1      17.976   2.792  22.909  0.00  0.00    +0.210 C 
ATOM     11  C   UNL     1      19.402   2.803  23.492  0.00  0.00    +0.109 C 
ATOM     12  O   UNL     1      17.480   3.822  22.451  0.00  0.00    -0.276 OA
ENDBRANCH   7   8
BRANCH   4  13
ATOM     13  C   UNL     1      16.387  -3.015  23.408  0.00  0.00    +0.414 C 
ATOM     14  O   UNL     1      16.421  -3.684  22.375  0.00  0.00    -0.240 OA
ATOM     15  O   UNL     1      15.298  -2.754  23.920  0.00  0.00    -0.240 OA
ENDBRANCH   4  13
BRANCH   4  16
ATOM     16  O   UNL     1      18.358  -3.607  24.733  0.00  0.00    -0.343 OA
ATOM     17  C   UNL     1      18.637  -3.375  26.137  0.00  0.00    +0.198 C 
ENDBRANCH   4  16
BRANCH   6  18
ATOM     18  O   UNL     1      19.121  -0.108  21.471  0.00  0.00    -0.390 OA
ATOM     19  H   UNL     1      19.505  -0.824  20.959  0.00  0.00    +0.210 HD
ENDBRANCH   6  18
ENDBRANCH   1   2
BRANCH   1  20
ATOM     20  O   UNL     1      15.777   1.825  25.238  0.00  0.00    -0.387 OA
ATOM     21  H   UNL     1      15.296   1.582  24.444  0.00  0.00    +0.210 HD
ENDBRANCH   1  20
BRANCH   1  22
ATOM     22  C   UNL     1      17.827   1.197  26.411  0.00  0.00    +0.163 C 
BRANCH  22  23
ATOM     23  O   UNL     1      18.441   0.133  27.156  0.00  0.00    -0.388 OA
ATOM     24  H   UNL     1      19.397   0.207  27.092  0.00  0.00    +0.210 HD
ENDBRANCH  22  23
BRANCH  22  25
ATOM     25  C   UNL     1      17.463   2.346  27.346  0.00  0.00    +0.141 C 
BRANCH  25  28
ATOM     26  C   UNL     1      18.689   4.365  26.619  0.00  0.00    +0.401 C 
ATOM     27  O   UNL     1      19.756   4.015  27.130  0.00  0.00    -0.226 OA
ATOM     28  N   UNL     1      17.565   3.649  26.677  0.00  0.00    -0.279 N 
ATOM     29  H   UNL     1      16.737   4.024  26.236  0.00  0.00    +0.152 HD
BRANCH  26  30
ATOM     30  O   UNL     1      18.628   5.612  25.922  0.00  0.00    -0.444 OA
BRANCH  30  31
ATOM     31  C   UNL     1      19.941   5.984  25.494  0.00  0.00    +0.292 C 
BRANCH  31  33
ATOM     32  N   UNL     1      21.077   8.161  25.170  0.00  0.00    -0.131 NA
ATOM     33  C   UNL     1      20.247   7.364  25.914  0.00  0.00    +0.120 A 
ATOM     34  C   UNL     1      19.816   8.068  27.016  0.00  0.00    +0.137 A 
ATOM     35  N   UNL     1      20.423   9.281  26.887  0.00  0.00    -0.249 N 
ATOM     36  N   UNL     1      21.183   9.333  25.781  0.00  0.00    -0.065 NA
BRANCH  35  37
ATOM     37  C   UNL     1      20.319  10.426  27.765  0.00  0.00    +0.173 C 
BRANCH  37  38
ATOM     38  C   UNL     1      19.466  11.542  27.175  0.00  0.00    +0.179 C 
BRANCH  38  39
ATOM     39  O   UNL     1      18.962  11.181  25.890  0.00  0.00    -0.393 OA
ATOM     40  H   UNL     1      18.792  10.220  25.912  0.00  0.00    +0.209 HD
ENDBRANCH  38  39
ENDBRANCH  37  38
ENDBRANCH  35  37
ENDBRANCH  31  33
ENDBRANCH  30  31
ENDBRANCH  26  30
ENDBRANCH  25  28
ENDBRANCH  22  25
ENDBRANCH   1  22
TORSDOF 16
