REMARK VINA RESULT:    -6.493     13.348     14.951
REMARK INTER + INTRA:         -13.952
REMARK INTER:                 -11.418
REMARK INTRA:                  -2.534
REMARK UNBOUND:                -1.955
REMARK  Name = lig_assembled_78.pdb
REMARK  18 active torsions:
REMARK  status: ('A' for Active; 'I' for Inactive)
REMARK    1  A    between atoms: _2  and  _9
REMARK    2  A    between atoms: _4  and  _21
REMARK    3  A    between atoms: _6  and  _7
REMARK    4  A    between atoms: _6  and  _21
REMARK    5  A    between atoms: _9  and  _41
REMARK    6  A    between atoms: _10  and  _41
REMARK    7  A    between atoms: _17  and  _37
REMARK    8  A    between atoms: _19  and  _25
REMARK    9  A    between atoms: _20  and  _24
REMARK   10  A    between atoms: _24  and  _25
REMARK   11  A    between atoms: _27  and  _28
REMARK   12  A    between atoms: _29  and  _30
REMARK   13  A    between atoms: _31  and  _33
REMARK   14  A    between atoms: _33  and  _34
REMARK   15  A    between atoms: _33  and  _35
REMARK   16  A    between atoms: _35  and  _36
REMARK   17  A    between atoms: _35  and  _37
REMARK   18  A    between atoms: _38  and  _40
REMARK                            x       y       z     vdW  Elec       q    Type
REMARK                         _______ _______ _______ _____ _____    ______ ____
ROOT
ATOM      1  C   UNL     1      18.713  10.323  29.181  0.00  0.00    +0.163 C 
ENDROOT
BRANCH   1   2
ATOM      2  O   UNL     1      17.432  10.973  29.226  0.00  0.00    -0.388 OA
ATOM      3  H   UNL     1      16.767  10.398  28.840  0.00  0.00    +0.210 HD
ENDBRANCH   1   2
BRANCH   1   4
ATOM      4  C   UNL     1      18.687   8.999  29.963  0.00  0.00    +0.175 C 
BRANCH   4   5
ATOM      5  C   UNL     1      17.932   9.129  31.294  0.00  0.00    +0.176 C 
ATOM      6  O   UNL     1      18.186  10.459  31.824  0.00  0.00    -0.332 OA
ATOM      7  C   UNL     1      17.457  10.803  33.048  0.00  0.00    +0.277 C 
ATOM      8  C   UNL     1      17.714   9.744  34.148  0.00  0.00    +0.110 C 
ATOM      9  C   UNL     1      17.488   8.311  33.622  0.00  0.00    +0.143 C 
ATOM     10  C   UNL     1      18.291   8.062  32.345  0.00  0.00    +0.133 C 
BRANCH  10  11
ATOM     11  N   UNL     1      18.000   6.724  31.806  0.00  0.00    -0.308 N 
ATOM     12  H   UNL     1      17.096   6.573  31.381  0.00  0.00    +0.149 HD
ATOM     13  C   UNL     1      18.852   5.696  31.842  0.00  0.00    +0.210 C 
ATOM     14  C   UNL     1      20.212   5.951  32.519  0.00  0.00    +0.109 C 
ATOM     15  O   UNL     1      18.586   4.590  31.369  0.00  0.00    -0.276 OA
ENDBRANCH  10  11
BRANCH   7  16
ATOM     16  C   UNL     1      15.942  10.903  32.773  0.00  0.00    +0.414 C 
ATOM     17  O   UNL     1      15.531  11.494  31.775  0.00  0.00    -0.240 OA
ATOM     18  O   UNL     1      15.132  10.393  33.548  0.00  0.00    -0.240 OA
ENDBRANCH   7  16
BRANCH   7  19
ATOM     19  O   UNL     1      17.952  12.082  33.521  0.00  0.00    -0.343 OA
ATOM     20  C   UNL     1      19.234  12.031  34.197  0.00  0.00    +0.198 C 
ENDBRANCH   7  19
BRANCH   9  21
ATOM     21  O   UNL     1      17.881   7.365  34.617  0.00  0.00    -0.390 OA
ATOM     22  H   UNL     1      17.429   7.560  35.441  0.00  0.00    +0.210 HD
ENDBRANCH   9  21
ENDBRANCH   4   5
BRANCH   4  23
ATOM     23  O   UNL     1      20.031   8.534  30.197  0.00  0.00    -0.387 OA
ATOM     24  H   UNL     1      20.394   8.978  30.967  0.00  0.00    +0.210 HD
ENDBRANCH   4  23
ENDBRANCH   1   4
BRANCH   1  25
ATOM     25  C   UNL     1      19.109  10.053  27.733  0.00  0.00    +0.141 C 
BRANCH  25  28
ATOM     26  C   UNL     1      19.660   8.004  26.465  0.00  0.00    +0.401 C 
ATOM     27  O   UNL     1      20.583   8.528  25.838  0.00  0.00    -0.226 OA
ATOM     28  N   UNL     1      18.913   8.645  27.366  0.00  0.00    -0.279 N 
ATOM     29  H   UNL     1      18.172   8.132  27.822  0.00  0.00    +0.152 HD
BRANCH  26  30
ATOM     30  O   UNL     1      19.349   6.629  26.226  0.00  0.00    -0.444 OA
BRANCH  30  31
ATOM     31  C   UNL     1      18.736   6.068  27.389  0.00  0.00    +0.292 C 
BRANCH  31  33
ATOM     32  N   UNL     1      18.228   3.821  28.304  0.00  0.00    -0.131 NA
ATOM     33  C   UNL     1      18.612   4.605  27.249  0.00  0.00    +0.120 A 
ATOM     34  C   UNL     1      18.829   3.804  26.150  0.00  0.00    +0.139 A 
ATOM     35  N   UNL     1      18.502   2.554  26.585  0.00  0.00    -0.230 N 
ATOM     36  N   UNL     1      18.186   2.561  27.892  0.00  0.00    -0.064 NA
BRANCH  35  37
ATOM     37  C   UNL     1      18.541   1.308  25.860  0.00  0.00    +0.316 C 
BRANCH  37  38
ATOM     38  S   UNL     1      17.007   0.901  25.066  0.00  0.00    +0.017 S 
ATOM     39  O   UNL     1      16.817  -0.535  25.066  0.00  0.00    -0.168 OA
ATOM     40  O   UNL     1      15.984   1.790  25.589  0.00  0.00    -0.168 OA
BRANCH  38  41
ATOM     41  C   UNL     1      17.267   1.356  23.364  0.00  0.00    +0.090 A 
ATOM     42  C   UNL     1      17.861   0.435  22.494  0.00  0.00    +0.027 A 
ATOM     43  C   UNL     1      18.042   0.777  21.155  0.00  0.00    +0.002 A 
ATOM     44  C   UNL     1      17.618   2.022  20.687  0.00  0.00    +0.000 A 
ATOM     45  C   UNL     1      17.009   2.929  21.555  0.00  0.00    +0.002 A 
ATOM     46  C   UNL     1      16.831   2.600  22.899  0.00  0.00    +0.027 A 
ENDBRANCH  38  41
ENDBRANCH  37  38
ENDBRANCH  35  37
ENDBRANCH  31  33
ENDBRANCH  30  31
ENDBRANCH  26  30
ENDBRANCH  25  28
ENDBRANCH   1  25
TORSDOF 16
