REMARK VINA RESULT:    -5.295      1.546      2.031
REMARK INTER + INTRA:         -12.598
REMARK INTER:                 -10.994
REMARK INTRA:                  -1.605
REMARK UNBOUND:                -2.970
REMARK  Name = lig_assembled_22.pdb
REMARK  20 active torsions:
REMARK  status: ('A' for Active; 'I' for Inactive)
REMARK    1  A    between atoms: _2  and  _9
REMARK    2  A    between atoms: _4  and  _18
REMARK    3  A    between atoms: _5  and  _9
REMARK    4  A    between atoms: _5  and  _12
REMARK    5  A    between atoms: _6  and  _7
REMARK    6  A    between atoms: _6  and  _18
REMARK    7  A    between atoms: _9  and  _10
REMARK    8  A    between atoms: _9  and  _11
REMARK    9  A    between atoms: _14  and  _34
REMARK   10  A    between atoms: _16  and  _22
REMARK   11  A    between atoms: _17  and  _21
REMARK   12  A    between atoms: _21  and  _22
REMARK   13  A    between atoms: _24  and  _25
REMARK   14  A    between atoms: _26  and  _27
REMARK   15  A    between atoms: _28  and  _30
REMARK   16  A    between atoms: _30  and  _31
REMARK   17  A    between atoms: _30  and  _32
REMARK   18  A    between atoms: _32  and  _33
REMARK   19  A    between atoms: _32  and  _34
REMARK   20  A    between atoms: _35  and  _37
REMARK                            x       y       z     vdW  Elec       q    Type
REMARK                         _______ _______ _______ _____ _____    ______ ____
ROOT
ATOM      1  C   UNL     1      19.037   6.464  24.413  0.00  0.00    +0.163 C 
ENDROOT
BRANCH   1   2
ATOM      2  O   UNL     1      18.639   7.002  23.141  0.00  0.00    -0.388 OA
ATOM      3  H   UNL     1      19.086   7.838  22.993  0.00  0.00    +0.210 HD
ENDBRANCH   1   2
BRANCH   1   4
ATOM      4  C   UNL     1      20.103   7.354  25.045  0.00  0.00    +0.141 C 
BRANCH   4   7
ATOM      5  C   UNL     1      19.553   8.204  27.300  0.00  0.00    +0.401 C 
ATOM      6  O   UNL     1      20.066   7.249  27.887  0.00  0.00    -0.226 OA
ATOM      7  N   UNL     1      19.520   8.332  25.973  0.00  0.00    -0.279 N 
ATOM      8  H   UNL     1      19.067   9.147  25.583  0.00  0.00    +0.152 HD
BRANCH   5   9
ATOM      9  O   UNL     1      18.948   9.248  28.067  0.00  0.00    -0.444 OA
BRANCH   9  10
ATOM     10  C   UNL     1      19.617   9.364  29.326  0.00  0.00    +0.292 C 
BRANCH  10  12
ATOM     11  N   UNL     1      17.630  10.377  30.387  0.00  0.00    -0.131 NA
ATOM     12  C   UNL     1      18.632   9.449  30.421  0.00  0.00    +0.120 A 
ATOM     13  C   UNL     1      18.517   8.707  31.577  0.00  0.00    +0.138 A 
ATOM     14  N   UNL     1      17.423   9.232  32.206  0.00  0.00    -0.235 N 
ATOM     15  N   UNL     1      16.900  10.240  31.481  0.00  0.00    -0.064 NA
BRANCH  14  16
ATOM     16  C   UNL     1      16.823   8.863  33.489  0.00  0.00    +0.155 C 
ATOM     17  C   UNL     1      16.257  10.087  34.242  0.00  0.00    +0.048 C 
ATOM     18  C   UNL     1      17.904   8.208  34.369  0.00  0.00    +0.048 C 
BRANCH  16  19
ATOM     19  C   UNL     1      15.670   7.880  33.274  0.00  0.00    +0.332 C 
ATOM     20  O   UNL     1      15.018   7.375  34.181  0.00  0.00    -0.248 OA
BRANCH  19  21
ATOM     21  O   UNL     1      15.393   7.584  31.981  0.00  0.00    -0.479 OA
ATOM     22  H   UNL     1      15.489   6.648  31.719  0.00  0.00    +0.295 HD
ENDBRANCH  19  21
ENDBRANCH  16  19
ENDBRANCH  14  16
ENDBRANCH  10  12
ENDBRANCH   9  10
ENDBRANCH   5   9
ENDBRANCH   4   7
ENDBRANCH   1   4
BRANCH   1  23
ATOM     23  C   UNL     1      19.587   5.036  24.259  0.00  0.00    +0.175 C 
BRANCH  23  24
ATOM     24  C   UNL     1      18.943   4.059  25.254  0.00  0.00    +0.176 C 
ATOM     25  O   UNL     1      19.979   3.604  26.168  0.00  0.00    -0.332 OA
ATOM     26  C   UNL     1      19.525   2.739  27.261  0.00  0.00    +0.277 C 
ATOM     27  C   UNL     1      18.749   1.521  26.701  0.00  0.00    +0.110 C 
ATOM     28  C   UNL     1      17.657   1.953  25.700  0.00  0.00    +0.143 C 
ATOM     29  C   UNL     1      18.238   2.852  24.608  0.00  0.00    +0.133 C 
BRANCH  29  30
ATOM     30  N   UNL     1      17.173   3.327  23.711  0.00  0.00    -0.308 N 
ATOM     31  H   UNL     1      16.495   3.976  24.086  0.00  0.00    +0.149 HD
ATOM     32  C   UNL     1      17.044   2.957  22.434  0.00  0.00    +0.210 C 
ATOM     33  C   UNL     1      18.077   1.947  21.900  0.00  0.00    +0.109 C 
ATOM     34  O   UNL     1      16.150   3.383  21.702  0.00  0.00    -0.276 OA
ENDBRANCH  29  30
BRANCH  26  35
ATOM     35  C   UNL     1      18.623   3.521  28.238  0.00  0.00    +0.414 C 
ATOM     36  O   UNL     1      17.430   3.235  28.344  0.00  0.00    -0.240 OA
ATOM     37  O   UNL     1      19.086   4.436  28.920  0.00  0.00    -0.240 OA
ENDBRANCH  26  35
BRANCH  26  38
ATOM     38  O   UNL     1      20.697   2.251  27.963  0.00  0.00    -0.343 OA
ATOM     39  C   UNL     1      21.958   2.799  27.504  0.00  0.00    +0.198 C 
ENDBRANCH  26  38
BRANCH  28  40
ATOM     40  O   UNL     1      17.072   0.798  25.098  0.00  0.00    -0.390 OA
ATOM     41  H   UNL     1      16.602   1.056  24.301  0.00  0.00    +0.210 HD
ENDBRANCH  28  40
ENDBRANCH  23  24
BRANCH  23  42
ATOM     42  O   UNL     1      21.019   5.035  24.418  0.00  0.00    -0.387 OA
ATOM     43  H   UNL     1      21.239   4.882  25.340  0.00  0.00    +0.210 HD
ENDBRANCH  23  42
ENDBRANCH   1  23
TORSDOF 16
