REMARK VINA RESULT:    -6.767     14.850     17.395
REMARK INTER + INTRA:         -13.499
REMARK INTER:                 -11.320
REMARK INTRA:                  -2.179
REMARK UNBOUND:                -1.788
REMARK  Name = lig_assembled_20.pdb
REMARK  16 active torsions:
REMARK  status: ('A' for Active; 'I' for Inactive)
REMARK    1  A    between atoms: _2  and  _11
REMARK    2  A    between atoms: _6  and  _21
REMARK    3  A    between atoms: _8  and  _9
REMARK    4  A    between atoms: _8  and  _21
REMARK    5  A    between atoms: _17  and  _37
REMARK    6  A    between atoms: _19  and  _25
REMARK    7  A    between atoms: _20  and  _24
REMARK    8  A    between atoms: _24  and  _25
REMARK    9  A    between atoms: _27  and  _28
REMARK   10  A    between atoms: _29  and  _30
REMARK   11  A    between atoms: _31  and  _33
REMARK   12  A    between atoms: _33  and  _34
REMARK   13  A    between atoms: _33  and  _35
REMARK   14  A    between atoms: _35  and  _36
REMARK   15  A    between atoms: _35  and  _37
REMARK   16  A    between atoms: _38  and  _40
REMARK                            x       y       z     vdW  Elec       q    Type
REMARK                         _______ _______ _______ _____ _____    ______ ____
ROOT
ATOM      1  C   UNL     1      19.365  -1.130  22.305  0.00  0.00    +0.163 C 
ENDROOT
BRANCH   1   2
ATOM      2  O   UNL     1      19.699  -0.118  23.269  0.00  0.00    -0.388 OA
ATOM      3  H   UNL     1      20.106   0.628  22.823  0.00  0.00    +0.210 HD
ENDBRANCH   1   2
BRANCH   1   4
ATOM      4  C   UNL     1      18.564  -0.516  21.161  0.00  0.00    +0.141 C 
BRANCH   4   7
ATOM      5  C   UNL     1      17.343   1.578  20.682  0.00  0.00    +0.401 C 
ATOM      6  O   UNL     1      17.221   1.342  19.478  0.00  0.00    -0.226 OA
ATOM      7  N   UNL     1      17.961   0.767  21.542  0.00  0.00    -0.279 N 
ATOM      8  H   UNL     1      18.019   1.052  22.509  0.00  0.00    +0.152 HD
BRANCH   5   9
ATOM      9  O   UNL     1      16.799   2.790  21.211  0.00  0.00    -0.444 OA
BRANCH   9  10
ATOM     10  C   UNL     1      16.997   2.825  22.627  0.00  0.00    +0.292 C 
BRANCH  10  12
ATOM     11  N   UNL     1      17.078   5.300  22.492  0.00  0.00    -0.131 NA
ATOM     12  C   UNL     1      17.531   4.136  23.043  0.00  0.00    +0.121 A 
ATOM     13  C   UNL     1      18.496   4.427  23.976  0.00  0.00    +0.143 A 
ATOM     14  N   UNL     1      18.605   5.798  23.966  0.00  0.00    -0.220 N 
ATOM     15  N   UNL     1      17.735   6.306  23.058  0.00  0.00    -0.060 NA
BRANCH  14  16
ATOM     16  C   UNL     1      19.458   6.622  24.745  0.00  0.00    +0.068 A 
ATOM     17  C   UNL     1      20.786   6.833  24.340  0.00  0.00    +0.030 A 
ATOM     18  C   UNL     1      21.655   7.645  25.084  0.00  0.00    +0.030 A 
ATOM     19  C   UNL     1      21.142   8.233  26.244  0.00  0.00    +0.066 A 
ATOM     20  C   UNL     1      19.835   8.042  26.673  0.00  0.00    +0.021 A 
ATOM     21  C   UNL     1      19.735   8.797  27.861  0.00  0.00    +0.142 A 
ATOM     22  N   UNL     1      20.873   9.422  28.171  0.00  0.00    -0.181 NA
ATOM     23  N   UNL     1      21.705   9.065  27.177  0.00  0.00    -0.277 N 
ATOM     24  H   UNL     1      22.654   9.422  27.191  0.00  0.00    +0.189 HD
ATOM     25  C   UNL     1      18.972   7.226  25.920  0.00  0.00    +0.039 A 
ENDBRANCH  14  16
ENDBRANCH  10  12
ENDBRANCH   9  10
ENDBRANCH   5   9
ENDBRANCH   4   7
ENDBRANCH   1   4
BRANCH   1  26
ATOM     26  C   UNL     1      18.548  -2.260  22.955  0.00  0.00    +0.175 C 
BRANCH  26  27
ATOM     27  C   UNL     1      17.819  -1.791  24.223  0.00  0.00    +0.176 C 
ATOM     28  O   UNL     1      18.817  -1.572  25.257  0.00  0.00    -0.332 OA
ATOM     29  C   UNL     1      18.313  -1.016  26.517  0.00  0.00    +0.277 C 
ATOM     30  C   UNL     1      17.166  -1.894  27.075  0.00  0.00    +0.110 C 
ATOM     31  C   UNL     1      16.095  -2.182  26.001  0.00  0.00    +0.143 C 
ATOM     32  C   UNL     1      16.730  -2.753  24.733  0.00  0.00    +0.133 C 
BRANCH  32  33
ATOM     33  N   UNL     1      15.712  -2.942  23.687  0.00  0.00    -0.308 N 
ATOM     34  H   UNL     1      15.204  -2.127  23.371  0.00  0.00    +0.149 HD
ATOM     35  C   UNL     1      15.415  -4.118  23.128  0.00  0.00    +0.210 C 
ATOM     36  C   UNL     1      16.188  -5.344  23.650  0.00  0.00    +0.109 C 
ATOM     37  O   UNL     1      14.568  -4.243  22.244  0.00  0.00    -0.276 OA
ENDBRANCH  32  33
BRANCH  29  38
ATOM     38  C   UNL     1      17.806   0.427  26.314  0.00  0.00    +0.414 C 
ATOM     39  O   UNL     1      18.440   1.214  25.612  0.00  0.00    -0.240 OA
ATOM     40  O   UNL     1      16.764   0.804  26.852  0.00  0.00    -0.240 OA
ENDBRANCH  29  38
BRANCH  31  41
ATOM     41  O   UNL     1      15.140  -3.113  26.510  0.00  0.00    -0.390 OA
ATOM     42  H   UNL     1      14.337  -2.647  26.756  0.00  0.00    +0.210 HD
ENDBRANCH  31  41
BRANCH  29  43
ATOM     43  O   UNL     1      19.401  -1.021  27.477  0.00  0.00    -0.343 OA
ATOM     44  C   UNL     1      18.991  -1.072  28.867  0.00  0.00    +0.198 C 
ENDBRANCH  29  43
ENDBRANCH  26  27
BRANCH  26  45
ATOM     45  O   UNL     1      19.404  -3.379  23.260  0.00  0.00    -0.387 OA
ATOM     46  H   UNL     1      19.078  -4.164  22.812  0.00  0.00    +0.210 HD
ENDBRANCH  26  45
ENDBRANCH   1  26
TORSDOF 14
