REMARK VINA RESULT:    -5.951      1.544      3.726
REMARK INTER + INTRA:         -12.790
REMARK INTER:                 -11.202
REMARK INTRA:                  -1.587
REMARK UNBOUND:                -2.491
REMARK  Name = lig_assembled_57.pdb
REMARK  17 active torsions:
REMARK  status: ('A' for Active; 'I' for Inactive)
REMARK    1  A    between atoms: _2  and  _10
REMARK    2  A    between atoms: _3  and  _13
REMARK    3  A    between atoms: _5  and  _19
REMARK    4  A    between atoms: _7  and  _8
REMARK    5  A    between atoms: _7  and  _19
REMARK    6  A    between atoms: _15  and  _35
REMARK    7  A    between atoms: _17  and  _23
REMARK    8  A    between atoms: _18  and  _22
REMARK    9  A    between atoms: _22  and  _23
REMARK   10  A    between atoms: _25  and  _26
REMARK   11  A    between atoms: _27  and  _28
REMARK   12  A    between atoms: _29  and  _31
REMARK   13  A    between atoms: _31  and  _32
REMARK   14  A    between atoms: _31  and  _33
REMARK   15  A    between atoms: _33  and  _34
REMARK   16  A    between atoms: _33  and  _35
REMARK   17  A    between atoms: _36  and  _38
REMARK                            x       y       z     vdW  Elec       q    Type
REMARK                         _______ _______ _______ _____ _____    ______ ____
ROOT
ATOM      1  C   UNL     1       3.331   2.949  32.654  0.00  0.00    +0.163 C 
ENDROOT
BRANCH   1   2
ATOM      2  O   UNL     1       4.056   2.383  31.550  0.00  0.00    -0.388 OA
ATOM      3  H   UNL     1       3.438   1.984  30.932  0.00  0.00    +0.210 HD
ENDBRANCH   1   2
BRANCH   1   4
ATOM      4  C   UNL     1       2.046   3.601  32.156  0.00  0.00    +0.141 C 
BRANCH   4   7
ATOM      5  C   UNL     1       1.406   3.220  29.799  0.00  0.00    +0.401 C 
ATOM      6  O   UNL     1       0.652   2.279  30.058  0.00  0.00    -0.226 OA
ATOM      7  N   UNL     1       2.102   3.891  30.718  0.00  0.00    -0.279 N 
ATOM      8  H   UNL     1       2.701   4.643  30.406  0.00  0.00    +0.152 HD
BRANCH   5   9
ATOM      9  O   UNL     1       1.562   3.631  28.439  0.00  0.00    -0.444 OA
BRANCH   9  10
ATOM     10  C   UNL     1       0.329   3.443  27.738  0.00  0.00    +0.292 C 
BRANCH  10  12
ATOM     11  N   UNL     1      -0.215   5.074  25.966  0.00  0.00    -0.131 NA
ATOM     12  C   UNL     1       0.451   3.948  26.358  0.00  0.00    +0.120 A 
ATOM     13  C   UNL     1       1.195   3.472  25.300  0.00  0.00    +0.137 A 
ATOM     14  N   UNL     1       1.010   4.399  24.319  0.00  0.00    -0.248 N 
ATOM     15  N   UNL     1       0.102   5.320  24.705  0.00  0.00    -0.065 NA
BRANCH  14  16
ATOM     16  C   UNL     1       1.660   4.566  23.024  0.00  0.00    +0.111 C 
ATOM     17  C   UNL     1       1.772   3.219  22.294  0.00  0.00    +0.042 C 
ATOM     18  C   UNL     1       0.411   2.790  21.750  0.00  0.00    +0.086 C 
ATOM     19  N   UNL     1      -0.167   3.765  20.820  0.00  0.00    -0.305 NA
ATOM     20  C   UNL     1      -0.251   5.108  21.394  0.00  0.00    +0.086 C 
ATOM     21  C   UNL     1       0.492   3.746  19.517  0.00  0.00    +0.104 C 
ATOM     22  C   UNL     1       1.032   5.603  22.077  0.00  0.00    +0.042 C 
ENDBRANCH  14  16
ENDBRANCH  10  12
ENDBRANCH   9  10
ENDBRANCH   5   9
ENDBRANCH   4   7
ENDBRANCH   1   4
BRANCH   1  23
ATOM     23  C   UNL     1       4.184   3.994  33.394  0.00  0.00    +0.175 C 
BRANCH  23  24
ATOM     24  C   UNL     1       5.599   3.478  33.692  0.00  0.00    +0.176 C 
ATOM     25  O   UNL     1       5.483   2.121  34.201  0.00  0.00    -0.332 OA
ATOM     26  C   UNL     1       6.750   1.424  34.443  0.00  0.00    +0.277 C 
ATOM     27  C   UNL     1       7.656   2.259  35.381  0.00  0.00    +0.110 C 
ATOM     28  C   UNL     1       7.784   3.719  34.898  0.00  0.00    +0.143 C 
ATOM     29  C   UNL     1       6.407   4.346  34.675  0.00  0.00    +0.133 C 
BRANCH  29  30
ATOM     30  N   UNL     1       6.542   5.707  34.133  0.00  0.00    -0.308 N 
ATOM     31  H   UNL     1       6.849   5.805  33.175  0.00  0.00    +0.149 HD
ATOM     32  C   UNL     1       6.286   6.821  34.824  0.00  0.00    +0.210 C 
ATOM     33  C   UNL     1       5.846   6.639  36.288  0.00  0.00    +0.109 C 
ATOM     34  O   UNL     1       6.394   7.948  34.339  0.00  0.00    -0.276 OA
ENDBRANCH  29  30
BRANCH  26  35
ATOM     35  C   UNL     1       7.490   1.157  33.115  0.00  0.00    +0.414 C 
ATOM     36  O   UNL     1       8.716   1.241  33.061  0.00  0.00    -0.240 OA
ATOM     37  O   UNL     1       6.861   0.858  32.100  0.00  0.00    -0.240 OA
ENDBRANCH  26  35
BRANCH  28  38
ATOM     38  O   UNL     1       8.499   4.486  35.868  0.00  0.00    -0.390 OA
ATOM     39  H   UNL     1       8.893   5.252  35.444  0.00  0.00    +0.210 HD
ENDBRANCH  28  38
BRANCH  26  40
ATOM     40  O   UNL     1       6.452   0.164  35.097  0.00  0.00    -0.343 OA
ATOM     41  C   UNL     1       5.944   0.282  36.450  0.00  0.00    +0.198 C 
ENDBRANCH  26  40
ENDBRANCH  23  24
BRANCH  23  42
ATOM     42  O   UNL     1       3.532   4.391  34.617  0.00  0.00    -0.387 OA
ATOM     43  H   UNL     1       2.670   3.971  34.672  0.00  0.00    +0.210 HD
ENDBRANCH  23  42
ENDBRANCH   1  23
TORSDOF 14
