REMARK VINA RESULT:    -6.025      2.518      4.429
REMARK INTER + INTRA:         -14.648
REMARK INTER:                 -11.743
REMARK INTRA:                  -2.905
REMARK UNBOUND:                -3.868
REMARK  Name = lig_assembled_85.pdb
REMARK  19 active torsions:
REMARK  status: ('A' for Active; 'I' for Inactive)
REMARK    1  A    between atoms: _2  and  _10
REMARK    2  A    between atoms: _3  and  _6
REMARK    3  A    between atoms: _3  and  _17
REMARK    4  A    between atoms: _5  and  _23
REMARK    5  A    between atoms: _7  and  _8
REMARK    6  A    between atoms: _7  and  _23
REMARK    7  A    between atoms: _15  and  _16
REMARK    8  A    between atoms: _19  and  _39
REMARK    9  A    between atoms: _21  and  _27
REMARK   10  A    between atoms: _22  and  _26
REMARK   11  A    between atoms: _26  and  _27
REMARK   12  A    between atoms: _29  and  _30
REMARK   13  A    between atoms: _31  and  _32
REMARK   14  A    between atoms: _33  and  _35
REMARK   15  A    between atoms: _35  and  _36
REMARK   16  A    between atoms: _35  and  _37
REMARK   17  A    between atoms: _37  and  _38
REMARK   18  A    between atoms: _37  and  _39
REMARK   19  A    between atoms: _40  and  _42
REMARK                            x       y       z     vdW  Elec       q    Type
REMARK                         _______ _______ _______ _____ _____    ______ ____
ROOT
ATOM      1  C   UNL     1      16.610   2.950  21.738  0.00  0.00    +0.141 C 
ENDROOT
BRANCH   1   4
ATOM      2  C   UNL     1      17.829   1.190  20.505  0.00  0.00    +0.401 C 
ATOM      3  O   UNL     1      18.012   1.886  19.503  0.00  0.00    -0.226 OA
ATOM      4  N   UNL     1      17.179   1.604  21.592  0.00  0.00    -0.279 N 
ATOM      5  H   UNL     1      17.071   0.956  22.360  0.00  0.00    +0.152 HD
BRANCH   2   6
ATOM      6  O   UNL     1      18.333  -0.148  20.521  0.00  0.00    -0.444 OA
BRANCH   6   7
ATOM      7  C   UNL     1      19.237  -0.305  21.619  0.00  0.00    +0.292 C 
BRANCH   7   9
ATOM      8  N   UNL     1      19.328  -2.676  22.299  0.00  0.00    -0.131 NA
ATOM      9  C   UNL     1      18.809  -1.425  22.474  0.00  0.00    +0.121 A 
ATOM     10  C   UNL     1      17.945  -1.437  23.545  0.00  0.00    +0.143 A 
ATOM     11  N   UNL     1      17.972  -2.732  24.000  0.00  0.00    -0.219 N 
ATOM     12  N   UNL     1      18.834  -3.458  23.248  0.00  0.00    -0.060 NA
BRANCH  11  13
ATOM     13  C   UNL     1      17.335  -3.306  25.122  0.00  0.00    +0.080 A 
ATOM     14  C   UNL     1      16.144  -4.045  25.060  0.00  0.00    +0.062 A 
ATOM     15  C   UNL     1      15.491  -4.342  26.279  0.00  0.00    +0.016 A 
ATOM     16  C   UNL     1      16.012  -3.943  27.515  0.00  0.00    +0.021 A 
ATOM     17  C   UNL     1      17.228  -3.276  27.558  0.00  0.00    +0.043 A 
ATOM     18 CL   UNL     1      17.866  -2.747  29.064  0.00  0.00    -0.083 Cl
ATOM     19  C   UNL     1      17.902  -2.982  26.377  0.00  0.00    +0.048 A 
BRANCH  14  20
ATOM     20  C   UNL     1      15.400  -4.514  23.853  0.00  0.00    +0.248 C 
ATOM     21  O   UNL     1      14.915  -3.617  23.159  0.00  0.00    -0.270 OA
ATOM     22  N   UNL     1      15.193  -5.861  23.539  0.00  0.00    -0.304 N 
ATOM     23  C   UNL     1      15.795  -7.029  24.169  0.00  0.00    +0.132 C 
ATOM     24  C   UNL     1      14.433  -6.134  22.323  0.00  0.00    +0.132 C 
ENDBRANCH  14  20
ENDBRANCH  11  13
ENDBRANCH   7   9
ENDBRANCH   6   7
ENDBRANCH   2   6
ENDBRANCH   1   4
BRANCH   1  25
ATOM     25  C   UNL     1      17.557   3.892  22.472  0.00  0.00    +0.163 C 
BRANCH  25  26
ATOM     26  O   UNL     1      16.858   5.084  22.867  0.00  0.00    -0.388 OA
ATOM     27  H   UNL     1      17.096   5.311  23.769  0.00  0.00    +0.210 HD
ENDBRANCH  25  26
BRANCH  25  28
ATOM     28  C   UNL     1      18.152   3.173  23.695  0.00  0.00    +0.175 C 
BRANCH  28  29
ATOM     29  C   UNL     1      18.270   4.103  24.912  0.00  0.00    +0.176 C 
ATOM     30  O   UNL     1      19.498   4.869  24.771  0.00  0.00    -0.332 OA
ATOM     31  C   UNL     1      19.728   5.893  25.794  0.00  0.00    +0.277 C 
ATOM     32  C   UNL     1      19.661   5.268  27.209  0.00  0.00    +0.110 C 
ATOM     33  C   UNL     1      18.387   4.417  27.396  0.00  0.00    +0.143 C 
ATOM     34  C   UNL     1      18.245   3.387  26.275  0.00  0.00    +0.133 C 
BRANCH  34  35
ATOM     35  N   UNL     1      16.985   2.641  26.416  0.00  0.00    -0.308 N 
ATOM     36  H   UNL     1      16.121   3.163  26.369  0.00  0.00    +0.149 HD
ATOM     37  C   UNL     1      16.908   1.321  26.602  0.00  0.00    +0.210 C 
ATOM     38  C   UNL     1      18.243   0.558  26.696  0.00  0.00    +0.109 C 
ATOM     39  O   UNL     1      15.837   0.721  26.702  0.00  0.00    -0.276 OA
ENDBRANCH  34  35
BRANCH  31  40
ATOM     40  C   UNL     1      18.684   7.024  25.680  0.00  0.00    +0.414 C 
ATOM     41  O   UNL     1      17.939   7.084  24.703  0.00  0.00    -0.240 OA
ATOM     42  O   UNL     1      18.588   7.875  26.565  0.00  0.00    -0.240 OA
ENDBRANCH  31  40
BRANCH  33  43
ATOM     43  O   UNL     1      18.439   3.740  28.653  0.00  0.00    -0.390 OA
ATOM     44  H   UNL     1      18.118   4.323  29.345  0.00  0.00    +0.210 HD
ENDBRANCH  33  43
BRANCH  31  45
ATOM     45  O   UNL     1      21.059   6.435  25.597  0.00  0.00    -0.343 OA
ATOM     46  C   UNL     1      21.459   6.586  24.211  0.00  0.00    +0.198 C 
ENDBRANCH  31  45
ENDBRANCH  28  29
BRANCH  28  47
ATOM     47  O   UNL     1      19.441   2.617  23.367  0.00  0.00    -0.387 OA
ATOM     48  H   UNL     1      19.543   2.586  22.413  0.00  0.00    +0.210 HD
ENDBRANCH  28  47
ENDBRANCH  25  28
ENDBRANCH   1  25
TORSDOF 15
