REMARK VINA RESULT:    -5.832     14.566     18.243
REMARK INTER + INTRA:         -13.687
REMARK INTER:                 -11.236
REMARK INTRA:                  -2.451
REMARK UNBOUND:                -2.569
REMARK  Name = lig_assembled_18.pdb
REMARK  19 active torsions:
REMARK  status: ('A' for Active; 'I' for Inactive)
REMARK    1  A    between atoms: _2  and  _10
REMARK    2  A    between atoms: _3  and  _12
REMARK    3  A    between atoms: _5  and  _21
REMARK    4  A    between atoms: _7  and  _8
REMARK    5  A    between atoms: _7  and  _21
REMARK    6  A    between atoms: _10  and  _11
REMARK    7  A    between atoms: _12  and  _13
REMARK    8  A    between atoms: _17  and  _37
REMARK    9  A    between atoms: _19  and  _25
REMARK   10  A    between atoms: _20  and  _24
REMARK   11  A    between atoms: _24  and  _25
REMARK   12  A    between atoms: _27  and  _28
REMARK   13  A    between atoms: _29  and  _30
REMARK   14  A    between atoms: _31  and  _33
REMARK   15  A    between atoms: _33  and  _34
REMARK   16  A    between atoms: _33  and  _35
REMARK   17  A    between atoms: _35  and  _36
REMARK   18  A    between atoms: _35  and  _37
REMARK   19  A    between atoms: _38  and  _40
REMARK                            x       y       z     vdW  Elec       q    Type
REMARK                         _______ _______ _______ _____ _____    ______ ____
ROOT
ATOM      1  C   UNL     1      18.660   5.507  24.607  0.00  0.00    +0.163 C 
ENDROOT
BRANCH   1   2
ATOM      2  O   UNL     1      17.850   5.764  23.449  0.00  0.00    -0.388 OA
ATOM      3  H   UNL     1      16.946   5.937  23.722  0.00  0.00    +0.210 HD
ENDBRANCH   1   2
BRANCH   1   4
ATOM      4  C   UNL     1      19.850   4.598  24.256  0.00  0.00    +0.175 C 
BRANCH   4   5
ATOM      5  C   UNL     1      19.423   3.135  24.065  0.00  0.00    +0.176 C 
ATOM      6  O   UNL     1      18.634   3.055  22.846  0.00  0.00    -0.332 OA
ATOM      7  C   UNL     1      18.224   1.706  22.443  0.00  0.00    +0.277 C 
ATOM      8  C   UNL     1      17.474   1.001  23.600  0.00  0.00    +0.110 C 
ATOM      9  C   UNL     1      18.260   1.087  24.925  0.00  0.00    +0.143 C 
ATOM     10  C   UNL     1      18.638   2.534  25.245  0.00  0.00    +0.133 C 
BRANCH  10  11
ATOM     11  N   UNL     1      19.461   2.593  26.464  0.00  0.00    -0.308 N 
ATOM     12  H   UNL     1      20.404   2.236  26.414  0.00  0.00    +0.149 HD
ATOM     13  C   UNL     1      19.042   3.089  27.631  0.00  0.00    +0.210 C 
ATOM     14  C   UNL     1      17.591   3.603  27.682  0.00  0.00    +0.109 C 
ATOM     15  O   UNL     1      19.758   3.140  28.632  0.00  0.00    -0.276 OA
ENDBRANCH  10  11
BRANCH   7  16
ATOM     16  C   UNL     1      19.449   0.863  22.032  0.00  0.00    +0.414 C 
ATOM     17  O   UNL     1      19.415  -0.364  22.122  0.00  0.00    -0.240 OA
ATOM     18  O   UNL     1      20.469   1.408  21.611  0.00  0.00    -0.240 OA
ENDBRANCH   7  16
BRANCH   7  19
ATOM     19  O   UNL     1      17.317   1.830  21.318  0.00  0.00    -0.343 OA
ATOM     20  C   UNL     1      16.454   2.995  21.352  0.00  0.00    +0.198 C 
ENDBRANCH   7  19
BRANCH   9  21
ATOM     21  O   UNL     1      17.468   0.560  25.990  0.00  0.00    -0.390 OA
ATOM     22  H   UNL     1      18.007  -0.018  26.534  0.00  0.00    +0.210 HD
ENDBRANCH   9  21
ENDBRANCH   4   5
BRANCH   4  23
ATOM     23  O   UNL     1      20.864   4.690  25.276  0.00  0.00    -0.387 OA
ATOM     24  H   UNL     1      20.459   4.584  26.140  0.00  0.00    +0.210 HD
ENDBRANCH   4  23
ENDBRANCH   1   4
BRANCH   1  25
ATOM     25  C   UNL     1      19.177   6.821  25.184  0.00  0.00    +0.141 C 
BRANCH  25  28
ATOM     26  C   UNL     1      19.395   6.963  27.641  0.00  0.00    +0.401 C 
ATOM     27  O   UNL     1      20.585   6.639  27.648  0.00  0.00    -0.226 OA
ATOM     28  N   UNL     1      18.657   7.067  26.535  0.00  0.00    -0.279 N 
ATOM     29  H   UNL     1      17.687   7.331  26.632  0.00  0.00    +0.152 HD
BRANCH  26  30
ATOM     30  O   UNL     1      18.745   7.245  28.883  0.00  0.00    -0.444 OA
BRANCH  30  31
ATOM     31  C   UNL     1      19.209   8.498  29.392  0.00  0.00    +0.292 C 
BRANCH  31  33
ATOM     32  N   UNL     1      17.421   8.139  31.071  0.00  0.00    -0.131 NA
ATOM     33  C   UNL     1      18.319   8.978  30.467  0.00  0.00    +0.120 A 
ATOM     34  C   UNL     1      18.212  10.229  31.029  0.00  0.00    +0.137 A 
ATOM     35  N   UNL     1      17.254  10.082  31.988  0.00  0.00    -0.242 N 
ATOM     36  N   UNL     1      16.764   8.828  31.995  0.00  0.00    -0.065 NA
BRANCH  35  37
ATOM     37  C   UNL     1      16.669  11.089  32.841  0.00  0.00    +0.240 C 
BRANCH  37  38
ATOM     38  C   UNL     1      17.121  10.954  34.277  0.00  0.00    +0.235 C 
ATOM     39  O   UNL     1      18.308  10.981  34.594  0.00  0.00    -0.274 OA
ATOM     40  N   UNL     1      16.104  10.859  35.206  0.00  0.00    -0.309 N 
ATOM     41  H   UNL     1      15.157  10.673  34.905  0.00  0.00    +0.149 HD
BRANCH  40  42
ATOM     42  C   UNL     1      16.382  10.741  36.622  0.00  0.00    +0.146 C 
BRANCH  42  43
ATOM     43  C   UNL     1      16.026  12.018  37.312  0.00  0.00    +0.007 A 
ATOM     44  S   UNL     1      17.108  13.347  37.307  0.00  0.00    -0.100 S 
ATOM     45  C   UNL     1      16.062  14.285  38.281  0.00  0.00    +0.045 A 
ATOM     46  C   UNL     1      14.902  13.612  38.595  0.00  0.00    +0.008 A 
ATOM     47  C   UNL     1      14.879  12.305  38.027  0.00  0.00    +0.013 A 
ENDBRANCH  42  43
ENDBRANCH  40  42
ENDBRANCH  37  38
ENDBRANCH  35  37
ENDBRANCH  31  33
ENDBRANCH  30  31
ENDBRANCH  26  30
ENDBRANCH  25  28
ENDBRANCH   1  25
TORSDOF 17
