REMARK VINA RESULT:    -6.626      1.767      2.828
REMARK INTER + INTRA:         -13.413
REMARK INTER:                 -11.675
REMARK INTRA:                  -1.738
REMARK UNBOUND:                -1.557
REMARK  Name = lig_assembled_28.pdb
REMARK  17 active torsions:
REMARK  status: ('A' for Active; 'I' for Inactive)
REMARK    1  A    between atoms: _2  and  _9
REMARK    2  A    between atoms: _4  and  _22
REMARK    3  A    between atoms: _6  and  _7
REMARK    4  A    between atoms: _6  and  _22
REMARK    5  A    between atoms: _9  and  _10
REMARK    6  A    between atoms: _18  and  _38
REMARK    7  A    between atoms: _20  and  _26
REMARK    8  A    between atoms: _21  and  _25
REMARK    9  A    between atoms: _25  and  _26
REMARK   10  A    between atoms: _28  and  _29
REMARK   11  A    between atoms: _30  and  _31
REMARK   12  A    between atoms: _32  and  _34
REMARK   13  A    between atoms: _34  and  _35
REMARK   14  A    between atoms: _34  and  _36
REMARK   15  A    between atoms: _36  and  _37
REMARK   16  A    between atoms: _36  and  _38
REMARK   17  A    between atoms: _39  and  _41
REMARK                            x       y       z     vdW  Elec       q    Type
REMARK                         _______ _______ _______ _____ _____    ______ ____
ROOT
ATOM      1  C   UNL     1       2.985   3.251  33.254  0.00  0.00    +0.163 C 
ENDROOT
BRANCH   1   2
ATOM      2  O   UNL     1       2.644   1.916  33.662  0.00  0.00    -0.388 OA
ATOM      3  H   UNL     1       1.799   1.926  34.118  0.00  0.00    +0.210 HD
ENDBRANCH   1   2
BRANCH   1   4
ATOM      4  C   UNL     1       3.620   3.227  31.868  0.00  0.00    +0.141 C 
BRANCH   4   7
ATOM      5  C   UNL     1       1.816   2.869  30.217  0.00  0.00    +0.401 C 
ATOM      6  O   UNL     1       1.714   1.662  30.450  0.00  0.00    -0.226 OA
ATOM      7  N   UNL     1       2.684   3.675  30.829  0.00  0.00    -0.279 N 
ATOM      8  H   UNL     1       2.699   4.650  30.563  0.00  0.00    +0.152 HD
BRANCH   5   9
ATOM      9  O   UNL     1       0.965   3.461  29.233  0.00  0.00    -0.444 OA
BRANCH   9  10
ATOM     10  C   UNL     1       0.916   2.622  28.076  0.00  0.00    +0.292 C 
BRANCH  10  12
ATOM     11  N   UNL     1      -0.208   4.340  26.687  0.00  0.00    -0.131 NA
ATOM     12  C   UNL     1       0.809   3.439  26.853  0.00  0.00    +0.120 A 
ATOM     13  C   UNL     1       1.638   3.490  25.756  0.00  0.00    +0.137 A 
ATOM     14  N   UNL     1       1.130   4.509  25.001  0.00  0.00    -0.247 N 
ATOM     15  N   UNL     1      -0.009   4.982  25.543  0.00  0.00    -0.065 NA
BRANCH  14  16
ATOM     16  C   UNL     1       1.672   5.171  23.822  0.00  0.00    +0.180 C 
BRANCH  16  17
ATOM     17  C   UNL     1       1.288   4.505  22.521  0.00  0.00    -0.022 A 
ATOM     18  C   UNL     1       0.330   5.099  21.679  0.00  0.00    +0.055 A 
ATOM     19  C   UNL     1       0.098   4.516  20.452  0.00  0.00    +0.167 A 
ATOM     20  O   UNL     1      -0.751   4.989  19.498  0.00  0.00    -0.453 OA
ATOM     21  C   UNL     1      -0.483   4.067  18.421  0.00  0.00    +0.466 C 
ATOM     22  O   UNL     1       0.396   2.985  18.799  0.00  0.00    -0.453 OA
ATOM     23  C   UNL     1       0.747   3.374  20.054  0.00  0.00    +0.166 A 
ATOM     24  C   UNL     1       1.667   2.744  20.866  0.00  0.00    +0.050 A 
ATOM     25  C   UNL     1       1.943   3.322  22.108  0.00  0.00    +0.009 A 
ENDBRANCH  16  17
ENDBRANCH  14  16
ENDBRANCH  10  12
ENDBRANCH   9  10
ENDBRANCH   5   9
ENDBRANCH   4   7
ENDBRANCH   1   4
BRANCH   1  26
ATOM     26  C   UNL     1       3.957   3.900  34.254  0.00  0.00    +0.175 C 
BRANCH  26  27
ATOM     27  C   UNL     1       5.393   3.381  34.084  0.00  0.00    +0.176 C 
ATOM     28  O   UNL     1       5.445   2.027  34.613  0.00  0.00    -0.332 OA
ATOM     29  C   UNL     1       6.721   1.327  34.439  0.00  0.00    +0.277 C 
ATOM     30  C   UNL     1       7.882   2.165  35.029  0.00  0.00    +0.110 C 
ATOM     31  C   UNL     1       7.850   3.621  34.519  0.00  0.00    +0.143 C 
ATOM     32  C   UNL     1       6.476   4.252  34.747  0.00  0.00    +0.133 C 
BRANCH  32  33
ATOM     33  N   UNL     1       6.431   5.609  34.179  0.00  0.00    -0.308 N 
ATOM     34  H   UNL     1       6.523   5.704  33.178  0.00  0.00    +0.149 HD
ATOM     35  C   UNL     1       6.277   6.722  34.901  0.00  0.00    +0.210 C 
ATOM     36  C   UNL     1       6.167   6.544  36.427  0.00  0.00    +0.109 C 
ATOM     37  O   UNL     1       6.229   7.844  34.397  0.00  0.00    -0.276 OA
ENDBRANCH  32  33
BRANCH  29  38
ATOM     38  C   UNL     1       6.993   1.048  32.946  0.00  0.00    +0.414 C 
ATOM     39  O   UNL     1       8.146   1.026  32.519  0.00  0.00    -0.240 OA
ATOM     40  O   UNL     1       6.059   0.844  32.169  0.00  0.00    -0.240 OA
ENDBRANCH  29  38
BRANCH  29  41
ATOM     41  O   UNL     1       6.647   0.073  35.165  0.00  0.00    -0.343 OA
ATOM     42  C   UNL     1       5.306  -0.442  35.363  0.00  0.00    +0.198 C 
ENDBRANCH  29  41
BRANCH  31  43
ATOM     43  O   UNL     1       8.841   4.392  35.200  0.00  0.00    -0.390 OA
ATOM     44  H   UNL     1       8.523   5.290  35.317  0.00  0.00    +0.210 HD
ENDBRANCH  31  43
ENDBRANCH  26  27
BRANCH  26  45
ATOM     45  O   UNL     1       3.505   3.675  35.604  0.00  0.00    -0.387 OA
ATOM     46  H   UNL     1       2.743   4.231  35.783  0.00  0.00    +0.210 HD
ENDBRANCH  26  45
ENDBRANCH   1  26
TORSDOF 15
