REMARK VINA RESULT:    -6.064     13.073     15.220
REMARK INTER + INTRA:         -13.789
REMARK INTER:                 -11.559
REMARK INTRA:                  -2.230
REMARK UNBOUND:                -2.230
REMARK  Name = lig_assembled_9.pdb
REMARK  20 active torsions:
REMARK  status: ('A' for Active; 'I' for Inactive)
REMARK    1  A    between atoms: _2  and  _9
REMARK    2  A    between atoms: _4  and  _23
REMARK    3  A    between atoms: _6  and  _7
REMARK    4  A    between atoms: _6  and  _23
REMARK    5  A    between atoms: _11  and  _12
REMARK    6  A    between atoms: _12  and  _17
REMARK    7  A    between atoms: _13  and  _14
REMARK    8  A    between atoms: _13  and  _17
REMARK    9  A    between atoms: _19  and  _39
REMARK   10  A    between atoms: _21  and  _27
REMARK   11  A    between atoms: _22  and  _26
REMARK   12  A    between atoms: _26  and  _27
REMARK   13  A    between atoms: _29  and  _30
REMARK   14  A    between atoms: _31  and  _32
REMARK   15  A    between atoms: _33  and  _35
REMARK   16  A    between atoms: _35  and  _36
REMARK   17  A    between atoms: _35  and  _37
REMARK   18  A    between atoms: _37  and  _38
REMARK   19  A    between atoms: _37  and  _39
REMARK   20  A    between atoms: _40  and  _42
REMARK                            x       y       z     vdW  Elec       q    Type
REMARK                         _______ _______ _______ _____ _____    ______ ____
ROOT
ATOM      1  C   UNL     1      19.747   5.957  31.945  0.00  0.00    +0.163 C 
ENDROOT
BRANCH   1   2
ATOM      2  O   UNL     1      19.868   6.677  30.707  0.00  0.00    -0.388 OA
ATOM      3  H   UNL     1      19.673   7.606  30.856  0.00  0.00    +0.210 HD
ENDBRANCH   1   2
BRANCH   1   4
ATOM      4  C   UNL     1      19.024   6.805  33.006  0.00  0.00    +0.175 C 
BRANCH   4   5
ATOM      5  C   UNL     1      18.166   7.912  32.376  0.00  0.00    +0.176 C 
ATOM      6  O   UNL     1      18.924   9.152  32.432  0.00  0.00    -0.332 OA
ATOM      7  C   UNL     1      18.301  10.306  31.776  0.00  0.00    +0.277 C 
ATOM      8  C   UNL     1      16.874  10.538  32.331  0.00  0.00    +0.110 C 
ATOM      9  C   UNL     1      16.040   9.239  32.321  0.00  0.00    +0.143 C 
ATOM     10  C   UNL     1      16.784   8.104  33.026  0.00  0.00    +0.133 C 
BRANCH  10  11
ATOM     11  N   UNL     1      16.018   6.851  32.934  0.00  0.00    -0.308 N 
ATOM     12  H   UNL     1      15.839   6.475  32.013  0.00  0.00    +0.149 HD
ATOM     13  C   UNL     1      15.545   6.179  33.986  0.00  0.00    +0.210 C 
ATOM     14  C   UNL     1      15.813   6.792  35.374  0.00  0.00    +0.109 C 
ATOM     15  O   UNL     1      14.919   5.123  33.880  0.00  0.00    -0.276 OA
ENDBRANCH  10  11
BRANCH   7  16
ATOM     16  C   UNL     1      18.232  10.096  30.249  0.00  0.00    +0.414 C 
ATOM     17  O   UNL     1      17.385  10.686  29.580  0.00  0.00    -0.240 OA
ATOM     18  O   UNL     1      19.023   9.337  29.687  0.00  0.00    -0.240 OA
ENDBRANCH   7  16
BRANCH   7  19
ATOM     19  O   UNL     1      19.103  11.477  32.073  0.00  0.00    -0.343 OA
ATOM     20  C   UNL     1      18.668  12.242  33.225  0.00  0.00    +0.198 C 
ENDBRANCH   7  19
BRANCH   9  21
ATOM     21  O   UNL     1      14.792   9.463  32.977  0.00  0.00    -0.390 OA
ATOM     22  H   UNL     1      14.156   9.809  32.347  0.00  0.00    +0.210 HD
ENDBRANCH   9  21
ENDBRANCH   4   5
BRANCH   4  23
ATOM     23  O   UNL     1      19.981   7.378  33.919  0.00  0.00    -0.387 OA
ATOM     24  H   UNL     1      20.389   6.679  34.436  0.00  0.00    +0.210 HD
ENDBRANCH   4  23
ENDBRANCH   1   4
BRANCH   1  25
ATOM     25  C   UNL     1      18.978   4.659  31.720  0.00  0.00    +0.141 C 
BRANCH  25  28
ATOM     26  C   UNL     1      18.680   3.563  29.525  0.00  0.00    +0.401 C 
ATOM     27  O   UNL     1      19.399   2.600  29.803  0.00  0.00    -0.226 OA
ATOM     28  N   UNL     1      18.433   4.574  30.359  0.00  0.00    -0.279 N 
ATOM     29  H   UNL     1      17.838   5.324  30.037  0.00  0.00    +0.152 HD
BRANCH  26  30
ATOM     30  O   UNL     1      18.067   3.622  28.235  0.00  0.00    -0.444 OA
BRANCH  30  31
ATOM     31  C   UNL     1      18.785   4.540  27.406  0.00  0.00    +0.292 C 
BRANCH  31  33
ATOM     32  N   UNL     1      18.992   4.999  24.982  0.00  0.00    -0.131 NA
ATOM     33  C   UNL     1      18.693   4.131  25.992  0.00  0.00    +0.121 A 
ATOM     34  C   UNL     1      18.336   2.918  25.452  0.00  0.00    +0.143 A 
ATOM     35  N   UNL     1      18.470   3.082  24.091  0.00  0.00    -0.220 N 
ATOM     36  N   UNL     1      18.846   4.357  23.831  0.00  0.00    -0.060 NA
BRANCH  35  37
ATOM     37  C   UNL     1      18.297   2.122  23.061  0.00  0.00    +0.068 A 
ATOM     38  C   UNL     1      18.718   0.798  23.244  0.00  0.00    +0.042 A 
ATOM     39  C   UNL     1      18.574  -0.140  22.210  0.00  0.00    +0.061 A 
ATOM     40  C   UNL     1      18.003   0.251  20.994  0.00  0.00    +0.015 A 
ATOM     41  C   UNL     1      17.572   1.567  20.813  0.00  0.00    +0.003 A 
ATOM     42  C   UNL     1      17.715   2.500  21.841  0.00  0.00    +0.028 A 
BRANCH  39  43
ATOM     43  C   UNL     1      18.952  -1.567  22.384  0.00  0.00    +0.339 C 
ATOM     44  O   UNL     1      20.101  -1.951  22.535  0.00  0.00    -0.245 OA
BRANCH  43  45
ATOM     45  O   UNL     1      17.855  -2.352  22.249  0.00  0.00    -0.461 OA
BRANCH  45  46
ATOM     46  C   UNL     1      17.421  -3.019  23.441  0.00  0.00    +0.229 C 
ATOM     47  C   UNL     1      16.139  -2.355  23.909  0.00  0.00    +0.048 C 
ENDBRANCH  45  46
ENDBRANCH  43  45
ENDBRANCH  39  43
ENDBRANCH  35  37
ENDBRANCH  31  33
ENDBRANCH  30  31
ENDBRANCH  26  30
ENDBRANCH  25  28
ENDBRANCH   1  25
TORSDOF 17
