REMARK VINA RESULT:    -5.425     17.423     20.680
REMARK INTER + INTRA:         -13.827
REMARK INTER:                  -9.671
REMARK INTRA:                  -4.156
REMARK UNBOUND:                -2.852
REMARK  Name = lig_assembled_11.pdb
REMARK  22 active torsions:
REMARK  status: ('A' for Active; 'I' for Inactive)
REMARK    1  A    between atoms: _2  and  _9
REMARK    2  A    between atoms: _4  and  _21
REMARK    3  A    between atoms: _5  and  _9
REMARK    4  A    between atoms: _5  and  _13
REMARK    5  A    between atoms: _6  and  _7
REMARK    6  A    between atoms: _6  and  _21
REMARK    7  A    between atoms: _9  and  _10
REMARK    8  A    between atoms: _10  and  _11
REMARK    9  A    between atoms: _11  and  _12
REMARK   10  A    between atoms: _12  and  _15
REMARK   11  A    between atoms: _17  and  _37
REMARK   12  A    between atoms: _19  and  _25
REMARK   13  A    between atoms: _20  and  _24
REMARK   14  A    between atoms: _24  and  _25
REMARK   15  A    between atoms: _27  and  _28
REMARK   16  A    between atoms: _29  and  _30
REMARK   17  A    between atoms: _31  and  _33
REMARK   18  A    between atoms: _33  and  _34
REMARK   19  A    between atoms: _33  and  _35
REMARK   20  A    between atoms: _35  and  _36
REMARK   21  A    between atoms: _35  and  _37
REMARK   22  A    between atoms: _38  and  _40
REMARK                            x       y       z     vdW  Elec       q    Type
REMARK                         _______ _______ _______ _____ _____    ______ ____
ROOT
ATOM      1  C   UNL     1       7.794   9.151  42.794  0.00  0.00    +0.163 C 
ENDROOT
BRANCH   1   2
ATOM      2  O   UNL     1       7.604  10.441  42.191  0.00  0.00    -0.388 OA
ATOM      3  H   UNL     1       7.475  11.100  42.877  0.00  0.00    +0.210 HD
ENDBRANCH   1   2
BRANCH   1   4
ATOM      4  C   UNL     1       6.947   8.081  42.084  0.00  0.00    +0.175 C 
BRANCH   4   5
ATOM      5  C   UNL     1       5.704   8.682  41.411  0.00  0.00    +0.176 C 
ATOM      6  O   UNL     1       5.054   9.558  42.372  0.00  0.00    -0.332 OA
ATOM      7  C   UNL     1       3.898  10.306  41.868  0.00  0.00    +0.277 C 
ATOM      8  C   UNL     1       2.856   9.342  41.250  0.00  0.00    +0.110 C 
ATOM      9  C   UNL     1       3.507   8.369  40.244  0.00  0.00    +0.143 C 
ATOM     10  C   UNL     1       4.699   7.646  40.872  0.00  0.00    +0.133 C 
BRANCH  10  11
ATOM     11  N   UNL     1       5.363   6.788  39.878  0.00  0.00    -0.308 N 
ATOM     12  H   UNL     1       5.841   7.238  39.111  0.00  0.00    +0.149 HD
ATOM     13  C   UNL     1       5.374   5.453  39.924  0.00  0.00    +0.210 C 
ATOM     14  C   UNL     1       4.614   4.797  41.092  0.00  0.00    +0.109 C 
ATOM     15  O   UNL     1       5.951   4.760  39.086  0.00  0.00    -0.276 OA
ENDBRANCH  10  11
BRANCH   7  16
ATOM     16  C   UNL     1       4.336  11.339  40.809  0.00  0.00    +0.414 C 
ATOM     17  O   UNL     1       3.587  11.626  39.876  0.00  0.00    -0.240 OA
ATOM     18  O   UNL     1       5.437  11.886  40.888  0.00  0.00    -0.240 OA
ENDBRANCH   7  16
BRANCH   7  19
ATOM     19  O   UNL     1       3.282  10.989  42.990  0.00  0.00    -0.343 OA
ATOM     20  C   UNL     1       1.836  10.893  43.045  0.00  0.00    +0.198 C 
ENDBRANCH   7  19
BRANCH   9  21
ATOM     21  O   UNL     1       2.544   7.405  39.816  0.00  0.00    -0.390 OA
ATOM     22  H   UNL     1       1.696   7.835  39.685  0.00  0.00    +0.210 HD
ENDBRANCH   9  21
ENDBRANCH   4   5
BRANCH   4  23
ATOM     23  O   UNL     1       6.558   7.055  43.018  0.00  0.00    -0.387 OA
ATOM     24  H   UNL     1       5.972   7.429  43.680  0.00  0.00    +0.210 HD
ENDBRANCH   4  23
ENDBRANCH   1   4
BRANCH   1  25
ATOM     25  C   UNL     1       9.267   8.758  42.731  0.00  0.00    +0.141 C 
BRANCH  25  28
ATOM     26  C   UNL     1      10.569   7.178  41.348  0.00  0.00    +0.401 C 
ATOM     27  O   UNL     1      11.291   6.812  42.279  0.00  0.00    -0.226 OA
ATOM     28  N   UNL     1       9.601   8.088  41.469  0.00  0.00    -0.279 N 
ATOM     29  H   UNL     1       9.069   8.330  40.645  0.00  0.00    +0.152 HD
BRANCH  26  30
ATOM     30  O   UNL     1      10.766   6.609  40.051  0.00  0.00    -0.444 OA
BRANCH  30  31
ATOM     31  C   UNL     1       9.679   5.732  39.744  0.00  0.00    +0.292 C 
BRANCH  31  33
ATOM     32  N   UNL     1       8.205   7.320  38.547  0.00  0.00    -0.131 NA
ATOM     33  C   UNL     1       8.975   6.189  38.532  0.00  0.00    +0.120 A 
ATOM     34  C   UNL     1       8.949   5.646  37.267  0.00  0.00    +0.138 A 
ATOM     35  N   UNL     1       8.111   6.466  36.566  0.00  0.00    -0.238 N 
ATOM     36  N   UNL     1       7.692   7.488  37.335  0.00  0.00    -0.065 NA
BRANCH  35  37
ATOM     37  C   UNL     1       7.753   6.463  35.151  0.00  0.00    +0.217 C 
BRANCH  37  38
ATOM     38  C   UNL     1       7.141   7.771  34.671  0.00  0.00    +0.330 C 
ATOM     39  O   UNL     1       5.986   7.929  34.306  0.00  0.00    -0.249 OA
BRANCH  38  40
ATOM     40  O   UNL     1       8.008   8.815  34.662  0.00  0.00    -0.479 OA
ATOM     41  H   UNL     1       8.961   8.603  34.627  0.00  0.00    +0.295 HD
ENDBRANCH  38  40
ENDBRANCH  37  38
BRANCH  37  42
ATOM     42  C   UNL     1       6.900   5.237  34.778  0.00  0.00    +0.049 C 
BRANCH  42  43
ATOM     43  C   UNL     1       5.706   4.975  35.705  0.00  0.00    +0.123 C 
BRANCH  43  44
ATOM     44  C   UNL     1       4.416   4.901  34.920  0.00  0.00    +0.305 C 
ATOM     45  O   UNL     1       3.341   4.555  35.379  0.00  0.00    -0.251 OA
BRANCH  44  46
ATOM     46  O   UNL     1       4.578   5.240  33.621  0.00  0.00    -0.481 OA
ATOM     47  H   UNL     1       5.324   4.795  33.177  0.00  0.00    +0.295 HD
ENDBRANCH  44  46
ENDBRANCH  43  44
ENDBRANCH  42  43
ENDBRANCH  37  42
ENDBRANCH  35  37
ENDBRANCH  31  33
ENDBRANCH  30  31
ENDBRANCH  26  30
ENDBRANCH  25  28
ENDBRANCH   1  25
TORSDOF 20
