REMARK VINA RESULT:    -6.239     13.137     18.083
REMARK INTER + INTRA:         -14.123
REMARK INTER:                 -11.848
REMARK INTRA:                  -2.275
REMARK UNBOUND:                -2.230
REMARK  Name = lig_assembled_9.pdb
REMARK  20 active torsions:
REMARK  status: ('A' for Active; 'I' for Inactive)
REMARK    1  A    between atoms: _2  and  _9
REMARK    2  A    between atoms: _4  and  _23
REMARK    3  A    between atoms: _6  and  _7
REMARK    4  A    between atoms: _6  and  _23
REMARK    5  A    between atoms: _11  and  _12
REMARK    6  A    between atoms: _12  and  _17
REMARK    7  A    between atoms: _13  and  _14
REMARK    8  A    between atoms: _13  and  _17
REMARK    9  A    between atoms: _19  and  _39
REMARK   10  A    between atoms: _21  and  _27
REMARK   11  A    between atoms: _22  and  _26
REMARK   12  A    between atoms: _26  and  _27
REMARK   13  A    between atoms: _29  and  _30
REMARK   14  A    between atoms: _31  and  _32
REMARK   15  A    between atoms: _33  and  _35
REMARK   16  A    between atoms: _35  and  _36
REMARK   17  A    between atoms: _35  and  _37
REMARK   18  A    between atoms: _37  and  _38
REMARK   19  A    between atoms: _37  and  _39
REMARK   20  A    between atoms: _40  and  _42
REMARK                            x       y       z     vdW  Elec       q    Type
REMARK                         _______ _______ _______ _____ _____    ______ ____
ROOT
ATOM      1  C   UNL     1      18.810   6.442  24.882  0.00  0.00    +0.163 C 
ENDROOT
BRANCH   1   2
ATOM      2  O   UNL     1      17.913   6.959  23.886  0.00  0.00    -0.388 OA
ATOM      3  H   UNL     1      17.222   7.473  24.312  0.00  0.00    +0.210 HD
ENDBRANCH   1   2
BRANCH   1   4
ATOM      4  C   UNL     1      19.763   5.397  24.276  0.00  0.00    +0.175 C 
BRANCH   4   5
ATOM      5  C   UNL     1      19.203   3.971  24.388  0.00  0.00    +0.176 C 
ATOM      6  O   UNL     1      18.069   3.864  23.485  0.00  0.00    -0.332 OA
ATOM      7  C   UNL     1      17.467   2.531  23.379  0.00  0.00    +0.277 C 
ATOM      8  C   UNL     1      17.072   2.003  24.780  0.00  0.00    +0.110 C 
ATOM      9  C   UNL     1      18.237   2.126  25.784  0.00  0.00    +0.143 C 
ATOM     10  C   UNL     1      18.789   3.552  25.811  0.00  0.00    +0.133 C 
BRANCH  10  11
ATOM     11  N   UNL     1      19.954   3.636  26.706  0.00  0.00    -0.308 N 
ATOM     12  H   UNL     1      20.794   3.144  26.436  0.00  0.00    +0.149 HD
ATOM     13  C   UNL     1      19.974   4.321  27.853  0.00  0.00    +0.210 C 
ATOM     14  C   UNL     1      18.670   5.039  28.251  0.00  0.00    +0.109 C 
ATOM     15  O   UNL     1      20.969   4.386  28.576  0.00  0.00    -0.276 OA
ENDBRANCH  10  11
BRANCH   7  16
ATOM     16  C   UNL     1      18.444   1.541  22.711  0.00  0.00    +0.414 C 
ATOM     17  O   UNL     1      18.218   0.332  22.741  0.00  0.00    -0.240 OA
ATOM     18  O   UNL     1      19.456   1.952  22.142  0.00  0.00    -0.240 OA
ENDBRANCH   7  16
BRANCH   7  19
ATOM     19  O   UNL     1      16.263   2.645  22.577  0.00  0.00    -0.343 OA
ATOM     20  C   UNL     1      16.483   3.003  21.189  0.00  0.00    +0.198 C 
ENDBRANCH   7  19
BRANCH   9  21
ATOM     21  O   UNL     1      17.786   1.771  27.092  0.00  0.00    -0.390 OA
ATOM     22  H   UNL     1      18.283   2.265  27.748  0.00  0.00    +0.210 HD
ENDBRANCH   9  21
ENDBRANCH   4   5
BRANCH   4  23
ATOM     23  O   UNL     1      21.055   5.475  24.911  0.00  0.00    -0.387 OA
ATOM     24  H   UNL     1      20.940   5.573  25.859  0.00  0.00    +0.210 HD
ENDBRANCH   4  23
ENDBRANCH   1   4
BRANCH   1  25
ATOM     25  C   UNL     1      19.624   7.579  25.492  0.00  0.00    +0.141 C 
BRANCH  25  28
ATOM     26  C   UNL     1      19.224   9.685  26.721  0.00  0.00    +0.401 C 
ATOM     27  O   UNL     1      20.405  10.038  26.689  0.00  0.00    -0.226 OA
ATOM     28  N   UNL     1      18.771   8.548  26.192  0.00  0.00    -0.279 N 
ATOM     29  H   UNL     1      17.786   8.341  26.278  0.00  0.00    +0.152 HD
BRANCH  26  30
ATOM     30  O   UNL     1      18.264  10.529  27.363  0.00  0.00    -0.444 OA
BRANCH  30  31
ATOM     31  C   UNL     1      18.798  11.003  28.602  0.00  0.00    +0.292 C 
BRANCH  31  33
ATOM     32  N   UNL     1      17.329  10.649  30.563  0.00  0.00    -0.131 NA
ATOM     33  C   UNL     1      18.297  10.183  29.721  0.00  0.00    +0.121 A 
ATOM     34  C   UNL     1      18.653   8.912  30.105  0.00  0.00    +0.143 A 
ATOM     35  N   UNL     1      17.837   8.623  31.176  0.00  0.00    -0.220 N 
ATOM     36  N   UNL     1      17.061   9.699  31.449  0.00  0.00    -0.060 NA
BRANCH  35  37
ATOM     37  C   UNL     1      17.735   7.415  31.912  0.00  0.00    +0.068 A 
ATOM     38  C   UNL     1      16.662   7.203  32.789  0.00  0.00    +0.042 A 
ATOM     39  C   UNL     1      16.582   6.020  33.539  0.00  0.00    +0.061 A 
ATOM     40  C   UNL     1      17.578   5.046  33.405  0.00  0.00    +0.015 A 
ATOM     41  C   UNL     1      18.642   5.249  32.523  0.00  0.00    +0.003 A 
ATOM     42  C   UNL     1      18.721   6.426  31.777  0.00  0.00    +0.028 A 
BRANCH  39  43
ATOM     43  C   UNL     1      15.431   5.732  34.434  0.00  0.00    +0.339 C 
ATOM     44  O   UNL     1      14.685   4.777  34.292  0.00  0.00    -0.245 OA
BRANCH  43  45
ATOM     45  O   UNL     1      15.293   6.731  35.340  0.00  0.00    -0.461 OA
BRANCH  45  46
ATOM     46  C   UNL     1      15.204   6.315  36.709  0.00  0.00    +0.229 C 
ATOM     47  C   UNL     1      15.776   7.423  37.573  0.00  0.00    +0.048 C 
ENDBRANCH  45  46
ENDBRANCH  43  45
ENDBRANCH  39  43
ENDBRANCH  35  37
ENDBRANCH  31  33
ENDBRANCH  30  31
ENDBRANCH  26  30
ENDBRANCH  25  28
ENDBRANCH   1  25
TORSDOF 17
