REMARK VINA RESULT:    -6.825      2.402      3.889
REMARK INTER + INTRA:         -13.787
REMARK INTER:                 -12.255
REMARK INTRA:                  -1.532
REMARK UNBOUND:                -1.575
REMARK  Name = lig_assembled_0.pdb
REMARK  17 active torsions:
REMARK  status: ('A' for Active; 'I' for Inactive)
REMARK    1  A    between atoms: _2  and  _10
REMARK    2  A    between atoms: _5  and  _21
REMARK    3  A    between atoms: _7  and  _8
REMARK    4  A    between atoms: _7  and  _21
REMARK    5  A    between atoms: _11  and  _12
REMARK    6  A    between atoms: _17  and  _37
REMARK    7  A    between atoms: _19  and  _25
REMARK    8  A    between atoms: _20  and  _24
REMARK    9  A    between atoms: _24  and  _25
REMARK   10  A    between atoms: _27  and  _28
REMARK   11  A    between atoms: _29  and  _30
REMARK   12  A    between atoms: _31  and  _33
REMARK   13  A    between atoms: _33  and  _34
REMARK   14  A    between atoms: _33  and  _35
REMARK   15  A    between atoms: _35  and  _36
REMARK   16  A    between atoms: _35  and  _37
REMARK   17  A    between atoms: _38  and  _40
REMARK                            x       y       z     vdW  Elec       q    Type
REMARK                         _______ _______ _______ _____ _____    ______ ____
ROOT
ATOM      1  C   UNL     1       3.459   3.552  33.804  0.00  0.00    +0.163 C 
ENDROOT
BRANCH   1   2
ATOM      2  O   UNL     1       3.980   4.682  33.085  0.00  0.00    -0.388 OA
ATOM      3  H   UNL     1       4.163   5.396  33.700  0.00  0.00    +0.210 HD
ENDBRANCH   1   2
BRANCH   1   4
ATOM      4  C   UNL     1       2.055   3.221  33.309  0.00  0.00    +0.141 C 
BRANCH   4   7
ATOM      5  C   UNL     1       0.683   3.994  31.405  0.00  0.00    +0.401 C 
ATOM      6  O   UNL     1      -0.365   4.035  32.054  0.00  0.00    -0.226 OA
ATOM      7  N   UNL     1       1.859   3.619  31.910  0.00  0.00    -0.279 N 
ATOM      8  H   UNL     1       2.661   3.609  31.295  0.00  0.00    +0.152 HD
BRANCH   5   9
ATOM      9  O   UNL     1       0.658   4.362  30.023  0.00  0.00    -0.444 OA
BRANCH   9  10
ATOM     10  C   UNL     1       0.207   3.253  29.242  0.00  0.00    +0.292 C 
BRANCH  10  12
ATOM     11  N   UNL     1       2.117   3.813  27.784  0.00  0.00    -0.131 NA
ATOM     12  C   UNL     1       0.895   3.230  27.937  0.00  0.00    +0.121 A 
ATOM     13  C   UNL     1       0.514   2.662  26.743  0.00  0.00    +0.143 A 
ATOM     14  N   UNL     1       1.502   3.008  25.849  0.00  0.00    -0.219 N 
ATOM     15  N   UNL     1       2.502   3.630  26.532  0.00  0.00    -0.060 NA
BRANCH  14  16
ATOM     16  C   UNL     1       1.649   2.713  24.464  0.00  0.00    +0.079 A 
ATOM     17  C   UNL     1       1.453   3.640  23.420  0.00  0.00    +0.062 A 
ATOM     18  C   UNL     1       1.593   3.199  22.085  0.00  0.00    +0.015 A 
ATOM     19  C   UNL     1       1.904   1.873  21.786  0.00  0.00    +0.001 A 
ATOM     20  C   UNL     1       2.111   0.965  22.814  0.00  0.00    +0.002 A 
ATOM     21  C   UNL     1       1.996   1.382  24.140  0.00  0.00    +0.028 A 
BRANCH  17  22
ATOM     22  C   UNL     1       1.290   5.106  23.624  0.00  0.00    +0.244 C 
ATOM     23  O   UNL     1       0.616   5.568  24.531  0.00  0.00    -0.270 OA
ATOM     24  N   UNL     1       1.963   5.943  22.774  0.00  0.00    -0.325 N 
ATOM     25  H   UNL     1       1.887   6.938  22.951  0.00  0.00    +0.145 HD
ATOM     26  H   UNL     1       2.550   5.642  22.011  0.00  0.00    +0.145 HD
ENDBRANCH  17  22
ENDBRANCH  14  16
ENDBRANCH  10  12
ENDBRANCH   9  10
ENDBRANCH   5   9
ENDBRANCH   4   7
ENDBRANCH   1   4
BRANCH   1  27
ATOM     27  C   UNL     1       3.419   3.833  35.316  0.00  0.00    +0.175 C 
BRANCH  27  28
ATOM     28  C   UNL     1       4.325   5.008  35.709  0.00  0.00    +0.176 C 
ATOM     29  O   UNL     1       5.651   4.750  35.171  0.00  0.00    -0.332 OA
ATOM     30  C   UNL     1       6.632   5.823  35.359  0.00  0.00    +0.277 C 
ATOM     31  C   UNL     1       6.740   6.201  36.857  0.00  0.00    +0.110 C 
ATOM     32  C   UNL     1       5.352   6.455  37.482  0.00  0.00    +0.143 C 
ATOM     33  C   UNL     1       4.411   5.277  37.223  0.00  0.00    +0.133 C 
BRANCH  33  34
ATOM     34  N   UNL     1       3.067   5.567  37.747  0.00  0.00    -0.308 N 
ATOM     35  H   UNL     1       2.543   6.315  37.314  0.00  0.00    +0.149 HD
ATOM     36  C   UNL     1       2.494   4.908  38.758  0.00  0.00    +0.210 C 
ATOM     37  C   UNL     1       3.329   3.793  39.415  0.00  0.00    +0.109 C 
ATOM     38  O   UNL     1       1.361   5.164  39.167  0.00  0.00    -0.276 OA
ENDBRANCH  33  34
BRANCH  30  39
ATOM     39  C   UNL     1       6.242   7.070  34.539  0.00  0.00    +0.414 C 
ATOM     40  O   UNL     1       7.007   8.032  34.472  0.00  0.00    -0.240 OA
ATOM     41  O   UNL     1       5.165   7.114  33.945  0.00  0.00    -0.240 OA
ENDBRANCH  30  39
BRANCH  32  42
ATOM     42  O   UNL     1       5.486   6.650  38.890  0.00  0.00    -0.390 OA
ATOM     43  H   UNL     1       5.750   7.556  39.064  0.00  0.00    +0.210 HD
ENDBRANCH  32  42
BRANCH  30  44
ATOM     44  O   UNL     1       7.924   5.332  34.918  0.00  0.00    -0.343 OA
ATOM     45  C   UNL     1       7.878   4.137  34.097  0.00  0.00    +0.198 C 
ENDBRANCH  30  44
ENDBRANCH  27  28
BRANCH  27  46
ATOM     46  O   UNL     1       3.791   2.650  36.051  0.00  0.00    -0.387 OA
ATOM     47  H   UNL     1       2.999   2.178  36.321  0.00  0.00    +0.210 HD
ENDBRANCH  27  46
ENDBRANCH   1  27
TORSDOF 15
