REMARK VINA RESULT:    -5.489      3.179      9.348
REMARK INTER + INTRA:         -13.844
REMARK INTER:                 -11.813
REMARK INTRA:                  -2.030
REMARK UNBOUND:                -3.380
REMARK  Name = lig_assembled_62.pdb
REMARK  20 active torsions:
REMARK  status: ('A' for Active; 'I' for Inactive)
REMARK    1  A    between atoms: _2  and  _10
REMARK    2  A    between atoms: _5  and  _19
REMARK    3  A    between atoms: _6  and  _10
REMARK    4  A    between atoms: _7  and  _8
REMARK    5  A    between atoms: _7  and  _19
REMARK    6  A    between atoms: _10  and  _11
REMARK    7  A    between atoms: _11  and  _14
REMARK    8  A    between atoms: _12  and  _14
REMARK    9  A    between atoms: _15  and  _35
REMARK   10  A    between atoms: _17  and  _23
REMARK   11  A    between atoms: _18  and  _22
REMARK   12  A    between atoms: _22  and  _23
REMARK   13  A    between atoms: _25  and  _26
REMARK   14  A    between atoms: _27  and  _28
REMARK   15  A    between atoms: _29  and  _31
REMARK   16  A    between atoms: _31  and  _32
REMARK   17  A    between atoms: _31  and  _33
REMARK   18  A    between atoms: _33  and  _34
REMARK   19  A    between atoms: _33  and  _35
REMARK   20  A    between atoms: _36  and  _38
REMARK                            x       y       z     vdW  Elec       q    Type
REMARK                         _______ _______ _______ _____ _____    ______ ____
ROOT
ATOM      1  C   UNL     1      16.571   1.099  26.156  0.00  0.00    +0.163 C 
ENDROOT
BRANCH   1   2
ATOM      2  O   UNL     1      15.505   0.392  26.809  0.00  0.00    -0.388 OA
ATOM      3  H   UNL     1      15.639   0.417  27.760  0.00  0.00    +0.210 HD
ENDBRANCH   1   2
BRANCH   1   4
ATOM      4  C   UNL     1      16.330   1.177  24.638  0.00  0.00    +0.175 C 
BRANCH   4   5
ATOM      5  C   UNL     1      17.509   0.606  23.836  0.00  0.00    +0.176 C 
ATOM      6  O   UNL     1      17.564   1.306  22.563  0.00  0.00    -0.332 OA
ATOM      7  C   UNL     1      18.700   0.965  21.700  0.00  0.00    +0.277 C 
ATOM      8  C   UNL     1      18.756  -0.564  21.460  0.00  0.00    +0.110 C 
ATOM      9  C   UNL     1      18.669  -1.352  22.784  0.00  0.00    +0.143 C 
ATOM     10  C   UNL     1      17.454  -0.915  23.603  0.00  0.00    +0.133 C 
BRANCH  10  11
ATOM     11  N   UNL     1      17.429  -1.610  24.899  0.00  0.00    -0.308 N 
ATOM     12  H   UNL     1      18.135  -1.365  25.579  0.00  0.00    +0.149 HD
ATOM     13  C   UNL     1      16.536  -2.544  25.236  0.00  0.00    +0.210 C 
ATOM     14  C   UNL     1      15.489  -2.914  24.169  0.00  0.00    +0.109 C 
ATOM     15  O   UNL     1      16.531  -3.099  26.336  0.00  0.00    -0.276 OA
ENDBRANCH  10  11
BRANCH   7  16
ATOM     16  C   UNL     1      20.026   1.437  22.330  0.00  0.00    +0.414 C 
ATOM     17  O   UNL     1      20.079   2.507  22.936  0.00  0.00    -0.240 OA
ATOM     18  O   UNL     1      21.043   0.750  22.232  0.00  0.00    -0.240 OA
ENDBRANCH   7  16
BRANCH   7  19
ATOM     19  O   UNL     1      18.505   1.622  20.421  0.00  0.00    -0.343 OA
ATOM     20  C   UNL     1      17.121   1.835  20.046  0.00  0.00    +0.198 C 
ENDBRANCH   7  19
BRANCH   9  21
ATOM     21  O   UNL     1      18.572  -2.749  22.507  0.00  0.00    -0.390 OA
ATOM     22  H   UNL     1      18.635  -3.244  23.327  0.00  0.00    +0.210 HD
ENDBRANCH   9  21
ENDBRANCH   4   5
BRANCH   4  23
ATOM     23  O   UNL     1      16.076   2.540  24.245  0.00  0.00    -0.387 OA
ATOM     24  H   UNL     1      15.444   2.553  23.522  0.00  0.00    +0.210 HD
ENDBRANCH   4  23
ENDBRANCH   1   4
BRANCH   1  25
ATOM     25  C   UNL     1      16.688   2.509  26.726  0.00  0.00    +0.141 C 
BRANCH  25  28
ATOM     26  C   UNL     1      18.838   3.722  26.840  0.00  0.00    +0.401 C 
ATOM     27  O   UNL     1      18.948   3.603  28.063  0.00  0.00    -0.226 OA
ATOM     28  N   UNL     1      17.811   3.247  26.134  0.00  0.00    -0.279 N 
ATOM     29  H   UNL     1      17.806   3.403  25.136  0.00  0.00    +0.152 HD
BRANCH  26  30
ATOM     30  O   UNL     1      19.859   4.412  26.115  0.00  0.00    -0.444 OA
BRANCH  30  31
ATOM     31  C   UNL     1      19.263   5.413  25.286  0.00  0.00    +0.292 C 
BRANCH  31  33
ATOM     32  N   UNL     1      20.275   7.669  25.140  0.00  0.00    -0.131 NA
ATOM     33  C   UNL     1      19.527   6.757  25.834  0.00  0.00    +0.120 A 
ATOM     34  C   UNL     1      19.122   7.322  27.024  0.00  0.00    +0.138 A 
ATOM     35  N   UNL     1      19.668   8.572  27.002  0.00  0.00    -0.237 N 
ATOM     36  N   UNL     1      20.354   8.778  25.862  0.00  0.00    -0.065 NA
BRANCH  35  37
ATOM     37  C   UNL     1      19.570   9.642  27.981  0.00  0.00    +0.219 C 
BRANCH  37  38
ATOM     38  C   UNL     1      18.263  10.399  27.807  0.00  0.00    +0.237 C 
ATOM     39  O   UNL     1      17.563  10.795  28.736  0.00  0.00    -0.274 OA
ATOM     40  N   UNL     1      17.907  10.695  26.518  0.00  0.00    -0.328 N 
ATOM     41  H   UNL     1      18.481  10.480  25.713  0.00  0.00    +0.145 HD
ATOM     42  H   UNL     1      17.045  11.207  26.373  0.00  0.00    +0.145 HD
ENDBRANCH  37  38
BRANCH  37  43
ATOM     43  C   UNL     1      20.767  10.584  27.873  0.00  0.00    +0.195 C 
BRANCH  43  44
ATOM     44  O   UNL     1      20.335  11.840  27.331  0.00  0.00    -0.380 OA
ATOM     45  C   UNL     1      21.039  12.933  27.908  0.00  0.00    +0.194 C 
ENDBRANCH  43  44
ENDBRANCH  37  43
ENDBRANCH  35  37
ENDBRANCH  31  33
ENDBRANCH  30  31
ENDBRANCH  26  30
ENDBRANCH  25  28
ENDBRANCH   1  25
TORSDOF 17
