REMARK VINA RESULT:    -6.039     13.759     15.238
REMARK INTER + INTRA:         -16.883
REMARK INTER:                 -14.390
REMARK INTRA:                  -2.494
REMARK UNBOUND:                -2.725
REMARK  Name = lig_assembled_30.pdb
REMARK  27 active torsions:
REMARK  status: ('A' for Active; 'I' for Inactive)
REMARK    1  A    between atoms: _2  and  _9
REMARK    2  A    between atoms: _4  and  _25
REMARK    3  A    between atoms: _5  and  _18
REMARK    4  A    between atoms: _5  and  _19
REMARK    5  A    between atoms: _6  and  _7
REMARK    6  A    between atoms: _6  and  _25
REMARK    7  A    between atoms: _9  and  _10
REMARK    8  A    between atoms: _10  and  _11
REMARK    9  A    between atoms: _11  and  _12
REMARK   10  A    between atoms: _12  and  _13
REMARK   11  A    between atoms: _13  and  _14
REMARK   12  A    between atoms: _14  and  _15
REMARK   13  A    between atoms: _15  and  _16
REMARK   14  A    between atoms: _16  and  _17
REMARK   15  A    between atoms: _17  and  _18
REMARK   16  A    between atoms: _21  and  _41
REMARK   17  A    between atoms: _23  and  _29
REMARK   18  A    between atoms: _24  and  _28
REMARK   19  A    between atoms: _28  and  _29
REMARK   20  A    between atoms: _31  and  _32
REMARK   21  A    between atoms: _33  and  _34
REMARK   22  A    between atoms: _35  and  _37
REMARK   23  A    between atoms: _37  and  _38
REMARK   24  A    between atoms: _37  and  _39
REMARK   25  A    between atoms: _39  and  _40
REMARK   26  A    between atoms: _39  and  _41
REMARK   27  A    between atoms: _42  and  _44
REMARK                            x       y       z     vdW  Elec       q    Type
REMARK                         _______ _______ _______ _____ _____    ______ ____
ROOT
ATOM      1  C   UNL     1       4.994   1.568  31.893  0.00  0.00    +0.401 C 
ATOM      2  O   UNL     1       5.615   0.523  31.686  0.00  0.00    -0.226 OA
ATOM      3  N   UNL     1       5.570   2.725  32.221  0.00  0.00    -0.279 N 
ATOM      4  H   UNL     1       4.977   3.531  32.361  0.00  0.00    +0.152 HD
ENDROOT
BRANCH   1   5
ATOM      5  O   UNL     1       3.569   1.564  31.776  0.00  0.00    -0.444 OA
BRANCH   5   6
ATOM      6  C   UNL     1       3.078   2.905  31.865  0.00  0.00    +0.292 C 
BRANCH   6   8
ATOM      7  N   UNL     1       1.130   4.068  30.878  0.00  0.00    -0.131 NA
ATOM      8  C   UNL     1       2.178   3.197  30.736  0.00  0.00    +0.120 A 
ATOM      9  C   UNL     1       2.190   2.713  29.446  0.00  0.00    +0.137 A 
ATOM     10  N   UNL     1       1.126   3.326  28.859  0.00  0.00    -0.251 N 
ATOM     11  N   UNL     1       0.489   4.138  29.718  0.00  0.00    -0.065 NA
BRANCH  10  12
ATOM     12  C   UNL     1       0.637   3.156  27.508  0.00  0.00    +0.145 C 
BRANCH  12  13
ATOM     13  C   UNL     1       1.786   3.093  26.508  0.00  0.00    +0.023 C 
BRANCH  13  14
ATOM     14  C   UNL     1       1.304   3.273  25.071  0.00  0.00    +0.002 C 
BRANCH  14  15
ATOM     15  C   UNL     1       1.917   4.534  24.463  0.00  0.00    +0.000 C 
BRANCH  15  16
ATOM     16  C   UNL     1       1.079   5.071  23.305  0.00  0.00    +0.000 C 
BRANCH  16  17
ATOM     17  C   UNL     1       1.842   4.954  21.985  0.00  0.00    +0.000 C 
BRANCH  17  18
ATOM     18  C   UNL     1       1.179   3.936  21.061  0.00  0.00    +0.000 C 
BRANCH  18  19
ATOM     19  C   UNL     1       1.909   3.830  19.722  0.00  0.00    +0.001 C 
BRANCH  19  20
ATOM     20  C   UNL     1       1.413   2.616  18.937  0.00  0.00    +0.011 C 
BRANCH  20  21
ATOM     21  C   UNL     1       0.096   2.901  18.221  0.00  0.00    +0.120 C 
BRANCH  21  22
ATOM     22  C   UNL     1       0.115   4.251  17.543  0.00  0.00    +0.305 C 
ATOM     23  O   UNL     1      -0.491   5.242  17.920  0.00  0.00    -0.251 OA
BRANCH  22  24
ATOM     24  O   UNL     1       0.895   4.262  16.438  0.00  0.00    -0.481 OA
ATOM     25  H   UNL     1       1.808   3.960  16.600  0.00  0.00    +0.295 HD
ENDBRANCH  22  24
ENDBRANCH  21  22
ENDBRANCH  20  21
ENDBRANCH  19  20
ENDBRANCH  18  19
ENDBRANCH  17  18
ENDBRANCH  16  17
ENDBRANCH  15  16
ENDBRANCH  14  15
ENDBRANCH  13  14
ENDBRANCH  12  13
ENDBRANCH  10  12
ENDBRANCH   6   8
ENDBRANCH   5   6
ENDBRANCH   1   5
BRANCH   3  26
ATOM     26  C   UNL     1       7.019   2.895  32.390  0.00  0.00    +0.141 C 
BRANCH  26  27
ATOM     27  C   UNL     1       7.349   3.917  33.473  0.00  0.00    +0.163 C 
BRANCH  27  28
ATOM     28  O   UNL     1       7.777   5.150  32.871  0.00  0.00    -0.388 OA
ATOM     29  H   UNL     1       7.049   5.777  32.874  0.00  0.00    +0.210 HD
ENDBRANCH  27  28
BRANCH  27  30
ATOM     30  C   UNL     1       6.116   4.138  34.365  0.00  0.00    +0.175 C 
BRANCH  30  31
ATOM     31  C   UNL     1       6.329   5.275  35.375  0.00  0.00    +0.176 C 
ATOM     32  O   UNL     1       7.714   5.227  35.816  0.00  0.00    -0.332 OA
ATOM     33  C   UNL     1       8.133   6.310  36.711  0.00  0.00    +0.277 C 
ATOM     34  C   UNL     1       7.195   6.389  37.940  0.00  0.00    +0.110 C 
ATOM     35  C   UNL     1       5.709   6.410  37.522  0.00  0.00    +0.143 C 
ATOM     36  C   UNL     1       5.384   5.242  36.591  0.00  0.00    +0.133 C 
BRANCH  36  37
ATOM     37  N   UNL     1       3.989   5.323  36.131  0.00  0.00    -0.308 N 
ATOM     38  H   UNL     1       3.745   6.067  35.493  0.00  0.00    +0.149 HD
ATOM     39  C   UNL     1       3.024   4.476  36.501  0.00  0.00    +0.210 C 
ATOM     40  C   UNL     1       3.423   3.368  37.494  0.00  0.00    +0.109 C 
ATOM     41  O   UNL     1       1.867   4.559  36.088  0.00  0.00    -0.276 OA
ENDBRANCH  36  37
BRANCH  33  42
ATOM     42  C   UNL     1       8.128   7.664  35.970  0.00  0.00    +0.414 C 
ATOM     43  O   UNL     1       8.192   8.717  36.603  0.00  0.00    -0.240 OA
ATOM     44  O   UNL     1       8.060   7.703  34.741  0.00  0.00    -0.240 OA
ENDBRANCH  33  42
BRANCH  35  45
ATOM     45  O   UNL     1       4.881   6.331  38.683  0.00  0.00    -0.390 OA
ATOM     46  H   UNL     1       4.811   5.415  38.965  0.00  0.00    +0.210 HD
ENDBRANCH  35  45
BRANCH  33  47
ATOM     47  O   UNL     1       9.474   6.014  37.177  0.00  0.00    -0.343 OA
ATOM     48  C   UNL     1       9.845   4.613  37.124  0.00  0.00    +0.198 C 
ENDBRANCH  33  47
ENDBRANCH  30  31
BRANCH  30  49
ATOM     49  O   UNL     1       5.775   2.919  35.053  0.00  0.00    -0.387 OA
ATOM     50  H   UNL     1       6.492   2.672  35.642  0.00  0.00    +0.210 HD
ENDBRANCH  30  49
ENDBRANCH  27  30
ENDBRANCH  26  27
ENDBRANCH   3  26
TORSDOF 25
