REMARK VINA RESULT:    -6.003      2.033      3.938
REMARK INTER + INTRA:         -14.011
REMARK INTER:                 -11.658
REMARK INTRA:                  -2.353
REMARK UNBOUND:                -2.569
REMARK  Name = lig_assembled_18.pdb
REMARK  19 active torsions:
REMARK  status: ('A' for Active; 'I' for Inactive)
REMARK    1  A    between atoms: _2  and  _10
REMARK    2  A    between atoms: _3  and  _12
REMARK    3  A    between atoms: _5  and  _21
REMARK    4  A    between atoms: _7  and  _8
REMARK    5  A    between atoms: _7  and  _21
REMARK    6  A    between atoms: _10  and  _11
REMARK    7  A    between atoms: _12  and  _13
REMARK    8  A    between atoms: _17  and  _37
REMARK    9  A    between atoms: _19  and  _25
REMARK   10  A    between atoms: _20  and  _24
REMARK   11  A    between atoms: _24  and  _25
REMARK   12  A    between atoms: _27  and  _28
REMARK   13  A    between atoms: _29  and  _30
REMARK   14  A    between atoms: _31  and  _33
REMARK   15  A    between atoms: _33  and  _34
REMARK   16  A    between atoms: _33  and  _35
REMARK   17  A    between atoms: _35  and  _36
REMARK   18  A    between atoms: _35  and  _37
REMARK   19  A    between atoms: _38  and  _40
REMARK                            x       y       z     vdW  Elec       q    Type
REMARK                         _______ _______ _______ _____ _____    ______ ____
ROOT
ATOM      1  C   UNL     1       6.543   2.708  32.989  0.00  0.00    +0.163 C 
ENDROOT
BRANCH   1   2
ATOM      2  O   UNL     1       6.023   3.127  31.717  0.00  0.00    -0.388 OA
ATOM      3  H   UNL     1       6.750   3.307  31.116  0.00  0.00    +0.210 HD
ENDBRANCH   1   2
BRANCH   1   4
ATOM      4  C   UNL     1       7.690   3.628  33.444  0.00  0.00    +0.175 C 
BRANCH   4   5
ATOM      5  C   UNL     1       7.453   4.193  34.852  0.00  0.00    +0.176 C 
ATOM      6  O   UNL     1       7.376   5.641  34.745  0.00  0.00    -0.332 OA
ATOM      7  C   UNL     1       7.046   6.352  35.984  0.00  0.00    +0.277 C 
ATOM      8  C   UNL     1       8.035   5.962  37.111  0.00  0.00    +0.110 C 
ATOM      9  C   UNL     1       8.174   4.431  37.241  0.00  0.00    +0.143 C 
ATOM     10  C   UNL     1       8.515   3.794  35.894  0.00  0.00    +0.133 C 
BRANCH  10  11
ATOM     11  N   UNL     1       8.560   2.328  36.013  0.00  0.00    -0.308 N 
ATOM     12  H   UNL     1       7.733   1.857  36.353  0.00  0.00    +0.149 HD
ATOM     13  C   UNL     1       9.621   1.579  35.701  0.00  0.00    +0.210 C 
ATOM     14  C   UNL     1      10.874   2.329  35.211  0.00  0.00    +0.109 C 
ATOM     15  O   UNL     1       9.625   0.352  35.798  0.00  0.00    -0.276 OA
ENDBRANCH  10  11
BRANCH   7  16
ATOM     16  C   UNL     1       5.604   6.033  36.431  0.00  0.00    +0.414 C 
ATOM     17  O   UNL     1       4.711   5.901  35.595  0.00  0.00    -0.240 OA
ATOM     18  O   UNL     1       5.334   5.907  37.626  0.00  0.00    -0.240 OA
ENDBRANCH   7  16
BRANCH   7  19
ATOM     19  O   UNL     1       7.177   7.775  35.734  0.00  0.00    -0.343 OA
ATOM     20  C   UNL     1       7.543   8.127  34.376  0.00  0.00    +0.198 C 
ENDBRANCH   7  19
BRANCH   9  21
ATOM     21  O   UNL     1       9.203   4.119  38.182  0.00  0.00    -0.390 OA
ATOM     22  H   UNL     1       8.814   3.988  39.050  0.00  0.00    +0.210 HD
ENDBRANCH   9  21
ENDBRANCH   4   5
BRANCH   4  23
ATOM     23  O   UNL     1       7.868   4.703  32.500  0.00  0.00    -0.387 OA
ATOM     24  H   UNL     1       8.630   5.229  32.755  0.00  0.00    +0.210 HD
ENDBRANCH   4  23
ENDBRANCH   1   4
BRANCH   1  25
ATOM     25  C   UNL     1       5.435   2.720  34.036  0.00  0.00    +0.141 C 
BRANCH  25  28
ATOM     26  C   UNL     1       3.020   2.881  33.536  0.00  0.00    +0.401 C 
ATOM     27  O   UNL     1       2.772   1.730  33.902  0.00  0.00    -0.226 OA
ATOM     28  N   UNL     1       4.238   3.424  33.559  0.00  0.00    -0.279 N 
ATOM     29  H   UNL     1       4.344   4.373  33.229  0.00  0.00    +0.152 HD
BRANCH  26  30
ATOM     30  O   UNL     1       1.954   3.701  33.050  0.00  0.00    -0.444 OA
BRANCH  30  31
ATOM     31  C   UNL     1       2.192   4.030  31.679  0.00  0.00    +0.292 C 
BRANCH  31  33
ATOM     32  N   UNL     1       0.785   2.852  30.011  0.00  0.00    -0.131 NA
ATOM     33  C   UNL     1       0.951   3.887  30.894  0.00  0.00    +0.120 A 
ATOM     34  C   UNL     1      -0.179   4.672  30.881  0.00  0.00    +0.137 A 
ATOM     35  N   UNL     1      -1.007   4.050  29.994  0.00  0.00    -0.242 N 
ATOM     36  N   UNL     1      -0.414   2.967  29.456  0.00  0.00    -0.065 NA
BRANCH  35  37
ATOM     37  C   UNL     1      -2.301   4.474  29.518  0.00  0.00    +0.240 C 
BRANCH  37  38
ATOM     38  C   UNL     1      -2.448   4.300  28.024  0.00  0.00    +0.235 C 
ATOM     39  O   UNL     1      -3.425   3.747  27.523  0.00  0.00    -0.274 OA
ATOM     40  N   UNL     1      -1.437   4.856  27.266  0.00  0.00    -0.309 N 
ATOM     41  H   UNL     1      -0.577   5.151  27.705  0.00  0.00    +0.149 HD
BRANCH  40  42
ATOM     42  C   UNL     1      -1.449   4.782  25.819  0.00  0.00    +0.146 C 
BRANCH  42  43
ATOM     43  C   UNL     1      -0.057   4.571  25.316  0.00  0.00    +0.007 A 
ATOM     44  S   UNL     1       1.042   3.576  26.174  0.00  0.00    -0.100 S 
ATOM     45  C   UNL     1       2.302   3.899  25.064  0.00  0.00    +0.045 A 
ATOM     46  C   UNL     1       1.896   4.735  24.047  0.00  0.00    +0.008 A 
ATOM     47  C   UNL     1       0.530   5.116  24.189  0.00  0.00    +0.013 A 
ENDBRANCH  42  43
ENDBRANCH  40  42
ENDBRANCH  37  38
ENDBRANCH  35  37
ENDBRANCH  31  33
ENDBRANCH  30  31
ENDBRANCH  26  30
ENDBRANCH  25  28
ENDBRANCH   1  25
TORSDOF 17
