REMARK VINA RESULT:    -7.291      1.968      3.669
REMARK INTER + INTRA:         -17.159
REMARK INTER:                 -14.269
REMARK INTRA:                  -2.890
REMARK UNBOUND:                -3.474
REMARK  Name = lig_assembled_34.pdb
REMARK  19 active torsions:
REMARK  status: ('A' for Active; 'I' for Inactive)
REMARK    1  A    between atoms: _2  and  _9
REMARK    2  A    between atoms: _4  and  _37
REMARK    3  A    between atoms: _6  and  _7
REMARK    4  A    between atoms: _6  and  _37
REMARK    5  A    between atoms: _11  and  _12
REMARK    6  A    between atoms: _13  and  _14
REMARK    7  A    between atoms: _18  and  _31
REMARK    8  A    between atoms: _33  and  _53
REMARK    9  A    between atoms: _35  and  _41
REMARK   10  A    between atoms: _36  and  _40
REMARK   11  A    between atoms: _40  and  _41
REMARK   12  A    between atoms: _43  and  _44
REMARK   13  A    between atoms: _45  and  _46
REMARK   14  A    between atoms: _47  and  _49
REMARK   15  A    between atoms: _49  and  _50
REMARK   16  A    between atoms: _49  and  _51
REMARK   17  A    between atoms: _51  and  _52
REMARK   18  A    between atoms: _51  and  _53
REMARK   19  A    between atoms: _54  and  _56
REMARK                            x       y       z     vdW  Elec       q    Type
REMARK                         _______ _______ _______ _____ _____    ______ ____
ROOT
ATOM      1  N   UNL     1       2.955  25.449  16.334  0.00  0.00    -0.131 NA
ATOM      2  C   UNL     1       3.976  24.543  16.379  0.00  0.00    +0.121 A 
ATOM      3  C   UNL     1       3.608  23.498  17.191  0.00  0.00    +0.143 A 
ATOM      4  N   UNL     1       2.327  23.788  17.608  0.00  0.00    -0.220 N 
ATOM      5  N   UNL     1       1.961  24.993  17.094  0.00  0.00    -0.060 NA
ENDROOT
BRANCH   4   6
ATOM      6  C   UNL     1       1.463  22.986  18.399  0.00  0.00    +0.068 A 
ATOM      7  C   UNL     1       0.229  22.578  17.880  0.00  0.00    +0.038 A 
ATOM      8  C   UNL     1      -0.735  21.887  18.654  0.00  0.00    +0.007 A 
ATOM      9  C   UNL     1      -0.406  21.532  19.978  0.00  0.00    -0.008 A 
ATOM     10  C   UNL     1       0.864  21.905  20.480  0.00  0.00    +0.011 A 
ATOM     11  C   UNL     1       1.785  22.637  19.711  0.00  0.00    +0.028 A 
BRANCH   9  12
ATOM     12  C   UNL     1      -1.338  20.850  20.934  0.00  0.00    +0.004 A 
ATOM     13  C   UNL     1      -2.325  21.520  21.595  0.00  0.00    +0.026 A 
ATOM     14  C   UNL     1      -2.519  22.970  21.472  0.00  0.00    +0.016 A 
ATOM     15  C   UNL     1      -3.369  23.635  22.269  0.00  0.00    +0.051 A 
ATOM     16  C   UNL     1      -4.173  22.913  23.285  0.00  0.00    +0.183 A 
ATOM     17  O   UNL     1      -4.906  23.516  24.064  0.00  0.00    -0.288 OA
ATOM     18  C   UNL     1      -4.116  21.438  23.275  0.00  0.00    +0.097 A 
ATOM     19  C   UNL     1      -3.275  20.792  22.457  0.00  0.00    +0.140 A 
ATOM     20  O   UNL     1      -3.359  19.410  22.385  0.00  0.00    -0.455 OA
ATOM     21  C   UNL     1      -2.352  18.725  21.758  0.00  0.00    +0.140 A 
ATOM     22  C   UNL     1      -2.437  17.332  21.793  0.00  0.00    +0.092 A 
ATOM     23  C   UNL     1      -1.422  16.575  21.228  0.00  0.00    +0.120 A 
ATOM     24  C   UNL     1      -0.291  17.192  20.703  0.00  0.00    +0.046 A 
ATOM     25  C   UNL     1      -0.227  18.588  20.663  0.00  0.00    +0.016 A 
ATOM     26  C   UNL     1      -1.289  19.374  21.135  0.00  0.00    +0.026 A 
BRANCH  23  27
ATOM     27  O   UNL     1      -1.569  15.220  21.195  0.00  0.00    -0.507 OA
ATOM     28  H   UNL     1      -0.849  14.860  20.652  0.00  0.00    +0.292 HD
ENDBRANCH  23  27
ENDBRANCH   9  12
BRANCH   8  29
ATOM     29  C   UNL     1      -2.085  21.657  18.004  0.00  0.00    +0.072 C 
ATOM     30  O   UNL     1      -2.881  22.650  17.999  0.00  0.00    -0.545 OA
ATOM     31  O   UNL     1      -2.358  20.494  17.584  0.00  0.00    -0.545 OA
ENDBRANCH   8  29
ENDBRANCH   4   6
BRANCH   2  32
ATOM     32  C   UNL     1       5.239  24.736  15.639  0.00  0.00    +0.292 C 
BRANCH  32  33
ATOM     33  O   UNL     1       5.894  23.484  15.420  0.00  0.00    -0.444 OA
BRANCH  33  34
ATOM     34  C   UNL     1       5.608  23.020  14.098  0.00  0.00    +0.401 C 
ATOM     35  O   UNL     1       5.769  23.787  13.146  0.00  0.00    -0.226 OA
ATOM     36  N   UNL     1       5.181  21.762  13.979  0.00  0.00    -0.279 N 
ATOM     37  H   UNL     1       5.089  21.207  14.818  0.00  0.00    +0.152 HD
BRANCH  36  38
ATOM     38  C   UNL     1       4.835  21.138  12.695  0.00  0.00    +0.141 C 
BRANCH  38  39
ATOM     39  C   UNL     1       4.652  19.630  12.828  0.00  0.00    +0.163 C 
BRANCH  39  40
ATOM     40  O   UNL     1       5.680  19.081  13.668  0.00  0.00    -0.388 OA
ATOM     41  H   UNL     1       6.159  19.795  14.096  0.00  0.00    +0.210 HD
ENDBRANCH  39  40
BRANCH  39  42
ATOM     42  C   UNL     1       3.256  19.330  13.400  0.00  0.00    +0.175 C 
BRANCH  42  43
ATOM     43  C   UNL     1       2.349  18.631  12.377  0.00  0.00    +0.176 C 
ATOM     44  O   UNL     1       2.951  17.350  12.047  0.00  0.00    -0.332 OA
ATOM     45  C   UNL     1       2.166  16.490  11.156  0.00  0.00    +0.277 C 
ATOM     46  C   UNL     1       1.802  17.248   9.856  0.00  0.00    +0.110 C 
ATOM     47  C   UNL     1       1.186  18.631  10.155  0.00  0.00    +0.143 C 
ATOM     48  C   UNL     1       2.084  19.439  11.093  0.00  0.00    +0.133 C 
BRANCH  48  49
ATOM     49  N   UNL     1       1.446  20.719  11.440  0.00  0.00    -0.308 N 
ATOM     50  H   UNL     1       0.698  20.704  12.119  0.00  0.00    +0.149 HD
ATOM     51  C   UNL     1       1.792  21.899  10.917  0.00  0.00    +0.210 C 
ATOM     52  C   UNL     1       2.918  21.884   9.867  0.00  0.00    +0.109 C 
ATOM     53  O   UNL     1       1.250  22.957  11.238  0.00  0.00    -0.276 OA
ENDBRANCH  48  49
BRANCH  45  54
ATOM     54  C   UNL     1       0.875  16.014  11.854  0.00  0.00    +0.414 C 
ATOM     55  O   UNL     1       0.913  15.597  13.011  0.00  0.00    -0.240 OA
ATOM     56  O   UNL     1      -0.204  16.047  11.261  0.00  0.00    -0.240 OA
ENDBRANCH  45  54
BRANCH  47  57
ATOM     57  O   UNL     1       1.007  19.353   8.936  0.00  0.00    -0.390 OA
ATOM     58  H   UNL     1       1.016  18.741   8.197  0.00  0.00    +0.210 HD
ENDBRANCH  47  57
BRANCH  45  59
ATOM     59  O   UNL     1       2.982  15.344  10.804  0.00  0.00    -0.343 OA
ATOM     60  C   UNL     1       2.566  14.640   9.607  0.00  0.00    +0.198 C 
ENDBRANCH  45  59
ENDBRANCH  42  43
BRANCH  42  61
ATOM     61  O   UNL     1       2.637  20.547  13.863  0.00  0.00    -0.387 OA
ATOM     62  H   UNL     1       3.301  21.236  13.937  0.00  0.00    +0.210 HD
ENDBRANCH  42  61
ENDBRANCH  39  42
ENDBRANCH  38  39
ENDBRANCH  36  38
ENDBRANCH  33  34
ENDBRANCH  32  33
ENDBRANCH   2  32
TORSDOF 17
