REMARK VINA RESULT:    -6.269      1.584      3.782
REMARK INTER + INTRA:         -13.786
REMARK INTER:                 -11.837
REMARK INTRA:                  -1.949
REMARK UNBOUND:                -2.936
REMARK  Name = lig_assembled_93.pdb
REMARK  16 active torsions:
REMARK  status: ('A' for Active; 'I' for Inactive)
REMARK    1  A    between atoms: _2  and  _9
REMARK    2  A    between atoms: _4  and  _18
REMARK    3  A    between atoms: _6  and  _7
REMARK    4  A    between atoms: _6  and  _18
REMARK    5  A    between atoms: _14  and  _34
REMARK    6  A    between atoms: _16  and  _22
REMARK    7  A    between atoms: _17  and  _21
REMARK    8  A    between atoms: _21  and  _22
REMARK    9  A    between atoms: _24  and  _25
REMARK   10  A    between atoms: _26  and  _27
REMARK   11  A    between atoms: _28  and  _30
REMARK   12  A    between atoms: _30  and  _31
REMARK   13  A    between atoms: _30  and  _32
REMARK   14  A    between atoms: _32  and  _33
REMARK   15  A    between atoms: _32  and  _34
REMARK   16  A    between atoms: _35  and  _37
REMARK                            x       y       z     vdW  Elec       q    Type
REMARK                         _______ _______ _______ _____ _____    ______ ____
ROOT
ATOM      1  C   UNL     1       2.568   2.701  33.438  0.00  0.00    +0.163 C 
ENDROOT
BRANCH   1   2
ATOM      2  O   UNL     1       3.002   1.951  32.292  0.00  0.00    -0.388 OA
ATOM      3  H   UNL     1       3.426   1.139  32.582  0.00  0.00    +0.210 HD
ENDBRANCH   1   2
BRANCH   1   4
ATOM      4  C   UNL     1       1.199   3.318  33.169  0.00  0.00    +0.141 C 
BRANCH   4   7
ATOM      5  C   UNL     1      -0.064   4.262  31.267  0.00  0.00    +0.401 C 
ATOM      6  O   UNL     1      -1.020   4.621  31.958  0.00  0.00    -0.226 OA
ATOM      7  N   UNL     1       1.013   3.640  31.749  0.00  0.00    -0.279 N 
ATOM      8  H   UNL     1       1.742   3.376  31.101  0.00  0.00    +0.152 HD
BRANCH   5   9
ATOM      9  O   UNL     1      -0.091   4.513  29.859  0.00  0.00    -0.444 OA
BRANCH   9  10
ATOM     10  C   UNL     1       0.070   3.280  29.151  0.00  0.00    +0.292 C 
BRANCH  10  12
ATOM     11  N   UNL     1       2.180   3.666  27.930  0.00  0.00    -0.131 NA
ATOM     12  C   UNL     1       0.831   3.501  27.907  0.00  0.00    +0.121 A 
ATOM     13  C   UNL     1       0.398   3.569  26.604  0.00  0.00    +0.143 A 
ATOM     14  N   UNL     1       1.537   3.766  25.842  0.00  0.00    -0.219 N 
ATOM     15  N   UNL     1       2.593   3.831  26.683  0.00  0.00    -0.060 NA
BRANCH  14  16
ATOM     16  C   UNL     1       1.642   3.872  24.419  0.00  0.00    +0.080 A 
ATOM     17  C   UNL     1       1.654   5.172  23.858  0.00  0.00    +0.029 A 
ATOM     18  C   UNL     1       1.735   5.377  22.479  0.00  0.00    +0.002 A 
ATOM     19  C   UNL     1       1.807   4.293  21.620  0.00  0.00    +0.001 A 
ATOM     20  C   UNL     1       1.804   3.003  22.144  0.00  0.00    +0.016 A 
ATOM     21  C   UNL     1       1.725   2.776  23.535  0.00  0.00    +0.039 A 
ATOM     22  I   UNL     1       1.746   0.715  24.017  0.00  0.00    -0.042 I 
ENDBRANCH  14  16
ENDBRANCH  10  12
ENDBRANCH   9  10
ENDBRANCH   5   9
ENDBRANCH   4   7
ENDBRANCH   1   4
BRANCH   1  23
ATOM     23  C   UNL     1       3.574   3.812  33.782  0.00  0.00    +0.175 C 
BRANCH  23  24
ATOM     24  C   UNL     1       5.023   3.303  33.774  0.00  0.00    +0.176 C 
ATOM     25  O   UNL     1       5.019   1.937  34.274  0.00  0.00    -0.332 OA
ATOM     26  C   UNL     1       6.312   1.246  34.240  0.00  0.00    +0.277 C 
ATOM     27  C   UNL     1       7.388   2.074  34.984  0.00  0.00    +0.110 C 
ATOM     28  C   UNL     1       7.408   3.541  34.508  0.00  0.00    +0.143 C 
ATOM     29  C   UNL     1       6.012   4.162  34.583  0.00  0.00    +0.133 C 
BRANCH  29  30
ATOM     30  N   UNL     1       6.028   5.531  34.045  0.00  0.00    -0.308 N 
ATOM     31  H   UNL     1       6.108   5.644  33.045  0.00  0.00    +0.149 HD
ATOM     32  C   UNL     1       5.942   6.634  34.794  0.00  0.00    +0.210 C 
ATOM     33  C   UNL     1       5.847   6.429  36.317  0.00  0.00    +0.109 C 
ATOM     34  O   UNL     1       5.943   7.769  34.315  0.00  0.00    -0.276 OA
ENDBRANCH  29  30
BRANCH  26  35
ATOM     35  C   UNL     1       6.763   1.003  32.785  0.00  0.00    +0.414 C 
ATOM     36  O   UNL     1       7.958   0.882  32.518  0.00  0.00    -0.240 OA
ATOM     37  O   UNL     1       5.933   0.928  31.878  0.00  0.00    -0.240 OA
ENDBRANCH  26  35
BRANCH  28  38
ATOM     38  O   UNL     1       8.304   4.300  35.322  0.00  0.00    -0.390 OA
ATOM     39  H   UNL     1       9.206   4.151  35.029  0.00  0.00    +0.210 HD
ENDBRANCH  28  38
BRANCH  26  40
ATOM     40  O   UNL     1       6.159  -0.025  34.922  0.00  0.00    -0.343 OA
ATOM     41  C   UNL     1       7.275  -0.404  35.767  0.00  0.00    +0.198 C 
ENDBRANCH  26  40
ENDBRANCH  23  24
BRANCH  23  42
ATOM     42  O   UNL     1       3.258   4.390  35.064  0.00  0.00    -0.387 OA
ATOM     43  H   UNL     1       2.674   5.142  34.941  0.00  0.00    +0.210 HD
ENDBRANCH  23  42
ENDBRANCH   1  23
TORSDOF 14
