REMARK VINA RESULT:    -6.820      7.882     13.304
REMARK INTER + INTRA:         -13.760
REMARK INTER:                 -12.598
REMARK INTRA:                  -1.162
REMARK UNBOUND:                -1.557
REMARK  Name = lig_assembled_28.pdb
REMARK  17 active torsions:
REMARK  status: ('A' for Active; 'I' for Inactive)
REMARK    1  A    between atoms: _2  and  _9
REMARK    2  A    between atoms: _4  and  _22
REMARK    3  A    between atoms: _6  and  _7
REMARK    4  A    between atoms: _6  and  _22
REMARK    5  A    between atoms: _9  and  _10
REMARK    6  A    between atoms: _18  and  _38
REMARK    7  A    between atoms: _20  and  _26
REMARK    8  A    between atoms: _21  and  _25
REMARK    9  A    between atoms: _25  and  _26
REMARK   10  A    between atoms: _28  and  _29
REMARK   11  A    between atoms: _30  and  _31
REMARK   12  A    between atoms: _32  and  _34
REMARK   13  A    between atoms: _34  and  _35
REMARK   14  A    between atoms: _34  and  _36
REMARK   15  A    between atoms: _36  and  _37
REMARK   16  A    between atoms: _36  and  _38
REMARK   17  A    between atoms: _39  and  _41
REMARK                            x       y       z     vdW  Elec       q    Type
REMARK                         _______ _______ _______ _____ _____    ______ ____
ROOT
ATOM      1  C   UNL     1       7.361   2.419  34.603  0.00  0.00    +0.163 C 
ENDROOT
BRANCH   1   2
ATOM      2  O   UNL     1       7.262   2.549  36.031  0.00  0.00    -0.388 OA
ATOM      3  H   UNL     1       7.093   3.467  36.258  0.00  0.00    +0.210 HD
ENDBRANCH   1   2
BRANCH   1   4
ATOM      4  C   UNL     1       8.350   1.315  34.247  0.00  0.00    +0.141 C 
BRANCH   4   7
ATOM      5  C   UNL     1      10.664   1.826  34.949  0.00  0.00    +0.401 C 
ATOM      6  O   UNL     1      10.517   1.379  36.088  0.00  0.00    -0.226 OA
ATOM      7  N   UNL     1       9.702   1.842  34.025  0.00  0.00    -0.279 N 
ATOM      8  H   UNL     1       9.916   2.239  33.121  0.00  0.00    +0.152 HD
BRANCH   5   9
ATOM      9  O   UNL     1      11.932   2.370  34.574  0.00  0.00    -0.444 OA
BRANCH   9  10
ATOM     10  C   UNL     1      12.679   2.695  35.749  0.00  0.00    +0.292 C 
BRANCH  10  12
ATOM     11  N   UNL     1      14.020   4.059  34.172  0.00  0.00    -0.131 NA
ATOM     12  C   UNL     1      13.657   3.760  35.458  0.00  0.00    +0.120 A 
ATOM     13  C   UNL     1      14.312   4.610  36.319  0.00  0.00    +0.137 A 
ATOM     14  N   UNL     1      14.984   5.468  35.495  0.00  0.00    -0.247 N 
ATOM     15  N   UNL     1      14.843   5.099  34.207  0.00  0.00    -0.065 NA
BRANCH  14  16
ATOM     16  C   UNL     1      15.702   6.699  35.797  0.00  0.00    +0.180 C 
BRANCH  16  17
ATOM     17  C   UNL     1      16.236   7.406  34.573  0.00  0.00    -0.022 A 
ATOM     18  C   UNL     1      17.244   6.807  33.795  0.00  0.00    +0.055 A 
ATOM     19  C   UNL     1      17.617   7.436  32.626  0.00  0.00    +0.167 A 
ATOM     20  O   UNL     1      18.531   6.968  31.733  0.00  0.00    -0.453 OA
ATOM     21  C   UNL     1      18.407   7.951  30.684  0.00  0.00    +0.466 C 
ATOM     22  O   UNL     1      17.544   9.055  31.033  0.00  0.00    -0.453 OA
ATOM     23  C   UNL     1      17.058   8.624  32.229  0.00  0.00    +0.166 A 
ATOM     24  C   UNL     1      16.093   9.259  32.982  0.00  0.00    +0.050 A 
ATOM     25  C   UNL     1      15.675   8.637  34.162  0.00  0.00    +0.009 A 
ENDBRANCH  16  17
ENDBRANCH  14  16
ENDBRANCH  10  12
ENDBRANCH   9  10
ENDBRANCH   5   9
ENDBRANCH   4   7
ENDBRANCH   1   4
BRANCH   1  26
ATOM     26  C   UNL     1       7.813   3.741  33.960  0.00  0.00    +0.175 C 
BRANCH  26  27
ATOM     27  C   UNL     1       7.171   4.962  34.636  0.00  0.00    +0.176 C 
ATOM     28  O   UNL     1       7.823   5.155  35.922  0.00  0.00    -0.332 OA
ATOM     29  C   UNL     1       7.410   6.347  36.669  0.00  0.00    +0.277 C 
ATOM     30  C   UNL     1       5.873   6.364  36.854  0.00  0.00    +0.110 C 
ATOM     31  C   UNL     1       5.136   6.130  35.519  0.00  0.00    +0.143 C 
ATOM     32  C   UNL     1       5.646   4.867  34.824  0.00  0.00    +0.133 C 
BRANCH  32  33
ATOM     33  N   UNL     1       4.998   4.702  33.513  0.00  0.00    -0.308 N 
ATOM     34  H   UNL     1       5.240   5.357  32.783  0.00  0.00    +0.149 HD
ATOM     35  C   UNL     1       4.113   3.745  33.226  0.00  0.00    +0.210 C 
ATOM     36  C   UNL     1       3.747   2.778  34.368  0.00  0.00    +0.109 C 
ATOM     37  O   UNL     1       3.598   3.622  32.114  0.00  0.00    -0.276 OA
ENDBRANCH  32  33
BRANCH  29  38
ATOM     38  C   UNL     1       7.856   7.631  35.940  0.00  0.00    +0.414 C 
ATOM     39  O   UNL     1       8.356   8.561  36.572  0.00  0.00    -0.240 OA
ATOM     40  O   UNL     1       7.716   7.738  34.721  0.00  0.00    -0.240 OA
ENDBRANCH  29  38
BRANCH  29  41
ATOM     41  O   UNL     1       8.028   6.290  37.981  0.00  0.00    -0.343 OA
ATOM     42  C   UNL     1       9.138   5.364  38.095  0.00  0.00    +0.198 C 
ENDBRANCH  29  41
BRANCH  31  43
ATOM     43  O   UNL     1       3.734   6.002  35.758  0.00  0.00    -0.390 OA
ATOM     44  H   UNL     1       3.261   6.668  35.254  0.00  0.00    +0.210 HD
ENDBRANCH  31  43
ENDBRANCH  26  27
BRANCH  26  45
ATOM     45  O   UNL     1       7.509   3.737  32.551  0.00  0.00    -0.387 OA
ATOM     46  H   UNL     1       7.104   2.900  32.313  0.00  0.00    +0.210 HD
ENDBRANCH  26  45
ENDBRANCH   1  26
TORSDOF 15
