REMARK VINA RESULT:    -6.452      3.024      5.248
REMARK INTER + INTRA:         -14.256
REMARK INTER:                 -12.409
REMARK INTRA:                  -1.847
REMARK UNBOUND:                -3.089
REMARK  Name = lig_assembled_91.pdb
REMARK  16 active torsions:
REMARK  status: ('A' for Active; 'I' for Inactive)
REMARK    1  A    between atoms: _2  and  _10
REMARK    2  A    between atoms: _5  and  _26
REMARK    3  A    between atoms: _7  and  _8
REMARK    4  A    between atoms: _7  and  _26
REMARK    5  A    between atoms: _22  and  _42
REMARK    6  A    between atoms: _24  and  _30
REMARK    7  A    between atoms: _25  and  _29
REMARK    8  A    between atoms: _29  and  _30
REMARK    9  A    between atoms: _32  and  _33
REMARK   10  A    between atoms: _34  and  _35
REMARK   11  A    between atoms: _36  and  _38
REMARK   12  A    between atoms: _38  and  _39
REMARK   13  A    between atoms: _38  and  _40
REMARK   14  A    between atoms: _40  and  _41
REMARK   15  A    between atoms: _40  and  _42
REMARK   16  A    between atoms: _43  and  _45
REMARK                            x       y       z     vdW  Elec       q    Type
REMARK                         _______ _______ _______ _____ _____    ______ ____
ROOT
ATOM      1  C   UNL     1       6.465  -0.744  33.264  0.00  0.00    +0.401 C 
ATOM      2  O   UNL     1       7.474  -1.399  33.539  0.00  0.00    -0.226 OA
ATOM      3  N   UNL     1       6.456   0.580  33.107  0.00  0.00    -0.279 N 
ATOM      4  H   UNL     1       5.581   1.026  32.872  0.00  0.00    +0.152 HD
ENDROOT
BRANCH   3   5
ATOM      5  C   UNL     1       7.647   1.426  33.255  0.00  0.00    +0.141 C 
BRANCH   5   6
ATOM      6  C   UNL     1       7.452   2.500  34.320  0.00  0.00    +0.163 C 
BRANCH   6   7
ATOM      7  O   UNL     1       8.244   2.191  35.479  0.00  0.00    -0.388 OA
ATOM      8  H   UNL     1       7.951   2.728  36.220  0.00  0.00    +0.210 HD
ENDBRANCH   6   7
BRANCH   6   9
ATOM      9  C   UNL     1       7.836   3.873  33.742  0.00  0.00    +0.175 C 
BRANCH   9  10
ATOM     10  C   UNL     1       7.201   5.029  34.529  0.00  0.00    +0.176 C 
ATOM     11  O   UNL     1       7.928   5.170  35.781  0.00  0.00    -0.332 OA
ATOM     12  C   UNL     1       7.526   6.301  36.623  0.00  0.00    +0.277 C 
ATOM     13  C   UNL     1       6.004   6.253  36.904  0.00  0.00    +0.110 C 
ATOM     14  C   UNL     1       5.191   6.072  35.605  0.00  0.00    +0.143 C 
ATOM     15  C   UNL     1       5.694   4.869  34.805  0.00  0.00    +0.133 C 
BRANCH  15  16
ATOM     16  N   UNL     1       4.970   4.759  33.530  0.00  0.00    -0.308 N 
ATOM     17  H   UNL     1       5.147   5.460  32.824  0.00  0.00    +0.149 HD
ATOM     18  C   UNL     1       4.093   3.793  33.243  0.00  0.00    +0.210 C 
ATOM     19  C   UNL     1       3.824   2.755  34.349  0.00  0.00    +0.109 C 
ATOM     20  O   UNL     1       3.511   3.717  32.160  0.00  0.00    -0.276 OA
ENDBRANCH  15  16
BRANCH  12  21
ATOM     21  C   UNL     1       7.884   7.640  35.946  0.00  0.00    +0.414 C 
ATOM     22  O   UNL     1       8.207   8.613  36.628  0.00  0.00    -0.240 OA
ATOM     23  O   UNL     1       7.850   7.749  34.720  0.00  0.00    -0.240 OA
ENDBRANCH  12  21
BRANCH  14  24
ATOM     24  O   UNL     1       3.812   5.881  35.923  0.00  0.00    -0.390 OA
ATOM     25  H   UNL     1       3.431   6.714  36.210  0.00  0.00    +0.210 HD
ENDBRANCH  14  24
BRANCH  12  26
ATOM     26  O   UNL     1       8.228   6.190  37.888  0.00  0.00    -0.343 OA
ATOM     27  C   UNL     1       7.393   6.321  39.065  0.00  0.00    +0.198 C 
ENDBRANCH  12  26
ENDBRANCH   9  10
BRANCH   9  28
ATOM     28  O   UNL     1       7.457   3.950  32.354  0.00  0.00    -0.387 OA
ATOM     29  H   UNL     1       8.215   3.743  31.803  0.00  0.00    +0.210 HD
ENDBRANCH   9  28
ENDBRANCH   6   9
ENDBRANCH   5   6
ENDBRANCH   3   5
BRANCH   1  30
ATOM     30  O   UNL     1       5.220  -1.426  33.095  0.00  0.00    -0.444 OA
BRANCH  30  31
ATOM     31  C   UNL     1       4.328  -0.609  32.333  0.00  0.00    +0.292 C 
BRANCH  31  33
ATOM     32  N   UNL     1       3.725  -2.384  30.726  0.00  0.00    -0.131 NA
ATOM     33  C   UNL     1       4.197  -1.129  30.957  0.00  0.00    +0.121 A 
ATOM     34  C   UNL     1       4.471  -0.526  29.750  0.00  0.00    +0.143 A 
ATOM     35  N   UNL     1       4.191  -1.478  28.790  0.00  0.00    -0.218 N 
ATOM     36  N   UNL     1       3.720  -2.586  29.416  0.00  0.00    -0.060 NA
BRANCH  35  37
ATOM     37  C   UNL     1       4.342  -1.412  27.371  0.00  0.00    +0.085 A 
ATOM     38  C   UNL     1       5.569  -1.847  26.751  0.00  0.00    +0.026 A 
ATOM     39  C   UNL     1       5.623  -1.715  25.350  0.00  0.00    +0.074 A 
ATOM     40  C   UNL     1       6.752  -2.099  24.642  0.00  0.00    +0.028 A 
ATOM     41  C   UNL     1       7.874  -2.633  25.268  0.00  0.00    +0.002 A 
ATOM     42  C   UNL     1       7.852  -2.813  26.636  0.00  0.00    +0.001 A 
ATOM     43  N   UNL     1       4.620  -1.250  24.610  0.00  0.00    -0.247 NA
ATOM     44  C   UNL     1       3.477  -0.875  25.183  0.00  0.00    +0.074 A 
ATOM     45  C   UNL     1       2.497  -0.402  24.316  0.00  0.00    +0.028 A 
ATOM     46  C   UNL     1       1.266   0.060  24.767  0.00  0.00    +0.002 A 
ATOM     47  C   UNL     1       1.008   0.061  26.123  0.00  0.00    +0.001 A 
ATOM     48  C   UNL     1       1.984  -0.406  27.009  0.00  0.00    +0.012 A 
ATOM     49  C   UNL     1       6.714  -2.448  27.363  0.00  0.00    +0.012 A 
ATOM     50  C   UNL     1       3.250  -0.912  26.568  0.00  0.00    +0.026 A 
ENDBRANCH  35  37
ENDBRANCH  31  33
ENDBRANCH  30  31
ENDBRANCH   1  30
TORSDOF 14
