REMARK VINA RESULT:    -6.357      0.000      0.000
REMARK INTER + INTRA:         -15.196
REMARK INTER:                 -13.362
REMARK INTRA:                  -1.834
REMARK UNBOUND:                -3.450
REMARK  Name = lig_assembled_66.pdb
REMARK  18 active torsions:
REMARK  status: ('A' for Active; 'I' for Inactive)
REMARK    1  A    between atoms: _2  and  _10
REMARK    2  A    between atoms: _5  and  _21
REMARK    3  A    between atoms: _7  and  _8
REMARK    4  A    between atoms: _7  and  _21
REMARK    5  A    between atoms: _10  and  _11
REMARK    6  A    between atoms: _15  and  _16
REMARK    7  A    between atoms: _17  and  _37
REMARK    8  A    between atoms: _19  and  _25
REMARK    9  A    between atoms: _20  and  _24
REMARK   10  A    between atoms: _24  and  _25
REMARK   11  A    between atoms: _27  and  _28
REMARK   12  A    between atoms: _29  and  _30
REMARK   13  A    between atoms: _31  and  _33
REMARK   14  A    between atoms: _33  and  _34
REMARK   15  A    between atoms: _33  and  _35
REMARK   16  A    between atoms: _35  and  _36
REMARK   17  A    between atoms: _35  and  _37
REMARK   18  A    between atoms: _38  and  _40
REMARK                            x       y       z     vdW  Elec       q    Type
REMARK                         _______ _______ _______ _____ _____    ______ ____
ROOT
ATOM      1  C   UNL     1       3.163   2.941  32.833  0.00  0.00    +0.163 C 
ENDROOT
BRANCH   1   2
ATOM      2  O   UNL     1       3.906   2.198  31.852  0.00  0.00    -0.388 OA
ATOM      3  H   UNL     1       4.415   2.805  31.309  0.00  0.00    +0.210 HD
ENDBRANCH   1   2
BRANCH   1   4
ATOM      4  C   UNL     1       4.054   3.991  33.518  0.00  0.00    +0.175 C 
BRANCH   4   5
ATOM      5  C   UNL     1       5.492   3.489  33.717  0.00  0.00    +0.176 C 
ATOM      6  O   UNL     1       5.423   2.128  34.227  0.00  0.00    -0.332 OA
ATOM      7  C   UNL     1       6.710   1.443  34.380  0.00  0.00    +0.277 C 
ATOM      8  C   UNL     1       7.669   2.283  35.258  0.00  0.00    +0.110 C 
ATOM      9  C   UNL     1       7.750   3.746  34.774  0.00  0.00    +0.143 C 
ATOM     10  C   UNL     1       6.356   4.360  34.647  0.00  0.00    +0.133 C 
BRANCH  10  11
ATOM     11  N   UNL     1       6.441   5.725  34.103  0.00  0.00    -0.308 N 
ATOM     12  H   UNL     1       6.681   5.829  33.127  0.00  0.00    +0.149 HD
ATOM     13  C   UNL     1       6.223   6.834  34.814  0.00  0.00    +0.210 C 
ATOM     14  C   UNL     1       5.886   6.642  36.305  0.00  0.00    +0.109 C 
ATOM     15  O   UNL     1       6.287   7.964  34.328  0.00  0.00    -0.276 OA
ENDBRANCH  10  11
BRANCH   7  16
ATOM     16  C   UNL     1       7.360   1.188  33.004  0.00  0.00    +0.414 C 
ATOM     17  O   UNL     1       6.661   0.933  32.025  0.00  0.00    -0.240 OA
ATOM     18  O   UNL     1       8.584   1.237  32.874  0.00  0.00    -0.240 OA
ENDBRANCH   7  16
BRANCH   7  19
ATOM     19  O   UNL     1       6.468   0.178  35.048  0.00  0.00    -0.343 OA
ATOM     20  C   UNL     1       5.105  -0.309  34.961  0.00  0.00    +0.198 C 
ENDBRANCH   7  19
BRANCH   9  21
ATOM     21  O   UNL     1       8.522   4.517  35.696  0.00  0.00    -0.390 OA
ATOM     22  H   UNL     1       9.260   4.923  35.236  0.00  0.00    +0.210 HD
ENDBRANCH   9  21
ENDBRANCH   4   5
BRANCH   4  23
ATOM     23  O   UNL     1       3.483   4.378  34.784  0.00  0.00    -0.387 OA
ATOM     24  H   UNL     1       3.030   3.626  35.173  0.00  0.00    +0.210 HD
ENDBRANCH   4  23
ENDBRANCH   1   4
BRANCH   1  25
ATOM     25  C   UNL     1       1.974   3.633  32.174  0.00  0.00    +0.141 C 
BRANCH  25  28
ATOM     26  C   UNL     1       1.282   3.406  29.813  0.00  0.00    +0.401 C 
ATOM     27  O   UNL     1       0.211   2.856  30.082  0.00  0.00    -0.226 OA
ATOM     28  N   UNL     1       2.169   3.797  30.728  0.00  0.00    -0.279 N 
ATOM     29  H   UNL     1       3.024   4.231  30.409  0.00  0.00    +0.152 HD
BRANCH  26  30
ATOM     30  O   UNL     1       1.615   3.645  28.443  0.00  0.00    -0.444 OA
BRANCH  30  31
ATOM     31  C   UNL     1       0.538   3.214  27.607  0.00  0.00    +0.292 C 
BRANCH  31  33
ATOM     32  N   UNL     1      -0.319   4.987  26.103  0.00  0.00    -0.131 NA
ATOM     33  C   UNL     1       0.551   3.953  26.329  0.00  0.00    +0.120 A 
ATOM     34  C   UNL     1       1.373   3.810  25.235  0.00  0.00    +0.137 A 
ATOM     35  N   UNL     1       0.993   4.823  24.401  0.00  0.00    -0.247 N 
ATOM     36  N   UNL     1      -0.038   5.515  24.919  0.00  0.00    -0.065 NA
BRANCH  35  37
ATOM     37  C   UNL     1       1.715   5.335  23.251  0.00  0.00    +0.180 C 
BRANCH  37  38
ATOM     38  C   UNL     1       1.183   4.824  21.936  0.00  0.00    -0.025 A 
ATOM     39  C   UNL     1      -0.116   5.153  21.521  0.00  0.00    +0.005 A 
ATOM     40  C   UNL     1      -0.586   4.754  20.268  0.00  0.00    +0.002 A 
ATOM     41  C   UNL     1       0.229   4.003  19.422  0.00  0.00    +0.019 A 
ATOM     42  C   UNL     1       1.513   3.636  19.834  0.00  0.00    +0.052 A 
ATOM     43  C   UNL     1       1.988   4.047  21.087  0.00  0.00    +0.024 A 
BRANCH  42  44
ATOM     44  C   UNL     1       2.348   2.851  18.973  0.00  0.00    +0.099 C 
ATOM     45  N   UNL     1       3.019   2.217  18.268  0.00  0.00    -0.191 NA
ENDBRANCH  42  44
ENDBRANCH  37  38
ENDBRANCH  35  37
ENDBRANCH  31  33
ENDBRANCH  30  31
ENDBRANCH  26  30
ENDBRANCH  25  28
ENDBRANCH   1  25
TORSDOF 16
