REMARK VINA RESULT:    -5.758     12.719     14.639
REMARK INTER + INTRA:         -14.381
REMARK INTER:                 -11.782
REMARK INTRA:                  -2.599
REMARK UNBOUND:                -2.564
REMARK  Name = lig_assembled_74.pdb
REMARK  24 active torsions:
REMARK  status: ('A' for Active; 'I' for Inactive)
REMARK    1  A    between atoms: _2  and  _9
REMARK    2  A    between atoms: _4  and  _22
REMARK    3  A    between atoms: _5  and  _14
REMARK    4  A    between atoms: _6  and  _7
REMARK    5  A    between atoms: _6  and  _22
REMARK    6  A    between atoms: _9  and  _10
REMARK    7  A    between atoms: _10  and  _11
REMARK    8  A    between atoms: _10  and  _13
REMARK    9  A    between atoms: _11  and  _12
REMARK   10  A    between atoms: _12  and  _16
REMARK   11  A    between atoms: _13  and  _14
REMARK   12  A    between atoms: _14  and  _15
REMARK   13  A    between atoms: _18  and  _38
REMARK   14  A    between atoms: _20  and  _26
REMARK   15  A    between atoms: _21  and  _25
REMARK   16  A    between atoms: _25  and  _26
REMARK   17  A    between atoms: _28  and  _29
REMARK   18  A    between atoms: _30  and  _31
REMARK   19  A    between atoms: _32  and  _34
REMARK   20  A    between atoms: _34  and  _35
REMARK   21  A    between atoms: _34  and  _36
REMARK   22  A    between atoms: _36  and  _37
REMARK   23  A    between atoms: _36  and  _38
REMARK   24  A    between atoms: _39  and  _41
REMARK                            x       y       z     vdW  Elec       q    Type
REMARK                         _______ _______ _______ _____ _____    ______ ____
ROOT
ATOM      1  C   UNL     1       7.822   2.382  33.957  0.00  0.00    +0.163 C 
ENDROOT
BRANCH   1   2
ATOM      2  O   UNL     1       8.840   2.527  34.960  0.00  0.00    -0.388 OA
ATOM      3  H   UNL     1       9.653   2.831  34.550  0.00  0.00    +0.210 HD
ENDBRANCH   1   2
BRANCH   1   4
ATOM      4  C   UNL     1       7.697   3.660  33.110  0.00  0.00    +0.175 C 
BRANCH   4   5
ATOM      5  C   UNL     1       6.919   4.764  33.841  0.00  0.00    +0.176 C 
ATOM      6  O   UNL     1       7.760   5.267  34.916  0.00  0.00    -0.332 OA
ATOM      7  C   UNL     1       7.220   6.407  35.663  0.00  0.00    +0.277 C 
ATOM      8  C   UNL     1       5.811   6.076  36.212  0.00  0.00    +0.110 C 
ATOM      9  C   UNL     1       4.890   5.507  35.113  0.00  0.00    +0.143 C 
ATOM     10  C   UNL     1       5.551   4.328  34.398  0.00  0.00    +0.133 C 
BRANCH  10  11
ATOM     11  N   UNL     1       4.701   3.851  33.296  0.00  0.00    -0.308 N 
ATOM     12  H   UNL     1       4.610   4.442  32.482  0.00  0.00    +0.149 HD
ATOM     13  C   UNL     1       4.043   2.689  33.302  0.00  0.00    +0.210 C 
ATOM     14  C   UNL     1       4.183   1.823  34.568  0.00  0.00    +0.109 C 
ATOM     15  O   UNL     1       3.350   2.308  32.358  0.00  0.00    -0.276 OA
ENDBRANCH  10  11
BRANCH   7  16
ATOM     16  C   UNL     1       7.142   7.661  34.766  0.00  0.00    +0.414 C 
ATOM     17  O   UNL     1       8.172   8.212  34.381  0.00  0.00    -0.240 OA
ATOM     18  O   UNL     1       6.050   8.120  34.429  0.00  0.00    -0.240 OA
ENDBRANCH   7  16
BRANCH   9  19
ATOM     19  O   UNL     1       3.658   5.076  35.692  0.00  0.00    -0.390 OA
ATOM     20  H   UNL     1       3.043   5.813  35.723  0.00  0.00    +0.210 HD
ENDBRANCH   9  19
BRANCH   7  21
ATOM     21  O   UNL     1       8.101   6.665  36.787  0.00  0.00    -0.343 OA
ATOM     22  C   UNL     1       7.609   7.643  37.738  0.00  0.00    +0.198 C 
ENDBRANCH   7  21
ENDBRANCH   4   5
BRANCH   4  23
ATOM     23  O   UNL     1       7.067   3.361  31.849  0.00  0.00    -0.387 OA
ATOM     24  H   UNL     1       7.689   3.520  31.135  0.00  0.00    +0.210 HD
ENDBRANCH   4  23
ENDBRANCH   1   4
BRANCH   1  25
ATOM     25  C   UNL     1       8.148   1.200  33.050  0.00  0.00    +0.141 C 
BRANCH  25  28
ATOM     26  C   UNL     1       7.032  -0.827  32.182  0.00  0.00    +0.401 C 
ATOM     27  O   UNL     1       7.948  -1.114  31.409  0.00  0.00    -0.226 OA
ATOM     28  N   UNL     1       7.039   0.240  32.982  0.00  0.00    -0.279 N 
ATOM     29  H   UNL     1       6.236   0.397  33.575  0.00  0.00    +0.152 HD
BRANCH  26  30
ATOM     30  O   UNL     1       5.881  -1.673  32.239  0.00  0.00    -0.444 OA
BRANCH  30  31
ATOM     31  C   UNL     1       4.708  -0.903  31.962  0.00  0.00    +0.292 C 
BRANCH  31  33
ATOM     32  N   UNL     1       3.852  -0.193  29.742  0.00  0.00    -0.131 NA
ATOM     33  C   UNL     1       4.198  -1.196  30.608  0.00  0.00    +0.120 A 
ATOM     34  C   UNL     1       4.066  -2.409  29.967  0.00  0.00    +0.137 A 
ATOM     35  N   UNL     1       3.816  -2.060  28.670  0.00  0.00    -0.251 N 
ATOM     36  N   UNL     1       3.593  -0.737  28.561  0.00  0.00    -0.065 NA
BRANCH  35  37
ATOM     37  C   UNL     1       4.091  -2.851  27.487  0.00  0.00    +0.149 C 
BRANCH  37  38
ATOM     38  C   UNL     1       5.431  -2.551  26.781  0.00  0.00    +0.021 C 
BRANCH  38  39
ATOM     39  C   UNL     1       6.473  -1.882  27.701  0.00  0.00    +0.125 C 
BRANCH  39  40
ATOM     40  C   UNL     1       7.782  -2.634  27.830  0.00  0.00    +0.305 C 
ATOM     41  O   UNL     1       8.460  -3.023  26.893  0.00  0.00    -0.251 OA
BRANCH  40  42
ATOM     42  O   UNL     1       8.178  -2.785  29.107  0.00  0.00    -0.481 OA
ATOM     43  H   UNL     1       9.007  -3.282  29.234  0.00  0.00    +0.295 HD
ENDBRANCH  40  42
ENDBRANCH  39  40
ENDBRANCH  38  39
BRANCH  38  44
ATOM     44  C   UNL     1       5.153  -1.736  25.484  0.00  0.00    +0.009 C 
BRANCH  44  45
ATOM     45  C   UNL     1       3.684  -1.701  25.012  0.00  0.00    -0.017 C 
ATOM     46  C   UNL     1       3.179  -0.273  24.798  0.00  0.00    +0.007 C 
ATOM     47  C   UNL     1       3.519  -2.489  23.708  0.00  0.00    +0.007 C 
ENDBRANCH  44  45
ENDBRANCH  38  44
ENDBRANCH  37  38
ENDBRANCH  35  37
ENDBRANCH  31  33
ENDBRANCH  30  31
ENDBRANCH  26  30
ENDBRANCH  25  28
ENDBRANCH   1  25
TORSDOF 20
