REMARK VINA RESULT:    -5.014      5.213      8.510
REMARK INTER + INTRA:         -13.102
REMARK INTER:                 -10.335
REMARK INTRA:                  -2.767
REMARK UNBOUND:                -3.545
REMARK  Name = lig_assembled_55.pdb
REMARK  20 active torsions:
REMARK  status: ('A' for Active; 'I' for Inactive)
REMARK    1  A    between atoms: _2  and  _10
REMARK    2  A    between atoms: _3  and  _11
REMARK    3  A    between atoms: _3  and  _38
REMARK    4  A    between atoms: _5  and  _18
REMARK    5  A    between atoms: _6  and  _38
REMARK    6  A    between atoms: _7  and  _8
REMARK    7  A    between atoms: _7  and  _18
REMARK    8  A    between atoms: _10  and  _11
REMARK    9  A    between atoms: _14  and  _34
REMARK   10  A    between atoms: _16  and  _22
REMARK   11  A    between atoms: _17  and  _21
REMARK   12  A    between atoms: _21  and  _22
REMARK   13  A    between atoms: _24  and  _25
REMARK   14  A    between atoms: _26  and  _27
REMARK   15  A    between atoms: _28  and  _30
REMARK   16  A    between atoms: _30  and  _31
REMARK   17  A    between atoms: _30  and  _32
REMARK   18  A    between atoms: _32  and  _33
REMARK   19  A    between atoms: _32  and  _34
REMARK   20  A    between atoms: _35  and  _37
REMARK                            x       y       z     vdW  Elec       q    Type
REMARK                         _______ _______ _______ _____ _____    ______ ____
ROOT
ATOM      1  C   UNL     1       7.971   4.409  38.757  0.00  0.00    +0.163 C 
ENDROOT
BRANCH   1   2
ATOM      2  O   UNL     1       7.877   5.819  38.492  0.00  0.00    -0.388 OA
ATOM      3  H   UNL     1       7.222   5.973  37.807  0.00  0.00    +0.210 HD
ENDBRANCH   1   2
BRANCH   1   4
ATOM      4  C   UNL     1       8.159   3.616  37.452  0.00  0.00    +0.175 C 
BRANCH   4   5
ATOM      5  C   UNL     1       7.681   4.403  36.223  0.00  0.00    +0.176 C 
ATOM      6  O   UNL     1       6.273   4.715  36.412  0.00  0.00    -0.332 OA
ATOM      7  C   UNL     1       5.667   5.560  35.379  0.00  0.00    +0.277 C 
ATOM      8  C   UNL     1       5.882   4.939  33.977  0.00  0.00    +0.110 C 
ATOM      9  C   UNL     1       7.360   4.561  33.742  0.00  0.00    +0.143 C 
ATOM     10  C   UNL     1       7.889   3.684  34.877  0.00  0.00    +0.133 C 
BRANCH  10  11
ATOM     11  N   UNL     1       9.321   3.403  34.686  0.00  0.00    -0.308 N 
ATOM     12  H   UNL     1       9.954   4.189  34.645  0.00  0.00    +0.149 HD
ATOM     13  C   UNL     1       9.837   2.177  34.564  0.00  0.00    +0.210 C 
ATOM     14  C   UNL     1       8.842   1.002  34.605  0.00  0.00    +0.109 C 
ATOM     15  O   UNL     1      11.043   1.971  34.420  0.00  0.00    -0.276 OA
ENDBRANCH  10  11
BRANCH   7  16
ATOM     16  C   UNL     1       6.269   6.980  35.411  0.00  0.00    +0.414 C 
ATOM     17  O   UNL     1       6.113   7.742  34.458  0.00  0.00    -0.240 OA
ATOM     18  O   UNL     1       6.911   7.364  36.390  0.00  0.00    -0.240 OA
ENDBRANCH   7  16
BRANCH   7  19
ATOM     19  O   UNL     1       4.241   5.629  35.635  0.00  0.00    -0.343 OA
ATOM     20  C   UNL     1       3.872   5.683  37.036  0.00  0.00    +0.198 C 
ENDBRANCH   7  19
BRANCH   9  21
ATOM     21  O   UNL     1       7.486   3.858  32.505  0.00  0.00    -0.390 OA
ATOM     22  H   UNL     1       7.310   2.925  32.648  0.00  0.00    +0.210 HD
ENDBRANCH   9  21
ENDBRANCH   4   5
BRANCH   4  23
ATOM     23  O   UNL     1       7.467   2.354  37.534  0.00  0.00    -0.387 OA
ATOM     24  H   UNL     1       8.091   1.661  37.764  0.00  0.00    +0.210 HD
ENDBRANCH   4  23
ENDBRANCH   1   4
BRANCH   1  25
ATOM     25  C   UNL     1       9.141   4.132  39.695  0.00  0.00    +0.141 C 
BRANCH  25  28
ATOM     26  C   UNL     1      10.506   5.598  41.143  0.00  0.00    +0.401 C 
ATOM     27  O   UNL     1      11.579   5.097  40.798  0.00  0.00    -0.226 OA
ATOM     28  N   UNL     1       9.318   5.204  40.682  0.00  0.00    -0.279 N 
ATOM     29  H   UNL     1       8.492   5.670  41.032  0.00  0.00    +0.152 HD
BRANCH  26  30
ATOM     30  O   UNL     1      10.511   6.663  42.096  0.00  0.00    -0.444 OA
BRANCH  30  31
ATOM     31  C   UNL     1      10.399   7.915  41.414  0.00  0.00    +0.292 C 
BRANCH  31  33
ATOM     32  N   UNL     1       7.996   8.039  40.843  0.00  0.00    -0.131 NA
ATOM     33  C   UNL     1       9.051   8.483  41.597  0.00  0.00    +0.120 A 
ATOM     34  C   UNL     1       8.607   9.465  42.456  0.00  0.00    +0.137 A 
ATOM     35  N   UNL     1       7.282   9.585  42.164  0.00  0.00    -0.250 N 
ATOM     36  N   UNL     1       6.918   8.724  41.195  0.00  0.00    -0.065 NA
BRANCH  35  37
ATOM     37  C   UNL     1       6.307  10.463  42.773  0.00  0.00    +0.162 C 
BRANCH  37  38
ATOM     38  C   UNL     1       5.974  11.699  41.929  0.00  0.00    +0.129 C 
BRANCH  38  39
ATOM     39  N   UNL     1       5.229  11.385  40.675  0.00  0.00    -0.193 NA
ATOM     40  H   UNL     1       5.553  10.494  40.277  0.00  0.00    +0.148 HD
BRANCH  39  41
ATOM     41  S   UNL     1       3.550  11.493  40.759  0.00  0.00    +0.027 S 
ATOM     42  O   UNL     1       3.236  12.105  42.031  0.00  0.00    -0.158 OA
ATOM     43  O   UNL     1       3.086  12.064  39.515  0.00  0.00    -0.158 OA
ATOM     44  C   UNL     1       3.086   9.779  40.834  0.00  0.00    +0.214 C 
ENDBRANCH  39  41
ENDBRANCH  38  39
ENDBRANCH  37  38
ENDBRANCH  35  37
ENDBRANCH  31  33
ENDBRANCH  30  31
ENDBRANCH  26  30
ENDBRANCH  25  28
ENDBRANCH   1  25
TORSDOF 17
