REMARK VINA RESULT:    -6.045     14.843     16.916
REMARK INTER + INTRA:         -15.081
REMARK INTER:                 -12.601
REMARK INTRA:                  -2.480
REMARK UNBOUND:                -2.852
REMARK  Name = lig_assembled_11.pdb
REMARK  22 active torsions:
REMARK  status: ('A' for Active; 'I' for Inactive)
REMARK    1  A    between atoms: _2  and  _9
REMARK    2  A    between atoms: _4  and  _21
REMARK    3  A    between atoms: _5  and  _9
REMARK    4  A    between atoms: _5  and  _13
REMARK    5  A    between atoms: _6  and  _7
REMARK    6  A    between atoms: _6  and  _21
REMARK    7  A    between atoms: _9  and  _10
REMARK    8  A    between atoms: _10  and  _11
REMARK    9  A    between atoms: _11  and  _12
REMARK   10  A    between atoms: _12  and  _15
REMARK   11  A    between atoms: _17  and  _37
REMARK   12  A    between atoms: _19  and  _25
REMARK   13  A    between atoms: _20  and  _24
REMARK   14  A    between atoms: _24  and  _25
REMARK   15  A    between atoms: _27  and  _28
REMARK   16  A    between atoms: _29  and  _30
REMARK   17  A    between atoms: _31  and  _33
REMARK   18  A    between atoms: _33  and  _34
REMARK   19  A    between atoms: _33  and  _35
REMARK   20  A    between atoms: _35  and  _36
REMARK   21  A    between atoms: _35  and  _37
REMARK   22  A    between atoms: _38  and  _40
REMARK                            x       y       z     vdW  Elec       q    Type
REMARK                         _______ _______ _______ _____ _____    ______ ____
ROOT
ATOM      1  C   UNL     1       3.377   3.667  32.429  0.00  0.00    +0.163 C 
ENDROOT
BRANCH   1   2
ATOM      2  O   UNL     1       2.512   3.923  33.547  0.00  0.00    -0.388 OA
ATOM      3  H   UNL     1       2.528   4.860  33.757  0.00  0.00    +0.210 HD
ENDBRANCH   1   2
BRANCH   1   4
ATOM      4  C   UNL     1       4.692   3.015  32.888  0.00  0.00    +0.175 C 
BRANCH   4   5
ATOM      5  C   UNL     1       5.268   3.694  34.139  0.00  0.00    +0.176 C 
ATOM      6  O   UNL     1       5.300   5.127  33.895  0.00  0.00    -0.332 OA
ATOM      7  C   UNL     1       5.726   5.954  35.029  0.00  0.00    +0.277 C 
ATOM      8  C   UNL     1       7.103   5.482  35.555  0.00  0.00    +0.110 C 
ATOM      9  C   UNL     1       7.128   3.959  35.799  0.00  0.00    +0.143 C 
ATOM     10  C   UNL     1       6.664   3.196  34.557  0.00  0.00    +0.133 C 
BRANCH  10  11
ATOM     11  N   UNL     1       6.610   1.752  34.830  0.00  0.00    -0.308 N 
ATOM     12  H   UNL     1       5.913   1.421  35.484  0.00  0.00    +0.149 HD
ATOM     13  C   UNL     1       7.419   0.849  34.271  0.00  0.00    +0.210 C 
ATOM     14  C   UNL     1       8.487   1.387  33.300  0.00  0.00    +0.109 C 
ATOM     15  O   UNL     1       7.341  -0.357  34.508  0.00  0.00    -0.276 OA
ENDBRANCH  10  11
BRANCH   7  16
ATOM     16  C   UNL     1       4.689   5.893  36.170  0.00  0.00    +0.414 C 
ATOM     17  O   UNL     1       3.528   5.562  35.936  0.00  0.00    -0.240 OA
ATOM     18  O   UNL     1       5.014   6.175  37.324  0.00  0.00    -0.240 OA
ENDBRANCH   7  16
BRANCH   7  19
ATOM     19  O   UNL     1       5.858   7.321  34.562  0.00  0.00    -0.343 OA
ATOM     20  C   UNL     1       7.222   7.804  34.460  0.00  0.00    +0.198 C 
ENDBRANCH   7  19
BRANCH   9  21
ATOM     21  O   UNL     1       8.453   3.546  36.137  0.00  0.00    -0.390 OA
ATOM     22  H   UNL     1       9.076   4.233  35.886  0.00  0.00    +0.210 HD
ENDBRANCH   9  21
ENDBRANCH   4   5
BRANCH   4  23
ATOM     23  O   UNL     1       5.659   3.040  31.819  0.00  0.00    -0.387 OA
ATOM     24  H   UNL     1       5.442   3.748  31.207  0.00  0.00    +0.210 HD
ENDBRANCH   4  23
ENDBRANCH   1   4
BRANCH   1  25
ATOM     25  C   UNL     1       2.678   2.754  31.427  0.00  0.00    +0.141 C 
BRANCH  25  28
ATOM     26  C   UNL     1       1.894   3.372  29.166  0.00  0.00    +0.401 C 
ATOM     27  O   UNL     1       0.705   3.164  29.419  0.00  0.00    -0.226 OA
ATOM     28  N   UNL     1       2.884   3.200  30.043  0.00  0.00    -0.279 N 
ATOM     29  H   UNL     1       3.829   3.387  29.739  0.00  0.00    +0.152 HD
BRANCH  26  30
ATOM     30  O   UNL     1       2.258   3.820  27.858  0.00  0.00    -0.444 OA
BRANCH  30  31
ATOM     31  C   UNL     1       1.718   2.928  26.880  0.00  0.00    +0.292 C 
BRANCH  31  33
ATOM     32  N   UNL     1       0.675   4.879  25.769  0.00  0.00    -0.131 NA
ATOM     33  C   UNL     1       1.311   3.672  25.673  0.00  0.00    +0.120 A 
ATOM     34  C   UNL     1       1.471   3.354  24.344  0.00  0.00    +0.138 A 
ATOM     35  N   UNL     1       0.875   4.385  23.676  0.00  0.00    -0.238 N 
ATOM     36  N   UNL     1       0.424   5.314  24.541  0.00  0.00    -0.065 NA
BRANCH  35  37
ATOM     37  C   UNL     1       0.796   4.666  22.247  0.00  0.00    +0.217 C 
BRANCH  37  38
ATOM     38  C   UNL     1      -0.627   4.797  21.724  0.00  0.00    +0.330 C 
ATOM     39  O   UNL     1      -1.218   3.974  21.042  0.00  0.00    -0.249 OA
BRANCH  38  40
ATOM     40  O   UNL     1      -1.238   5.957  22.074  0.00  0.00    -0.479 OA
ATOM     41  H   UNL     1      -1.174   6.231  23.010  0.00  0.00    +0.295 HD
ENDBRANCH  38  40
ENDBRANCH  37  38
BRANCH  37  42
ATOM     42  C   UNL     1       1.642   3.680  21.421  0.00  0.00    +0.049 C 
BRANCH  42  43
ATOM     43  C   UNL     1       2.007   4.164  20.012  0.00  0.00    +0.123 C 
BRANCH  43  44
ATOM     44  C   UNL     1       1.483   3.214  18.960  0.00  0.00    +0.305 C 
ATOM     45  O   UNL     1       2.069   2.218  18.568  0.00  0.00    -0.251 OA
BRANCH  44  46
ATOM     46  O   UNL     1       0.284   3.594  18.466  0.00  0.00    -0.481 OA
ATOM     47  H   UNL     1       0.329   4.073  17.617  0.00  0.00    +0.295 HD
ENDBRANCH  44  46
ENDBRANCH  43  44
ENDBRANCH  42  43
ENDBRANCH  37  42
ENDBRANCH  35  37
ENDBRANCH  31  33
ENDBRANCH  30  31
ENDBRANCH  26  30
ENDBRANCH  25  28
ENDBRANCH   1  25
TORSDOF 20
