REMARK VINA RESULT:    -6.114      5.105      9.930
REMARK INTER + INTRA:         -13.679
REMARK INTER:                 -11.920
REMARK INTRA:                  -1.758
REMARK UNBOUND:                -1.667
REMARK  Name = lig_assembled_43.pdb
REMARK  20 active torsions:
REMARK  status: ('A' for Active; 'I' for Inactive)
REMARK    1  A    between atoms: _2  and  _9
REMARK    2  A    between atoms: _4  and  _18
REMARK    3  A    between atoms: _6  and  _7
REMARK    4  A    between atoms: _6  and  _18
REMARK    5  A    between atoms: _9  and  _10
REMARK    6  A    between atoms: _10  and  _11
REMARK    7  A    between atoms: _11  and  _12
REMARK    8  A    between atoms: _12  and  _13
REMARK    9  A    between atoms: _14  and  _34
REMARK   10  A    between atoms: _16  and  _22
REMARK   11  A    between atoms: _17  and  _21
REMARK   12  A    between atoms: _21  and  _22
REMARK   13  A    between atoms: _24  and  _25
REMARK   14  A    between atoms: _26  and  _27
REMARK   15  A    between atoms: _28  and  _30
REMARK   16  A    between atoms: _30  and  _31
REMARK   17  A    between atoms: _30  and  _32
REMARK   18  A    between atoms: _32  and  _33
REMARK   19  A    between atoms: _32  and  _34
REMARK   20  A    between atoms: _35  and  _37
REMARK                            x       y       z     vdW  Elec       q    Type
REMARK                         _______ _______ _______ _____ _____    ______ ____
ROOT
ATOM      1  C   UNL     1       7.338   2.496  34.415  0.00  0.00    +0.163 C 
ENDROOT
BRANCH   1   2
ATOM      2  O   UNL     1       7.321   2.515  35.852  0.00  0.00    -0.388 OA
ATOM      3  H   UNL     1       7.793   3.289  36.168  0.00  0.00    +0.210 HD
ENDBRANCH   1   2
BRANCH   1   4
ATOM      4  C   UNL     1       7.791   3.854  33.852  0.00  0.00    +0.175 C 
BRANCH   4   5
ATOM      5  C   UNL     1       7.163   5.033  34.611  0.00  0.00    +0.176 C 
ATOM      6  O   UNL     1       7.866   5.175  35.876  0.00  0.00    -0.332 OA
ATOM      7  C   UNL     1       7.470   6.324  36.696  0.00  0.00    +0.277 C 
ATOM      8  C   UNL     1       5.942   6.310  36.945  0.00  0.00    +0.110 C 
ATOM      9  C   UNL     1       5.153   6.129  35.631  0.00  0.00    +0.143 C 
ATOM     10  C   UNL     1       5.648   4.907  34.857  0.00  0.00    +0.133 C 
BRANCH  10  11
ATOM     11  N   UNL     1       4.949   4.795  33.568  0.00  0.00    -0.308 N 
ATOM     12  H   UNL     1       5.156   5.483  32.858  0.00  0.00    +0.149 HD
ATOM     13  C   UNL     1       4.057   3.844  33.275  0.00  0.00    +0.210 C 
ATOM     14  C   UNL     1       3.744   2.826  34.388  0.00  0.00    +0.109 C 
ATOM     15  O   UNL     1       3.498   3.767  32.181  0.00  0.00    -0.276 OA
ENDBRANCH  10  11
BRANCH   7  16
ATOM     16  C   UNL     1       7.869   7.647  36.011  0.00  0.00    +0.414 C 
ATOM     17  O   UNL     1       7.965   7.707  34.786  0.00  0.00    -0.240 OA
ATOM     18  O   UNL     1       8.095   8.655  36.683  0.00  0.00    -0.240 OA
ENDBRANCH   7  16
BRANCH   9  19
ATOM     19  O   UNL     1       3.763   5.970  35.922  0.00  0.00    -0.390 OA
ATOM     20  H   UNL     1       3.460   5.123  35.587  0.00  0.00    +0.210 HD
ENDBRANCH   9  19
BRANCH   7  21
ATOM     21  O   UNL     1       8.143   6.215  37.977  0.00  0.00    -0.343 OA
ATOM     22  C   UNL     1       9.495   5.694  37.916  0.00  0.00    +0.198 C 
ENDBRANCH   7  21
ENDBRANCH   4   5
BRANCH   4  23
ATOM     23  O   UNL     1       7.473   3.942  32.449  0.00  0.00    -0.387 OA
ATOM     24  H   UNL     1       6.522   4.015  32.340  0.00  0.00    +0.210 HD
ENDBRANCH   4  23
ENDBRANCH   1   4
BRANCH   1  25
ATOM     25  C   UNL     1       8.275   1.400  33.918  0.00  0.00    +0.141 C 
BRANCH  25  28
ATOM     26  C   UNL     1      10.512   1.770  34.902  0.00  0.00    +0.401 C 
ATOM     27  O   UNL     1      10.205   1.314  36.006  0.00  0.00    -0.226 OA
ATOM     28  N   UNL     1       9.671   1.854  33.870  0.00  0.00    -0.279 N 
ATOM     29  H   UNL     1      10.013   2.252  33.007  0.00  0.00    +0.152 HD
BRANCH  26  30
ATOM     30  O   UNL     1      11.843   2.247  34.694  0.00  0.00    -0.444 OA
BRANCH  30  31
ATOM     31  C   UNL     1      12.343   2.814  35.908  0.00  0.00    +0.292 C 
BRANCH  31  33
ATOM     32  N   UNL     1      13.277   5.083  36.240  0.00  0.00    -0.131 NA
ATOM     33  C   UNL     1      13.334   3.864  35.614  0.00  0.00    +0.120 A 
ATOM     34  C   UNL     1      14.403   3.855  34.746  0.00  0.00    +0.137 A 
ATOM     35  N   UNL     1      14.949   5.095  34.887  0.00  0.00    -0.251 N 
ATOM     36  N   UNL     1      14.273   5.830  35.785  0.00  0.00    -0.065 NA
BRANCH  35  37
ATOM     37  C   UNL     1      16.082   5.657  34.183  0.00  0.00    +0.145 C 
BRANCH  37  38
ATOM     38  C   UNL     1      16.111   7.178  34.292  0.00  0.00    +0.024 C 
BRANCH  38  39
ATOM     39  C   UNL     1      15.594   7.856  33.021  0.00  0.00    +0.006 C 
BRANCH  39  40
ATOM     40  C   UNL     1      15.216   9.312  33.305  0.00  0.00    +0.026 C 
BRANCH  40  41
ATOM     41  C   UNL     1      16.113   9.935  34.334  0.00  0.00    -0.034 C 
ATOM     42  C   UNL     1      17.112  10.777  34.041  0.00  0.00    +0.004 C 
ENDBRANCH  40  41
ENDBRANCH  39  40
ENDBRANCH  38  39
ENDBRANCH  37  38
ENDBRANCH  35  37
ENDBRANCH  31  33
ENDBRANCH  30  31
ENDBRANCH  26  30
ENDBRANCH  25  28
ENDBRANCH   1  25
TORSDOF 18
