REMARK VINA RESULT:    -6.151     14.469     17.865
REMARK INTER + INTRA:         -12.981
REMARK INTER:                 -11.055
REMARK INTRA:                  -1.925
REMARK UNBOUND:                -2.334
REMARK  Name = lig_assembled_15.pdb
REMARK  16 active torsions:
REMARK  status: ('A' for Active; 'I' for Inactive)
REMARK    1  A    between atoms: _2  and  _9
REMARK    2  A    between atoms: _4  and  _18
REMARK    3  A    between atoms: _6  and  _7
REMARK    4  A    between atoms: _6  and  _18
REMARK    5  A    between atoms: _14  and  _34
REMARK    6  A    between atoms: _16  and  _22
REMARK    7  A    between atoms: _17  and  _21
REMARK    8  A    between atoms: _21  and  _22
REMARK    9  A    between atoms: _24  and  _25
REMARK   10  A    between atoms: _26  and  _27
REMARK   11  A    between atoms: _28  and  _30
REMARK   12  A    between atoms: _30  and  _31
REMARK   13  A    between atoms: _30  and  _32
REMARK   14  A    between atoms: _32  and  _33
REMARK   15  A    between atoms: _32  and  _34
REMARK   16  A    between atoms: _35  and  _37
REMARK                            x       y       z     vdW  Elec       q    Type
REMARK                         _______ _______ _______ _____ _____    ______ ____
ROOT
ATOM      1  C   UNL     1      18.439   5.762  23.835  0.00  0.00    +0.163 C 
ENDROOT
BRANCH   1   2
ATOM      2  O   UNL     1      17.370   5.747  22.875  0.00  0.00    -0.388 OA
ATOM      3  H   UNL     1      16.748   5.050  23.098  0.00  0.00    +0.210 HD
ENDBRANCH   1   2
BRANCH   1   4
ATOM      4  C   UNL     1      19.436   6.863  23.489  0.00  0.00    +0.141 C 
BRANCH   4   7
ATOM      5  C   UNL     1      21.048   7.788  25.118  0.00  0.00    +0.401 C 
ATOM      6  O   UNL     1      22.026   7.239  24.604  0.00  0.00    -0.226 OA
ATOM      7  N   UNL     1      19.800   7.662  24.666  0.00  0.00    -0.279 N 
ATOM      8  H   UNL     1      19.063   8.143  25.162  0.00  0.00    +0.152 HD
BRANCH   5   9
ATOM      9  O   UNL     1      21.241   8.610  26.272  0.00  0.00    -0.444 OA
BRANCH   9  10
ATOM     10  C   UNL     1      20.451   9.796  26.150  0.00  0.00    +0.292 C 
BRANCH  10  12
ATOM     11  N   UNL     1      18.929  11.152  27.553  0.00  0.00    -0.131 NA
ATOM     12  C   UNL     1      19.666  10.016  27.379  0.00  0.00    +0.121 A 
ATOM     13  C   UNL     1      19.515   9.211  28.486  0.00  0.00    +0.143 A 
ATOM     14  N   UNL     1      18.644   9.891  29.304  0.00  0.00    -0.220 N 
ATOM     15  N   UNL     1      18.317  11.072  28.726  0.00  0.00    -0.060 NA
BRANCH  14  16
ATOM     16  C   UNL     1      18.099   9.486  30.552  0.00  0.00    +0.067 A 
ATOM     17  C   UNL     1      17.990   8.128  30.883  0.00  0.00    +0.029 A 
ATOM     18  C   UNL     1      17.411   7.748  32.098  0.00  0.00    +0.017 A 
ATOM     19  C   UNL     1      16.948   8.719  32.983  0.00  0.00    +0.018 A 
ATOM     20 BR   UNL     1      16.144   8.195  34.612  0.00  0.00    -0.050 Br
ATOM     21  C   UNL     1      17.066  10.072  32.671  0.00  0.00    +0.017 A 
ATOM     22  C   UNL     1      17.643  10.457  31.458  0.00  0.00    +0.029 A 
ENDBRANCH  14  16
ENDBRANCH  10  12
ENDBRANCH   9  10
ENDBRANCH   5   9
ENDBRANCH   4   7
ENDBRANCH   1   4
BRANCH   1  23
ATOM     23  C   UNL     1      19.164   4.406  23.873  0.00  0.00    +0.175 C 
BRANCH  23  24
ATOM     24  C   UNL     1      18.412   3.372  24.723  0.00  0.00    +0.176 C 
ATOM     25  O   UNL     1      19.292   2.955  25.803  0.00  0.00    -0.332 OA
ATOM     26  C   UNL     1      18.701   2.041  26.786  0.00  0.00    +0.277 C 
ATOM     27  C   UNL     1      18.112   0.795  26.080  0.00  0.00    +0.110 C 
ATOM     28  C   UNL     1      17.194   1.187  24.903  0.00  0.00    +0.143 C 
ATOM     29  C   UNL     1      17.908   2.142  23.945  0.00  0.00    +0.133 C 
BRANCH  29  30
ATOM     30  N   UNL     1      16.995   2.577  22.876  0.00  0.00    -0.308 N 
ATOM     31  H   UNL     1      16.206   3.153  23.135  0.00  0.00    +0.149 HD
ATOM     32  C   UNL     1      17.141   2.260  21.587  0.00  0.00    +0.210 C 
ATOM     33  C   UNL     1      18.338   1.359  21.229  0.00  0.00    +0.109 C 
ATOM     34  O   UNL     1      16.369   2.651  20.711  0.00  0.00    -0.276 OA
ENDBRANCH  29  30
BRANCH  26  35
ATOM     35  C   UNL     1      17.592   2.748  27.593  0.00  0.00    +0.414 C 
ATOM     36  O   UNL     1      17.879   3.420  28.583  0.00  0.00    -0.240 OA
ATOM     37  O   UNL     1      16.412   2.647  27.254  0.00  0.00    -0.240 OA
ENDBRANCH  26  35
BRANCH  28  38
ATOM     38  O   UNL     1      16.797   0.015  24.190  0.00  0.00    -0.390 OA
ATOM     39  H   UNL     1      15.844   0.021  24.070  0.00  0.00    +0.210 HD
ENDBRANCH  28  38
BRANCH  26  40
ATOM     40  O   UNL     1      19.754   1.604  27.682  0.00  0.00    -0.343 OA
ATOM     41  C   UNL     1      21.052   2.204  27.441  0.00  0.00    +0.198 C 
ENDBRANCH  26  40
ENDBRANCH  23  24
BRANCH  23  42
ATOM     42  O   UNL     1      20.507   4.574  24.370  0.00  0.00    -0.387 OA
ATOM     43  H   UNL     1      20.702   3.884  25.008  0.00  0.00    +0.210 HD
ENDBRANCH  23  42
ENDBRANCH   1  23
TORSDOF 14
