REMARK VINA RESULT:    -6.336      2.693      5.048
REMARK INTER + INTRA:         -13.270
REMARK INTER:                 -11.088
REMARK INTRA:                  -2.183
REMARK UNBOUND:                -1.933
REMARK  Name = lig_assembled_39.pdb
REMARK  17 active torsions:
REMARK  status: ('A' for Active; 'I' for Inactive)
REMARK    1  A    between atoms: _2  and  _9
REMARK    2  A    between atoms: _4  and  _19
REMARK    3  A    between atoms: _6  and  _7
REMARK    4  A    between atoms: _6  and  _19
REMARK    5  A    between atoms: _9  and  _10
REMARK    6  A    between atoms: _15  and  _35
REMARK    7  A    between atoms: _17  and  _23
REMARK    8  A    between atoms: _18  and  _22
REMARK    9  A    between atoms: _22  and  _23
REMARK   10  A    between atoms: _25  and  _26
REMARK   11  A    between atoms: _27  and  _28
REMARK   12  A    between atoms: _29  and  _31
REMARK   13  A    between atoms: _31  and  _32
REMARK   14  A    between atoms: _31  and  _33
REMARK   15  A    between atoms: _33  and  _34
REMARK   16  A    between atoms: _33  and  _35
REMARK   17  A    between atoms: _36  and  _38
REMARK                            x       y       z     vdW  Elec       q    Type
REMARK                         _______ _______ _______ _____ _____    ______ ____
ROOT
ATOM      1  C   UNL     1      19.243   5.560  25.514  0.00  0.00    +0.163 C 
ENDROOT
BRANCH   1   2
ATOM      2  O   UNL     1      20.371   4.763  25.908  0.00  0.00    -0.388 OA
ATOM      3  H   UNL     1      20.390   3.955  25.388  0.00  0.00    +0.210 HD
ENDBRANCH   1   2
BRANCH   1   4
ATOM      4  C   UNL     1      19.116   5.571  23.994  0.00  0.00    +0.141 C 
BRANCH   4   7
ATOM      5  C   UNL     1      17.112   4.745  22.808  0.00  0.00    +0.401 C 
ATOM      6  O   UNL     1      16.715   5.871  22.499  0.00  0.00    -0.226 OA
ATOM      7  N   UNL     1      18.221   4.512  23.512  0.00  0.00    -0.279 N 
ATOM      8  H   UNL     1      18.458   3.554  23.725  0.00  0.00    +0.152 HD
BRANCH   5   9
ATOM      9  O   UNL     1      16.350   3.604  22.403  0.00  0.00    -0.444 OA
BRANCH   9  10
ATOM     10  C   UNL     1      16.855   3.110  21.160  0.00  0.00    +0.292 C 
BRANCH  10  12
ATOM     11  N   UNL     1      18.005   1.099  20.285  0.00  0.00    -0.131 NA
ATOM     12  C   UNL     1      17.431   1.764  21.338  0.00  0.00    +0.120 A 
ATOM     13  C   UNL     1      17.526   0.985  22.469  0.00  0.00    +0.137 A 
ATOM     14  N   UNL     1      18.240  -0.101  22.057  0.00  0.00    -0.247 N 
ATOM     15  N   UNL     1      18.472  -0.058  20.732  0.00  0.00    -0.065 NA
BRANCH  14  16
ATOM     16  C   UNL     1      18.791  -1.173  22.874  0.00  0.00    +0.181 C 
BRANCH  16  17
ATOM     17  C   UNL     1      17.728  -1.981  23.597  0.00  0.00    -0.012 A 
ATOM     18  C   UNL     1      16.940  -2.926  22.909  0.00  0.00    +0.006 A 
ATOM     19  C   UNL     1      15.956  -3.672  23.561  0.00  0.00    +0.000 A 
ATOM     20  C   UNL     1      15.718  -3.476  24.914  0.00  0.00    +0.001 A 
ATOM     21  C   UNL     1      16.451  -2.518  25.611  0.00  0.00    +0.015 A 
ATOM     22  C   UNL     1      17.440  -1.768  24.959  0.00  0.00    +0.023 A 
ATOM     23 BR   UNL     1      18.335  -0.451  25.998  0.00  0.00    -0.050 Br
ENDBRANCH  16  17
ENDBRANCH  14  16
ENDBRANCH  10  12
ENDBRANCH   9  10
ENDBRANCH   5   9
ENDBRANCH   4   7
ENDBRANCH   1   4
BRANCH   1  24
ATOM     24  C   UNL     1      19.383   7.004  26.028  0.00  0.00    +0.175 C 
BRANCH  24  25
ATOM     25  C   UNL     1      19.751   7.053  27.518  0.00  0.00    +0.176 C 
ATOM     26  O   UNL     1      19.155   5.895  28.164  0.00  0.00    -0.332 OA
ATOM     27  C   UNL     1      19.489   5.718  29.581  0.00  0.00    +0.277 C 
ATOM     28  C   UNL     1      19.147   6.998  30.382  0.00  0.00    +0.110 C 
ATOM     29  C   UNL     1      19.733   8.260  29.715  0.00  0.00    +0.143 C 
ATOM     30  C   UNL     1      19.325   8.343  28.244  0.00  0.00    +0.133 C 
BRANCH  30  31
ATOM     31  N   UNL     1      19.960   9.503  27.598  0.00  0.00    -0.308 N 
ATOM     32  H   UNL     1      20.945   9.441  27.382  0.00  0.00    +0.149 HD
ATOM     33  C   UNL     1      19.320  10.631  27.279  0.00  0.00    +0.210 C 
ATOM     34  C   UNL     1      17.826  10.703  27.645  0.00  0.00    +0.109 C 
ATOM     35  O   UNL     1      19.874  11.581  26.725  0.00  0.00    -0.276 OA
ENDBRANCH  30  31
BRANCH  27  36
ATOM     36  C   UNL     1      20.986   5.387  29.752  0.00  0.00    +0.414 C 
ATOM     37  O   UNL     1      21.614   4.859  28.834  0.00  0.00    -0.240 OA
ATOM     38  O   UNL     1      21.567   5.647  30.806  0.00  0.00    -0.240 OA
ENDBRANCH  27  36
BRANCH  27  39
ATOM     39  O   UNL     1      18.686   4.626  30.098  0.00  0.00    -0.343 OA
ATOM     40  C   UNL     1      18.361   3.594  29.133  0.00  0.00    +0.198 C 
ENDBRANCH  27  39
BRANCH  29  41
ATOM     41  O   UNL     1      19.269   9.425  30.399  0.00  0.00    -0.390 OA
ATOM     42  H   UNL     1      18.320   9.365  30.526  0.00  0.00    +0.210 HD
ENDBRANCH  29  41
ENDBRANCH  24  25
BRANCH  24  43
ATOM     43  O   UNL     1      18.163   7.735  25.792  0.00  0.00    -0.387 OA
ATOM     44  H   UNL     1      18.120   8.486  26.389  0.00  0.00    +0.210 HD
ENDBRANCH  24  43
ENDBRANCH   1  24
TORSDOF 15
