REMARK VINA RESULT:    -5.980      8.330     12.472
REMARK INTER + INTRA:         -13.211
REMARK INTER:                 -10.888
REMARK INTRA:                  -2.322
REMARK UNBOUND:                -2.511
REMARK  Name = lig_assembled_6.pdb
REMARK  17 active torsions:
REMARK  status: ('A' for Active; 'I' for Inactive)
REMARK    1  A    between atoms: _2  and  _10
REMARK    2  A    between atoms: _3  and  _13
REMARK    3  A    between atoms: _5  and  _21
REMARK    4  A    between atoms: _7  and  _8
REMARK    5  A    between atoms: _7  and  _21
REMARK    6  A    between atoms: _17  and  _37
REMARK    7  A    between atoms: _19  and  _25
REMARK    8  A    between atoms: _20  and  _24
REMARK    9  A    between atoms: _24  and  _25
REMARK   10  A    between atoms: _27  and  _28
REMARK   11  A    between atoms: _29  and  _30
REMARK   12  A    between atoms: _31  and  _33
REMARK   13  A    between atoms: _33  and  _34
REMARK   14  A    between atoms: _33  and  _35
REMARK   15  A    between atoms: _35  and  _36
REMARK   16  A    between atoms: _35  and  _37
REMARK   17  A    between atoms: _38  and  _40
REMARK                            x       y       z     vdW  Elec       q    Type
REMARK                         _______ _______ _______ _____ _____    ______ ____
ROOT
ATOM      1  C   UNL     1       9.570   2.986  36.269  0.00  0.00    +0.163 C 
ENDROOT
BRANCH   1   2
ATOM      2  O   UNL     1       9.953   4.038  37.169  0.00  0.00    -0.388 OA
ATOM      3  H   UNL     1      10.113   3.671  38.042  0.00  0.00    +0.210 HD
ENDBRANCH   1   2
BRANCH   1   4
ATOM      4  C   UNL     1      10.729   2.014  36.077  0.00  0.00    +0.141 C 
BRANCH   4   7
ATOM      5  C   UNL     1      12.759   3.254  35.407  0.00  0.00    +0.401 C 
ATOM      6  O   UNL     1      13.028   3.619  36.554  0.00  0.00    -0.226 OA
ATOM      7  N   UNL     1      11.700   2.507  35.092  0.00  0.00    -0.279 N 
ATOM      8  H   UNL     1      11.557   2.266  34.121  0.00  0.00    +0.152 HD
BRANCH   5   9
ATOM      9  O   UNL     1      13.617   3.647  34.333  0.00  0.00    -0.444 OA
BRANCH   9  10
ATOM     10  C   UNL     1      14.870   4.091  34.860  0.00  0.00    +0.292 C 
BRANCH  10  12
ATOM     11  N   UNL     1      14.587   6.551  34.892  0.00  0.00    -0.131 NA
ATOM     12  C   UNL     1      15.185   5.444  34.364  0.00  0.00    +0.121 A 
ATOM     13  C   UNL     1      16.063   5.836  33.380  0.00  0.00    +0.143 A 
ATOM     14  N   UNL     1      15.990   7.209  33.363  0.00  0.00    -0.220 N 
ATOM     15  N   UNL     1      15.074   7.618  34.274  0.00  0.00    -0.060 NA
BRANCH  14  16
ATOM     16  C   UNL     1      16.742   8.130  32.586  0.00  0.00    +0.067 A 
ATOM     17  C   UNL     1      16.675   9.508  32.846  0.00  0.00    +0.034 A 
ATOM     18  C   UNL     1      17.372  10.410  32.035  0.00  0.00    +0.086 A 
ATOM     19  C   UNL     1      18.138   9.935  30.963  0.00  0.00    +0.273 A 
ATOM     20  C   UNL     1      18.232   8.561  30.712  0.00  0.00    +0.086 A 
ATOM     21  C   UNL     1      17.534   7.661  31.525  0.00  0.00    +0.034 A 
BRANCH  19  22
ATOM     22  N   UNL     1      18.831  10.890  30.089  0.00  0.00    +0.080 N 
ATOM     23  O   UNL     1      18.461  10.963  28.909  0.00  0.00    +0.041 OA
ATOM     24  O   UNL     1      19.749  11.560  30.581  0.00  0.00    -0.576 OA
ENDBRANCH  19  22
ENDBRANCH  14  16
ENDBRANCH  10  12
ENDBRANCH   9  10
ENDBRANCH   5   9
ENDBRANCH   4   7
ENDBRANCH   1   4
BRANCH   1  25
ATOM     25  C   UNL     1       9.147   3.557  34.904  0.00  0.00    +0.175 C 
BRANCH  25  26
ATOM     26  C   UNL     1       7.781   4.256  34.968  0.00  0.00    +0.176 C 
ATOM     27  O   UNL     1       7.940   5.479  35.738  0.00  0.00    -0.332 OA
ATOM     28  C   UNL     1       6.754   6.337  35.817  0.00  0.00    +0.277 C 
ATOM     29  C   UNL     1       5.541   5.537  36.350  0.00  0.00    +0.110 C 
ATOM     30  C   UNL     1       5.351   4.212  35.583  0.00  0.00    +0.143 C 
ATOM     31  C   UNL     1       6.646   3.400  35.560  0.00  0.00    +0.133 C 
BRANCH  31  32
ATOM     32  N   UNL     1       6.476   2.181  34.753  0.00  0.00    -0.308 N 
ATOM     33  H   UNL     1       6.358   2.290  33.755  0.00  0.00    +0.149 HD
ATOM     34  C   UNL     1       6.468   0.942  35.252  0.00  0.00    +0.210 C 
ATOM     35  C   UNL     1       6.624   0.813  36.779  0.00  0.00    +0.109 C 
ATOM     36  O   UNL     1       6.339  -0.061  34.549  0.00  0.00    -0.276 OA
ENDBRANCH  31  32
BRANCH  28  37
ATOM     37  C   UNL     1       6.414   6.928  34.433  0.00  0.00    +0.414 C 
ATOM     38  O   UNL     1       7.311   7.330  33.693  0.00  0.00    -0.240 OA
ATOM     39  O   UNL     1       5.244   7.001  34.056  0.00  0.00    -0.240 OA
ENDBRANCH  28  37
BRANCH  30  40
ATOM     40  O   UNL     1       4.321   3.440  36.202  0.00  0.00    -0.390 OA
ATOM     41  H   UNL     1       4.099   3.826  37.053  0.00  0.00    +0.210 HD
ENDBRANCH  30  40
BRANCH  28  42
ATOM     42  O   UNL     1       7.039   7.412  36.749  0.00  0.00    -0.343 OA
ATOM     43  C   UNL     1       8.445   7.609  37.045  0.00  0.00    +0.198 C 
ENDBRANCH  28  42
ENDBRANCH  25  26
BRANCH  25  44
ATOM     44  O   UNL     1       9.123   2.509  33.914  0.00  0.00    -0.387 OA
ATOM     45  H   UNL     1       9.838   2.644  33.288  0.00  0.00    +0.210 HD
ENDBRANCH  25  44
ENDBRANCH   1  25
TORSDOF 15
