REMARK VINA RESULT:    -6.599     14.286     18.424
REMARK INTER + INTRA:         -13.364
REMARK INTER:                 -10.783
REMARK INTRA:                  -2.582
REMARK UNBOUND:                -1.557
REMARK  Name = lig_assembled_28.pdb
REMARK  17 active torsions:
REMARK  status: ('A' for Active; 'I' for Inactive)
REMARK    1  A    between atoms: _2  and  _9
REMARK    2  A    between atoms: _4  and  _22
REMARK    3  A    between atoms: _6  and  _7
REMARK    4  A    between atoms: _6  and  _22
REMARK    5  A    between atoms: _9  and  _10
REMARK    6  A    between atoms: _18  and  _38
REMARK    7  A    between atoms: _20  and  _26
REMARK    8  A    between atoms: _21  and  _25
REMARK    9  A    between atoms: _25  and  _26
REMARK   10  A    between atoms: _28  and  _29
REMARK   11  A    between atoms: _30  and  _31
REMARK   12  A    between atoms: _32  and  _34
REMARK   13  A    between atoms: _34  and  _35
REMARK   14  A    between atoms: _34  and  _36
REMARK   15  A    between atoms: _36  and  _37
REMARK   16  A    between atoms: _36  and  _38
REMARK   17  A    between atoms: _39  and  _41
REMARK                            x       y       z     vdW  Elec       q    Type
REMARK                         _______ _______ _______ _____ _____    ______ ____
ROOT
ATOM      1  C   UNL     1      17.927   1.488  23.319  0.00  0.00    +0.163 C 
ENDROOT
BRANCH   1   2
ATOM      2  O   UNL     1      17.360   1.209  22.029  0.00  0.00    -0.388 OA
ATOM      3  H   UNL     1      16.607   0.622  22.129  0.00  0.00    +0.210 HD
ENDBRANCH   1   2
BRANCH   1   4
ATOM      4  C   UNL     1      18.567   2.873  23.320  0.00  0.00    +0.141 C 
BRANCH   4   7
ATOM      5  C   UNL     1      19.019   4.069  25.434  0.00  0.00    +0.401 C 
ATOM      6  O   UNL     1      20.227   3.821  25.425  0.00  0.00    -0.226 OA
ATOM      7  N   UNL     1      18.167   3.660  24.493  0.00  0.00    -0.279 N 
ATOM      8  H   UNL     1      17.192   3.905  24.592  0.00  0.00    +0.152 HD
BRANCH   5   9
ATOM      9  O   UNL     1      18.475   4.837  26.511  0.00  0.00    -0.444 OA
BRANCH   9  10
ATOM     10  C   UNL     1      18.703   6.228  26.269  0.00  0.00    +0.292 C 
BRANCH  10  12
ATOM     11  N   UNL     1      19.135   8.280  27.592  0.00  0.00    -0.131 NA
ATOM     12  C   UNL     1      19.065   6.914  27.524  0.00  0.00    +0.120 A 
ATOM     13  C   UNL     1      19.341   6.387  28.764  0.00  0.00    +0.137 A 
ATOM     14  N   UNL     1      19.475   7.483  29.569  0.00  0.00    -0.247 N 
ATOM     15  N   UNL     1      19.399   8.617  28.847  0.00  0.00    -0.065 NA
BRANCH  14  16
ATOM     16  C   UNL     1      19.585   7.581  31.019  0.00  0.00    +0.180 C 
BRANCH  16  17
ATOM     17  C   UNL     1      18.314   7.217  31.750  0.00  0.00    -0.022 A 
ATOM     18  C   UNL     1      18.230   6.007  32.463  0.00  0.00    +0.055 A 
ATOM     19  C   UNL     1      17.094   5.773  33.207  0.00  0.00    +0.167 A 
ATOM     20  O   UNL     1      16.875   4.684  33.996  0.00  0.00    -0.453 OA
ATOM     21  C   UNL     1      15.618   5.045  34.605  0.00  0.00    +0.466 C 
ATOM     22  O   UNL     1      15.044   6.254  34.063  0.00  0.00    -0.453 OA
ATOM     23  C   UNL     1      16.051   6.663  33.244  0.00  0.00    +0.166 A 
ATOM     24  C   UNL     1      16.081   7.843  32.531  0.00  0.00    +0.050 A 
ATOM     25  C   UNL     1      17.229   8.123  31.783  0.00  0.00    +0.009 A 
ENDBRANCH  16  17
ENDBRANCH  14  16
ENDBRANCH  10  12
ENDBRANCH   9  10
ENDBRANCH   5   9
ENDBRANCH   4   7
ENDBRANCH   1   4
BRANCH   1  26
ATOM     26  C   UNL     1      18.982   0.434  23.696  0.00  0.00    +0.175 C 
BRANCH  26  27
ATOM     27  C   UNL     1      18.347  -0.833  24.289  0.00  0.00    +0.176 C 
ATOM     28  O   UNL     1      17.724  -1.571  23.202  0.00  0.00    -0.332 OA
ATOM     29  C   UNL     1      17.154  -2.872  23.565  0.00  0.00    +0.277 C 
ATOM     30  C   UNL     1      16.151  -2.716  24.734  0.00  0.00    +0.110 C 
ATOM     31  C   UNL     1      16.758  -1.909  25.901  0.00  0.00    +0.143 C 
ATOM     32  C   UNL     1      17.324  -0.576  25.411  0.00  0.00    +0.133 C 
BRANCH  32  33
ATOM     33  N   UNL     1      17.977   0.144  26.516  0.00  0.00    -0.308 N 
ATOM     34  H   UNL     1      18.846  -0.227  26.872  0.00  0.00    +0.149 HD
ATOM     35  C   UNL     1      17.496   1.256  27.077  0.00  0.00    +0.210 C 
ATOM     36  C   UNL     1      16.156   1.782  26.528  0.00  0.00    +0.109 C 
ATOM     37  O   UNL     1      18.072   1.847  27.992  0.00  0.00    -0.276 OA
ENDBRANCH  32  33
BRANCH  29  38
ATOM     38  C   UNL     1      18.265  -3.863  23.968  0.00  0.00    +0.414 C 
ATOM     39  O   UNL     1      19.372  -3.804  23.434  0.00  0.00    -0.240 OA
ATOM     40  O   UNL     1      18.055  -4.722  24.826  0.00  0.00    -0.240 OA
ENDBRANCH  29  38
BRANCH  29  41
ATOM     41  O   UNL     1      16.436  -3.385  22.413  0.00  0.00    -0.343 OA
ATOM     42  C   UNL     1      15.327  -4.265  22.724  0.00  0.00    +0.198 C 
ENDBRANCH  29  41
BRANCH  31  43
ATOM     43  O   UNL     1      15.756  -1.660  26.888  0.00  0.00    -0.390 OA
ATOM     44  H   UNL     1      15.043  -2.296  26.788  0.00  0.00    +0.210 HD
ENDBRANCH  31  43
ENDBRANCH  26  27
BRANCH  26  45
ATOM     45  O   UNL     1      19.934   0.993  24.623  0.00  0.00    -0.387 OA
ATOM     46  H   UNL     1      20.631   0.355  24.791  0.00  0.00    +0.210 HD
ENDBRANCH  26  45
ENDBRANCH   1  26
TORSDOF 15
