REMARK VINA RESULT:    -6.744      5.207      8.151
REMARK INTER + INTRA:         -13.500
REMARK INTER:                 -11.254
REMARK INTRA:                  -2.246
REMARK UNBOUND:                -1.828
REMARK  Name = lig_assembled_70.pdb
REMARK  16 active torsions:
REMARK  status: ('A' for Active; 'I' for Inactive)
REMARK    1  A    between atoms: _2  and  _10
REMARK    2  A    between atoms: _5  and  _22
REMARK    3  A    between atoms: _7  and  _8
REMARK    4  A    between atoms: _7  and  _22
REMARK    5  A    between atoms: _18  and  _38
REMARK    6  A    between atoms: _20  and  _26
REMARK    7  A    between atoms: _21  and  _25
REMARK    8  A    between atoms: _25  and  _26
REMARK    9  A    between atoms: _28  and  _29
REMARK   10  A    between atoms: _30  and  _31
REMARK   11  A    between atoms: _32  and  _34
REMARK   12  A    between atoms: _34  and  _35
REMARK   13  A    between atoms: _34  and  _36
REMARK   14  A    between atoms: _36  and  _37
REMARK   15  A    between atoms: _36  and  _38
REMARK   16  A    between atoms: _39  and  _41
REMARK                            x       y       z     vdW  Elec       q    Type
REMARK                         _______ _______ _______ _____ _____    ______ ____
ROOT
ATOM      1  C   UNL     1      -1.222   3.384  31.745  0.00  0.00    +0.163 C 
ENDROOT
BRANCH   1   2
ATOM      2  O   UNL     1      -1.748   2.886  32.987  0.00  0.00    -0.388 OA
ATOM      3  H   UNL     1      -2.470   3.449  33.278  0.00  0.00    +0.210 HD
ENDBRANCH   1   2
BRANCH   1   4
ATOM      4  C   UNL     1       0.189   2.849  31.525  0.00  0.00    +0.141 C 
BRANCH   4   7
ATOM      5  C   UNL     1       1.785   2.718  29.642  0.00  0.00    +0.401 C 
ATOM      6  O   UNL     1       2.783   2.715  30.366  0.00  0.00    -0.226 OA
ATOM      7  N   UNL     1       0.533   2.785  30.099  0.00  0.00    -0.279 N 
ATOM      8  H   UNL     1      -0.220   2.791  29.426  0.00  0.00    +0.152 HD
BRANCH   5   9
ATOM      9  O   UNL     1       1.954   2.651  28.224  0.00  0.00    -0.444 OA
BRANCH   9  10
ATOM     10  C   UNL     1       0.760   3.100  27.578  0.00  0.00    +0.292 C 
BRANCH  10  12
ATOM     11  N   UNL     1       2.270   3.984  25.823  0.00  0.00    -0.131 NA
ATOM     12  C   UNL     1       1.046   3.504  26.189  0.00  0.00    +0.121 A 
ATOM     13  C   UNL     1       0.225   3.484  25.086  0.00  0.00    +0.143 A 
ATOM     14  N   UNL     1       1.003   3.953  24.054  0.00  0.00    -0.218 N 
ATOM     15  N   UNL     1       2.234   4.261  24.525  0.00  0.00    -0.060 NA
BRANCH  14  16
ATOM     16  C   UNL     1       0.660   4.096  22.693  0.00  0.00    +0.086 A 
ATOM     17  C   UNL     1      -0.535   4.693  22.329  0.00  0.00    +0.139 A 
ATOM     18  N   UNL     1      -0.907   4.904  21.040  0.00  0.00    -0.253 NA
ATOM     19  C   UNL     1      -0.067   4.519  20.062  0.00  0.00    +0.071 A 
ATOM     20  C   UNL     1       1.164   3.888  20.338  0.00  0.00    +0.002 A 
ATOM     21  C   UNL     1       2.018   3.500  19.289  0.00  0.00    +0.010 A 
ATOM     22  C   UNL     1       1.666   3.754  17.967  0.00  0.00    +0.001 A 
ATOM     23  C   UNL     1       0.458   4.383  17.689  0.00  0.00    +0.002 A 
ATOM     24  C   UNL     1      -0.396   4.752  18.733  0.00  0.00    +0.028 A 
ATOM     25  C   UNL     1       1.516   3.672  21.675  0.00  0.00    +0.039 A 
ENDBRANCH  14  16
ENDBRANCH  10  12
ENDBRANCH   9  10
ENDBRANCH   5   9
ENDBRANCH   4   7
ENDBRANCH   1   4
BRANCH   1  26
ATOM     26  C   UNL     1      -1.197   4.922  31.736  0.00  0.00    +0.175 C 
BRANCH  26  27
ATOM     27  C   UNL     1      -2.610   5.523  31.751  0.00  0.00    +0.176 C 
ATOM     28  O   UNL     1      -3.153   5.354  33.089  0.00  0.00    -0.332 OA
ATOM     29  C   UNL     1      -4.464   5.967  33.323  0.00  0.00    +0.277 C 
ATOM     30  C   UNL     1      -5.489   5.468  32.276  0.00  0.00    +0.110 C 
ATOM     31  C   UNL     1      -4.943   5.598  30.838  0.00  0.00    +0.143 C 
ATOM     32  C   UNL     1      -3.574   4.929  30.708  0.00  0.00    +0.133 C 
BRANCH  32  33
ATOM     33  N   UNL     1      -3.026   5.135  29.358  0.00  0.00    -0.308 N 
ATOM     34  H   UNL     1      -2.749   6.072  29.100  0.00  0.00    +0.149 HD
ATOM     35  C   UNL     1      -2.872   4.166  28.453  0.00  0.00    +0.210 C 
ATOM     36  C   UNL     1      -3.328   2.754  28.868  0.00  0.00    +0.109 C 
ATOM     37  O   UNL     1      -2.396   4.365  27.334  0.00  0.00    -0.276 OA
ENDBRANCH  32  33
BRANCH  29  38
ATOM     38  C   UNL     1      -4.368   7.505  33.259  0.00  0.00    +0.414 C 
ATOM     39  O   UNL     1      -5.334   8.172  32.888  0.00  0.00    -0.240 OA
ATOM     40  O   UNL     1      -3.327   8.080  33.578  0.00  0.00    -0.240 OA
ENDBRANCH  29  38
BRANCH  31  41
ATOM     41  O   UNL     1      -5.853   4.990  29.920  0.00  0.00    -0.390 OA
ATOM     42  H   UNL     1      -6.526   4.508  30.407  0.00  0.00    +0.210 HD
ENDBRANCH  31  41
BRANCH  29  43
ATOM     43  O   UNL     1      -4.921   5.561  34.639  0.00  0.00    -0.343 OA
ATOM     44  C   UNL     1      -6.355   5.389  34.764  0.00  0.00    +0.198 C 
ENDBRANCH  29  43
ENDBRANCH  26  27
BRANCH  26  45
ATOM     45  O   UNL     1      -0.466   5.399  30.588  0.00  0.00    -0.387 OA
ATOM     46  H   UNL     1      -0.588   4.791  29.855  0.00  0.00    +0.210 HD
ENDBRANCH  26  45
ENDBRANCH   1  26
TORSDOF 14
