REMARK VINA RESULT:    -6.459      2.261      3.678
REMARK INTER + INTRA:         -13.007
REMARK INTER:                 -11.179
REMARK INTRA:                  -1.828
REMARK UNBOUND:                -1.828
REMARK  Name = lig_assembled_70.pdb
REMARK  16 active torsions:
REMARK  status: ('A' for Active; 'I' for Inactive)
REMARK    1  A    between atoms: _2  and  _10
REMARK    2  A    between atoms: _5  and  _22
REMARK    3  A    between atoms: _7  and  _8
REMARK    4  A    between atoms: _7  and  _22
REMARK    5  A    between atoms: _18  and  _38
REMARK    6  A    between atoms: _20  and  _26
REMARK    7  A    between atoms: _21  and  _25
REMARK    8  A    between atoms: _25  and  _26
REMARK    9  A    between atoms: _28  and  _29
REMARK   10  A    between atoms: _30  and  _31
REMARK   11  A    between atoms: _32  and  _34
REMARK   12  A    between atoms: _34  and  _35
REMARK   13  A    between atoms: _34  and  _36
REMARK   14  A    between atoms: _36  and  _37
REMARK   15  A    between atoms: _36  and  _38
REMARK   16  A    between atoms: _39  and  _41
REMARK                            x       y       z     vdW  Elec       q    Type
REMARK                         _______ _______ _______ _____ _____    ______ ____
ROOT
ATOM      1  C   UNL     1       4.244   4.035  34.396  0.00  0.00    +0.163 C 
ENDROOT
BRANCH   1   2
ATOM      2  O   UNL     1       4.823   5.108  33.635  0.00  0.00    -0.388 OA
ATOM      3  H   UNL     1       5.641   4.809  33.230  0.00  0.00    +0.210 HD
ENDBRANCH   1   2
BRANCH   1   4
ATOM      4  C   UNL     1       2.942   3.578  33.747  0.00  0.00    +0.141 C 
BRANCH   4   7
ATOM      5  C   UNL     1       2.509   2.405  31.616  0.00  0.00    +0.401 C 
ATOM      6  O   UNL     1       1.802   1.535  32.131  0.00  0.00    -0.226 OA
ATOM      7  N   UNL     1       3.087   3.395  32.298  0.00  0.00    -0.279 N 
ATOM      8  H   UNL     1       3.657   4.055  31.789  0.00  0.00    +0.152 HD
BRANCH   5   9
ATOM      9  O   UNL     1       2.740   2.368  30.206  0.00  0.00    -0.444 OA
BRANCH   9  10
ATOM     10  C   UNL     1       1.563   2.800  29.518  0.00  0.00    +0.292 C 
BRANCH  10  12
ATOM     11  N   UNL     1       1.960   1.313  27.574  0.00  0.00    -0.131 NA
ATOM     12  C   UNL     1       1.694   2.558  28.069  0.00  0.00    +0.121 A 
ATOM     13  C   UNL     1       1.586   3.442  27.021  0.00  0.00    +0.143 A 
ATOM     14  N   UNL     1       1.782   2.682  25.891  0.00  0.00    -0.218 N 
ATOM     15  N   UNL     1       2.020   1.399  26.250  0.00  0.00    -0.060 NA
BRANCH  14  16
ATOM     16  C   UNL     1       1.735   3.090  24.542  0.00  0.00    +0.086 A 
ATOM     17  C   UNL     1       1.696   4.436  24.216  0.00  0.00    +0.139 A 
ATOM     18  N   UNL     1       1.696   4.899  22.940  0.00  0.00    -0.253 NA
ATOM     19  C   UNL     1       1.745   4.005  21.935  0.00  0.00    +0.071 A 
ATOM     20  C   UNL     1       1.770   2.615  22.172  0.00  0.00    +0.002 A 
ATOM     21  C   UNL     1       1.822   1.709  21.097  0.00  0.00    +0.010 A 
ATOM     22  C   UNL     1       1.869   2.176  19.787  0.00  0.00    +0.001 A 
ATOM     23  C   UNL     1       1.853   3.545  19.548  0.00  0.00    +0.002 A 
ATOM     24  C   UNL     1       1.784   4.442  20.618  0.00  0.00    +0.028 A 
ATOM     25  C   UNL     1       1.756   2.165  23.498  0.00  0.00    +0.039 A 
ENDBRANCH  14  16
ENDBRANCH  10  12
ENDBRANCH   9  10
ENDBRANCH   5   9
ENDBRANCH   4   7
ENDBRANCH   1   4
BRANCH   1  26
ATOM     26  C   UNL     1       3.971   4.474  35.845  0.00  0.00    +0.175 C 
BRANCH  26  27
ATOM     27  C   UNL     1       5.067   5.404  36.384  0.00  0.00    +0.176 C 
ATOM     28  O   UNL     1       6.353   4.869  35.966  0.00  0.00    -0.332 OA
ATOM     29  C   UNL     1       7.521   5.689  36.302  0.00  0.00    +0.277 C 
ATOM     30  C   UNL     1       7.549   5.992  37.820  0.00  0.00    +0.110 C 
ATOM     31  C   UNL     1       6.193   6.534  38.318  0.00  0.00    +0.143 C 
ATOM     32  C   UNL     1       5.048   5.606  37.910  0.00  0.00    +0.133 C 
BRANCH  32  33
ATOM     33  N   UNL     1       3.753   6.176  38.314  0.00  0.00    -0.308 N 
ATOM     34  H   UNL     1       3.435   7.008  37.837  0.00  0.00    +0.149 HD
ATOM     35  C   UNL     1       2.971   5.667  39.270  0.00  0.00    +0.210 C 
ATOM     36  C   UNL     1       3.497   4.414  39.996  0.00  0.00    +0.109 C 
ATOM     37  O   UNL     1       1.885   6.158  39.577  0.00  0.00    -0.276 OA
ENDBRANCH  32  33
BRANCH  29  38
ATOM     38  C   UNL     1       7.505   7.013  35.512  0.00  0.00    +0.414 C 
ATOM     39  O   UNL     1       7.104   7.037  34.349  0.00  0.00    -0.240 OA
ATOM     40  O   UNL     1       7.894   8.058  36.036  0.00  0.00    -0.240 OA
ENDBRANCH  29  38
BRANCH  31  41
ATOM     41  O   UNL     1       6.215   6.657  39.741  0.00  0.00    -0.390 OA
ATOM     42  H   UNL     1       5.316   6.669  40.076  0.00  0.00    +0.210 HD
ENDBRANCH  31  41
BRANCH  29  43
ATOM     43  O   UNL     1       8.712   4.932  35.965  0.00  0.00    -0.343 OA
ATOM     44  C   UNL     1       8.497   3.825  35.054  0.00  0.00    +0.198 C 
ENDBRANCH  29  43
ENDBRANCH  26  27
BRANCH  26  45
ATOM     45  O   UNL     1       3.837   3.318  36.697  0.00  0.00    -0.387 OA
ATOM     46  H   UNL     1       3.416   2.607  36.208  0.00  0.00    +0.210 HD
ENDBRANCH  26  45
ENDBRANCH   1  26
TORSDOF 14
