REMARK VINA RESULT:    -5.626     21.682     24.445
REMARK INTER + INTRA:         -14.110
REMARK INTER:                 -10.739
REMARK INTRA:                  -3.371
REMARK UNBOUND:                -2.564
REMARK  Name = lig_assembled_74.pdb
REMARK  24 active torsions:
REMARK  status: ('A' for Active; 'I' for Inactive)
REMARK    1  A    between atoms: _2  and  _9
REMARK    2  A    between atoms: _4  and  _22
REMARK    3  A    between atoms: _5  and  _14
REMARK    4  A    between atoms: _6  and  _7
REMARK    5  A    between atoms: _6  and  _22
REMARK    6  A    between atoms: _9  and  _10
REMARK    7  A    between atoms: _10  and  _11
REMARK    8  A    between atoms: _10  and  _13
REMARK    9  A    between atoms: _11  and  _12
REMARK   10  A    between atoms: _12  and  _16
REMARK   11  A    between atoms: _13  and  _14
REMARK   12  A    between atoms: _14  and  _15
REMARK   13  A    between atoms: _18  and  _38
REMARK   14  A    between atoms: _20  and  _26
REMARK   15  A    between atoms: _21  and  _25
REMARK   16  A    between atoms: _25  and  _26
REMARK   17  A    between atoms: _28  and  _29
REMARK   18  A    between atoms: _30  and  _31
REMARK   19  A    between atoms: _32  and  _34
REMARK   20  A    between atoms: _34  and  _35
REMARK   21  A    between atoms: _34  and  _36
REMARK   22  A    between atoms: _36  and  _37
REMARK   23  A    between atoms: _36  and  _38
REMARK   24  A    between atoms: _39  and  _41
REMARK                            x       y       z     vdW  Elec       q    Type
REMARK                         _______ _______ _______ _____ _____    ______ ____
ROOT
ATOM      1  C   UNL     1      -5.398   7.335  22.769  0.00  0.00    +0.163 C 
ENDROOT
BRANCH   1   2
ATOM      2  O   UNL     1      -4.584   6.956  21.647  0.00  0.00    -0.388 OA
ATOM      3  H   UNL     1      -3.670   6.875  21.928  0.00  0.00    +0.210 HD
ENDBRANCH   1   2
BRANCH   1   4
ATOM      4  C   UNL     1      -6.262   8.563  22.432  0.00  0.00    +0.175 C 
BRANCH   4   5
ATOM      5  C   UNL     1      -6.617   8.627  20.939  0.00  0.00    +0.176 C 
ATOM      6  O   UNL     1      -5.444   9.099  20.220  0.00  0.00    -0.332 OA
ATOM      7  C   UNL     1      -5.562   9.124  18.759  0.00  0.00    +0.277 C 
ATOM      8  C   UNL     1      -6.803   9.945  18.332  0.00  0.00    +0.110 C 
ATOM      9  C   UNL     1      -8.070   9.501  19.092  0.00  0.00    +0.143 C 
ATOM     10  C   UNL     1      -7.834   9.509  20.603  0.00  0.00    +0.133 C 
BRANCH  10  11
ATOM     11  N   UNL     1      -9.019   9.001  21.313  0.00  0.00    -0.308 N 
ATOM     12  H   UNL     1      -9.327   8.062  21.104  0.00  0.00    +0.149 HD
ATOM     13  C   UNL     1      -9.714   9.701  22.214  0.00  0.00    +0.210 C 
ATOM     14  C   UNL     1      -9.234  11.138  22.490  0.00  0.00    +0.109 C 
ATOM     15  O   UNL     1     -10.694   9.245  22.803  0.00  0.00    -0.276 OA
ENDBRANCH  10  11
BRANCH   7  16
ATOM     16  C   UNL     1      -5.672   7.692  18.195  0.00  0.00    +0.414 C 
ATOM     17  O   UNL     1      -6.452   7.446  17.276  0.00  0.00    -0.240 OA
ATOM     18  O   UNL     1      -4.982   6.784  18.658  0.00  0.00    -0.240 OA
ENDBRANCH   7  16
BRANCH   9  19
ATOM     19  O   UNL     1      -9.152  10.380  18.781  0.00  0.00    -0.390 OA
ATOM     20  H   UNL     1      -9.870   9.878  18.387  0.00  0.00    +0.210 HD
ENDBRANCH   9  19
BRANCH   7  21
ATOM     21  O   UNL     1      -4.379   9.770  18.224  0.00  0.00    -0.343 OA
ATOM     22  C   UNL     1      -4.535  10.329  16.895  0.00  0.00    +0.198 C 
ENDBRANCH   7  21
ENDBRANCH   4   5
BRANCH   4  23
ATOM     23  O   UNL     1      -5.587   9.771  22.834  0.00  0.00    -0.387 OA
ATOM     24  H   UNL     1      -6.152  10.271  23.428  0.00  0.00    +0.210 HD
ENDBRANCH   4  23
ENDBRANCH   1   4
BRANCH   1  25
ATOM     25  C   UNL     1      -6.300   6.174  23.176  0.00  0.00    +0.141 C 
BRANCH  25  28
ATOM     26  C   UNL     1      -5.415   3.870  23.050  0.00  0.00    +0.401 C 
ATOM     27  O   UNL     1      -5.954   3.622  21.969  0.00  0.00    -0.226 OA
ATOM     28  N   UNL     1      -5.528   5.036  23.689  0.00  0.00    -0.279 N 
ATOM     29  H   UNL     1      -5.056   5.141  24.576  0.00  0.00    +0.152 HD
BRANCH  26  30
ATOM     30  O   UNL     1      -4.619   2.862  23.678  0.00  0.00    -0.444 OA
BRANCH  30  31
ATOM     31  C   UNL     1      -3.437   3.455  24.221  0.00  0.00    +0.292 C 
BRANCH  31  33
ATOM     32  N   UNL     1      -2.469   5.551  23.306  0.00  0.00    -0.131 NA
ATOM     33  C   UNL     1      -2.705   4.207  23.183  0.00  0.00    +0.120 A 
ATOM     34  C   UNL     1      -2.091   3.746  22.038  0.00  0.00    +0.137 A 
ATOM     35  N   UNL     1      -1.352   4.816  21.618  0.00  0.00    -0.251 N 
ATOM     36  N   UNL     1      -1.657   5.920  22.324  0.00  0.00    -0.065 NA
BRANCH  35  37
ATOM     37  C   UNL     1      -0.151   4.780  20.808  0.00  0.00    +0.149 C 
BRANCH  37  38
ATOM     38  C   UNL     1       1.116   4.252  21.516  0.00  0.00    +0.021 C 
BRANCH  38  39
ATOM     39  C   UNL     1       1.759   5.281  22.469  0.00  0.00    +0.125 C 
BRANCH  39  40
ATOM     40  C   UNL     1       1.498   5.032  23.941  0.00  0.00    +0.305 C 
ATOM     41  O   UNL     1       2.169   4.308  24.657  0.00  0.00    -0.251 OA
BRANCH  40  42
ATOM     42  O   UNL     1       0.467   5.753  24.421  0.00  0.00    -0.481 OA
ATOM     43  H   UNL     1      -0.277   5.882  23.805  0.00  0.00    +0.295 HD
ENDBRANCH  40  42
ENDBRANCH  39  40
ENDBRANCH  38  39
BRANCH  38  44
ATOM     44  C   UNL     1       2.109   3.708  20.447  0.00  0.00    +0.009 C 
BRANCH  44  45
ATOM     45  C   UNL     1       1.506   2.766  19.384  0.00  0.00    -0.017 C 
ATOM     46  C   UNL     1       2.483   2.480  18.243  0.00  0.00    +0.007 C 
ATOM     47  C   UNL     1       1.080   1.438  20.021  0.00  0.00    +0.007 C 
ENDBRANCH  44  45
ENDBRANCH  38  44
ENDBRANCH  37  38
ENDBRANCH  35  37
ENDBRANCH  31  33
ENDBRANCH  30  31
ENDBRANCH  26  30
ENDBRANCH  25  28
ENDBRANCH   1  25
TORSDOF 20
