REMARK VINA RESULT:    -6.116      2.085      2.770
REMARK INTER + INTRA:         -12.997
REMARK INTER:                 -11.151
REMARK INTRA:                  -1.846
REMARK UNBOUND:                -2.413
REMARK  Name = lig_assembled_8.pdb
REMARK  16 active torsions:
REMARK  status: ('A' for Active; 'I' for Inactive)
REMARK    1  A    between atoms: _2  and  _9
REMARK    2  A    between atoms: _4  and  _18
REMARK    3  A    between atoms: _6  and  _7
REMARK    4  A    between atoms: _6  and  _18
REMARK    5  A    between atoms: _14  and  _34
REMARK    6  A    between atoms: _16  and  _22
REMARK    7  A    between atoms: _17  and  _21
REMARK    8  A    between atoms: _21  and  _22
REMARK    9  A    between atoms: _24  and  _25
REMARK   10  A    between atoms: _26  and  _27
REMARK   11  A    between atoms: _28  and  _30
REMARK   12  A    between atoms: _30  and  _31
REMARK   13  A    between atoms: _30  and  _32
REMARK   14  A    between atoms: _32  and  _33
REMARK   15  A    between atoms: _32  and  _34
REMARK   16  A    between atoms: _35  and  _37
REMARK                            x       y       z     vdW  Elec       q    Type
REMARK                         _______ _______ _______ _____ _____    ______ ____
ROOT
ATOM      1  C   UNL     1       5.146   2.966  32.444  0.00  0.00    +0.163 C 
ENDROOT
BRANCH   1   2
ATOM      2  O   UNL     1       4.237   3.885  33.071  0.00  0.00    -0.388 OA
ATOM      3  H   UNL     1       3.520   4.091  32.465  0.00  0.00    +0.210 HD
ENDBRANCH   1   2
BRANCH   1   4
ATOM      4  C   UNL     1       4.640   1.537  32.609  0.00  0.00    +0.141 C 
BRANCH   4   7
ATOM      5  C   UNL     1       4.411   0.150  30.577  0.00  0.00    +0.401 C 
ATOM      6  O   UNL     1       5.511  -0.391  30.708  0.00  0.00    -0.226 OA
ATOM      7  N   UNL     1       3.926   1.067  31.415  0.00  0.00    -0.279 N 
ATOM      8  H   UNL     1       3.017   1.461  31.218  0.00  0.00    +0.152 HD
BRANCH   5   9
ATOM      9  O   UNL     1       3.588  -0.208  29.463  0.00  0.00    -0.444 OA
BRANCH   9  10
ATOM     10  C   UNL     1       2.251   0.245  29.691  0.00  0.00    +0.292 C 
BRANCH  10  12
ATOM     11  N   UNL     1       2.060   2.697  29.494  0.00  0.00    -0.131 NA
ATOM     12  C   UNL     1       1.988   1.470  28.915  0.00  0.00    +0.121 A 
ATOM     13  C   UNL     1       1.657   1.623  27.588  0.00  0.00    +0.143 A 
ATOM     14  N   UNL     1       1.557   2.989  27.387  0.00  0.00    -0.219 N 
ATOM     15  N   UNL     1       1.793   3.605  28.566  0.00  0.00    -0.060 NA
BRANCH  14  16
ATOM     16  C   UNL     1       1.274   3.682  26.169  0.00  0.00    +0.081 A 
ATOM     17  C   UNL     1       2.295   3.759  25.195  0.00  0.00    +0.029 A 
ATOM     18  C   UNL     1       2.106   4.438  23.988  0.00  0.00    +0.002 A 
ATOM     19  C   UNL     1       0.894   5.055  23.722  0.00  0.00    +0.001 A 
ATOM     20  C   UNL     1      -0.130   4.987  24.663  0.00  0.00    +0.017 A 
ATOM     21  C   UNL     1       0.042   4.305  25.883  0.00  0.00    +0.043 A 
ATOM     22 BR   UNL     1      -1.501   4.345  27.001  0.00  0.00    -0.048 Br
ENDBRANCH  14  16
ENDBRANCH  10  12
ENDBRANCH   9  10
ENDBRANCH   5   9
ENDBRANCH   4   7
ENDBRANCH   1   4
BRANCH   1  23
ATOM     23  C   UNL     1       6.555   3.086  33.051  0.00  0.00    +0.175 C 
BRANCH  23  24
ATOM     24  C   UNL     1       6.550   3.869  34.372  0.00  0.00    +0.176 C 
ATOM     25  O   UNL     1       6.351   5.275  34.058  0.00  0.00    -0.332 OA
ATOM     26  C   UNL     1       6.213   6.169  35.212  0.00  0.00    +0.277 C 
ATOM     27  C   UNL     1       7.423   6.011  36.166  0.00  0.00    +0.110 C 
ATOM     28  C   UNL     1       7.693   4.530  36.503  0.00  0.00    +0.143 C 
ATOM     29  C   UNL     1       7.816   3.691  35.231  0.00  0.00    +0.133 C 
BRANCH  29  30
ATOM     30  N   UNL     1       7.987   2.269  35.566  0.00  0.00    -0.308 N 
ATOM     31  H   UNL     1       7.206   1.787  35.990  0.00  0.00    +0.149 HD
ATOM     32  C   UNL     1       9.105   1.572  35.346  0.00  0.00    +0.210 C 
ATOM     33  C   UNL     1      10.285   2.341  34.722  0.00  0.00    +0.109 C 
ATOM     34  O   UNL     1       9.215   0.378  35.624  0.00  0.00    -0.276 OA
ENDBRANCH  29  30
BRANCH  26  35
ATOM     35  C   UNL     1       4.908   5.872  35.980  0.00  0.00    +0.414 C 
ATOM     36  O   UNL     1       3.951   5.360  35.402  0.00  0.00    -0.240 OA
ATOM     37  O   UNL     1       4.813   6.145  37.177  0.00  0.00    -0.240 OA
ENDBRANCH  26  35
BRANCH  28  38
ATOM     38  O   UNL     1       8.900   4.420  37.258  0.00  0.00    -0.390 OA
ATOM     39  H   UNL     1       9.206   5.297  37.502  0.00  0.00    +0.210 HD
ENDBRANCH  28  38
BRANCH  26  40
ATOM     40  O   UNL     1       6.192   7.534  34.722  0.00  0.00    -0.343 OA
ATOM     41  C   UNL     1       7.490   8.083  34.381  0.00  0.00    +0.198 C 
ENDBRANCH  26  40
ENDBRANCH  23  24
BRANCH  23  42
ATOM     42  O   UNL     1       7.450   3.708  32.108  0.00  0.00    -0.387 OA
ATOM     43  H   UNL     1       8.357   3.586  32.399  0.00  0.00    +0.210 HD
ENDBRANCH  23  42
ENDBRANCH   1  23
TORSDOF 14
