REMARK VINA RESULT:    -6.767      1.630      2.198
REMARK INTER + INTRA:         -13.796
REMARK INTER:                 -12.190
REMARK INTRA:                  -1.607
REMARK UNBOUND:                -1.294
REMARK  Name = lig_assembled_24.pdb
REMARK  19 active torsions:
REMARK  status: ('A' for Active; 'I' for Inactive)
REMARK    1  A    between atoms: _2  and  _9
REMARK    2  A    between atoms: _4  and  _21
REMARK    3  A    between atoms: _6  and  _7
REMARK    4  A    between atoms: _6  and  _21
REMARK    5  A    between atoms: _9  and  _10
REMARK    6  A    between atoms: _13  and  _16
REMARK    7  A    between atoms: _14  and  _16
REMARK    8  A    between atoms: _17  and  _37
REMARK    9  A    between atoms: _19  and  _25
REMARK   10  A    between atoms: _20  and  _24
REMARK   11  A    between atoms: _24  and  _25
REMARK   12  A    between atoms: _27  and  _28
REMARK   13  A    between atoms: _29  and  _30
REMARK   14  A    between atoms: _31  and  _33
REMARK   15  A    between atoms: _33  and  _34
REMARK   16  A    between atoms: _33  and  _35
REMARK   17  A    between atoms: _35  and  _36
REMARK   18  A    between atoms: _35  and  _37
REMARK   19  A    between atoms: _38  and  _40
REMARK                            x       y       z     vdW  Elec       q    Type
REMARK                         _______ _______ _______ _____ _____    ______ ____
ROOT
ATOM      1  C   UNL     1       3.022   3.415  32.510  0.00  0.00    +0.163 C 
ENDROOT
BRANCH   1   2
ATOM      2  O   UNL     1       3.283   4.770  32.109  0.00  0.00    -0.388 OA
ATOM      3  H   UNL     1       3.903   5.172  32.722  0.00  0.00    +0.210 HD
ENDBRANCH   1   2
BRANCH   1   4
ATOM      4  C   UNL     1       3.377   3.201  33.991  0.00  0.00    +0.175 C 
BRANCH   4   5
ATOM      5  C   UNL     1       4.892   3.240  34.234  0.00  0.00    +0.176 C 
ATOM      6  O   UNL     1       5.340   4.612  34.053  0.00  0.00    -0.332 OA
ATOM      7  C   UNL     1       6.753   4.862  34.349  0.00  0.00    +0.277 C 
ATOM      8  C   UNL     1       7.655   3.905  33.532  0.00  0.00    +0.110 C 
ATOM      9  C   UNL     1       7.199   2.437  33.668  0.00  0.00    +0.143 C 
ATOM     10  C   UNL     1       5.713   2.292  33.340  0.00  0.00    +0.133 C 
BRANCH  10  11
ATOM     11  N   UNL     1       5.270   0.905  33.558  0.00  0.00    -0.308 N 
ATOM     12  H   UNL     1       5.295   0.545  34.501  0.00  0.00    +0.149 HD
ATOM     13  C   UNL     1       4.837   0.093  32.590  0.00  0.00    +0.210 C 
ATOM     14  C   UNL     1       4.836   0.663  31.159  0.00  0.00    +0.109 C 
ATOM     15  O   UNL     1       4.459  -1.060  32.804  0.00  0.00    -0.276 OA
ENDBRANCH  10  11
BRANCH   7  16
ATOM     16  C   UNL     1       7.038   4.679  35.854  0.00  0.00    +0.414 C 
ATOM     17  O   UNL     1       6.208   5.036  36.690  0.00  0.00    -0.240 OA
ATOM     18  O   UNL     1       8.095   4.174  36.233  0.00  0.00    -0.240 OA
ENDBRANCH   7  16
BRANCH   7  19
ATOM     19  O   UNL     1       7.060   6.225  33.957  0.00  0.00    -0.343 OA
ATOM     20  C   UNL     1       6.047   7.204  34.302  0.00  0.00    +0.198 C 
ENDBRANCH   7  19
BRANCH   9  21
ATOM     21  O   UNL     1       7.959   1.612  32.784  0.00  0.00    -0.390 OA
ATOM     22  H   UNL     1       8.108   0.756  33.193  0.00  0.00    +0.210 HD
ENDBRANCH   9  21
ENDBRANCH   4   5
BRANCH   4  23
ATOM     23  O   UNL     1       2.830   1.952  34.458  0.00  0.00    -0.387 OA
ATOM     24  H   UNL     1       1.873   1.976  34.393  0.00  0.00    +0.210 HD
ENDBRANCH   4  23
ENDBRANCH   1   4
BRANCH   1  25
ATOM     25  C   UNL     1       1.552   3.078  32.284  0.00  0.00    +0.141 C 
BRANCH  25  28
ATOM     26  C   UNL     1       0.915   3.175  29.898  0.00  0.00    +0.401 C 
ATOM     27  O   UNL     1       1.278   2.022  29.658  0.00  0.00    -0.226 OA
ATOM     28  N   UNL     1       1.012   3.752  31.097  0.00  0.00    -0.279 N 
ATOM     29  H   UNL     1       0.696   4.707  31.194  0.00  0.00    +0.152 HD
BRANCH  26  30
ATOM     30  O   UNL     1       0.357   3.963  28.843  0.00  0.00    -0.444 OA
BRANCH  30  31
ATOM     31  C   UNL     1       0.164   3.144  27.687  0.00  0.00    +0.292 C 
BRANCH  31  33
ATOM     32  N   UNL     1      -0.548   4.968  26.173  0.00  0.00    -0.131 NA
ATOM     33  C   UNL     1       0.316   3.945  26.458  0.00  0.00    +0.120 A 
ATOM     34  C   UNL     1       1.262   3.863  25.461  0.00  0.00    +0.137 A 
ATOM     35  N   UNL     1       0.965   4.904  24.632  0.00  0.00    -0.247 N 
ATOM     36  N   UNL     1      -0.148   5.543  25.048  0.00  0.00    -0.065 NA
BRANCH  35  37
ATOM     37  C   UNL     1       1.670   5.426  23.472  0.00  0.00    +0.180 C 
BRANCH  37  38
ATOM     38  C   UNL     1       1.192   4.885  22.146  0.00  0.00    -0.026 A 
ATOM     39  C   UNL     1      -0.026   5.310  21.602  0.00  0.00    +0.009 A 
ATOM     40  C   UNL     1      -0.460   4.805  20.372  0.00  0.00    +0.046 A 
ATOM     41  C   UNL     1       0.318   3.888  19.664  0.00  0.00    +0.120 A 
ATOM     42  C   UNL     1       1.519   3.443  20.211  0.00  0.00    +0.046 A 
ATOM     43  C   UNL     1       1.956   3.939  21.445  0.00  0.00    +0.009 A 
BRANCH  41  44
ATOM     44  O   UNL     1      -0.219   3.451  18.485  0.00  0.00    -0.495 OA
ATOM     45  C   UNL     1       0.695   2.821  17.592  0.00  0.00    +0.277 C 
ENDBRANCH  41  44
ENDBRANCH  37  38
ENDBRANCH  35  37
ENDBRANCH  31  33
ENDBRANCH  30  31
ENDBRANCH  26  30
ENDBRANCH  25  28
ENDBRANCH   1  25
TORSDOF 16
