REMARK VINA RESULT:    -6.657     11.512     15.874
REMARK INTER + INTRA:         -14.438
REMARK INTER:                 -11.906
REMARK INTRA:                  -2.532
REMARK UNBOUND:                -2.138
REMARK  Name = lig_assembled_92.pdb
REMARK  18 active torsions:
REMARK  status: ('A' for Active; 'I' for Inactive)
REMARK    1  A    between atoms: _2  and  _11
REMARK    2  A    between atoms: _3  and  _46
REMARK    3  A    between atoms: _6  and  _25
REMARK    4  A    between atoms: _8  and  _9
REMARK    5  A    between atoms: _8  and  _25
REMARK    6  A    between atoms: _14  and  _46
REMARK    7  A    between atoms: _21  and  _41
REMARK    8  A    between atoms: _23  and  _29
REMARK    9  A    between atoms: _24  and  _28
REMARK   10  A    between atoms: _28  and  _29
REMARK   11  A    between atoms: _31  and  _32
REMARK   12  A    between atoms: _33  and  _34
REMARK   13  A    between atoms: _35  and  _37
REMARK   14  A    between atoms: _37  and  _38
REMARK   15  A    between atoms: _37  and  _39
REMARK   16  A    between atoms: _39  and  _40
REMARK   17  A    between atoms: _39  and  _41
REMARK   18  A    between atoms: _42  and  _44
REMARK                            x       y       z     vdW  Elec       q    Type
REMARK                         _______ _______ _______ _____ _____    ______ ____
ROOT
ATOM      1  C   UNL     1      11.691   1.581  35.936  0.00  0.00    +0.401 C 
ATOM      2  O   UNL     1      11.767   1.712  34.712  0.00  0.00    -0.226 OA
ATOM      3  N   UNL     1      10.553   1.349  36.591  0.00  0.00    -0.279 N 
ATOM      4  H   UNL     1      10.593   1.247  37.596  0.00  0.00    +0.152 HD
ENDROOT
BRANCH   3   5
ATOM      5  C   UNL     1       9.244   1.235  35.935  0.00  0.00    +0.141 C 
BRANCH   5   6
ATOM      6  C   UNL     1       8.382   2.472  36.167  0.00  0.00    +0.163 C 
BRANCH   6   7
ATOM      7  O   UNL     1       8.514   2.915  37.528  0.00  0.00    -0.388 OA
ATOM      8  H   UNL     1       8.121   3.786  37.620  0.00  0.00    +0.210 HD
ENDBRANCH   6   7
BRANCH   6   9
ATOM      9  C   UNL     1       8.799   3.580  35.185  0.00  0.00    +0.175 C 
BRANCH   9  10
ATOM     10  C   UNL     1       7.668   4.589  34.938  0.00  0.00    +0.176 C 
ATOM     11  O   UNL     1       7.494   5.371  36.152  0.00  0.00    -0.332 OA
ATOM     12  C   UNL     1       6.521   6.464  36.067  0.00  0.00    +0.277 C 
ATOM     13  C   UNL     1       5.148   5.931  35.588  0.00  0.00    +0.110 C 
ATOM     14  C   UNL     1       5.286   5.066  34.318  0.00  0.00    +0.143 C 
ATOM     15  C   UNL     1       6.326   3.962  34.515  0.00  0.00    +0.133 C 
BRANCH  15  16
ATOM     16  N   UNL     1       6.511   3.200  33.270  0.00  0.00    -0.308 N 
ATOM     17  H   UNL     1       6.951   3.669  32.490  0.00  0.00    +0.149 HD
ATOM     18  C   UNL     1       6.135   1.929  33.103  0.00  0.00    +0.210 C 
ATOM     19  C   UNL     1       5.445   1.251  34.301  0.00  0.00    +0.109 C 
ATOM     20  O   UNL     1       6.316   1.311  32.053  0.00  0.00    -0.276 OA
ENDBRANCH  15  16
BRANCH  12  21
ATOM     21  C   UNL     1       7.013   7.562  35.102  0.00  0.00    +0.414 C 
ATOM     22  O   UNL     1       6.217   8.138  34.360  0.00  0.00    -0.240 OA
ATOM     23  O   UNL     1       8.204   7.872  35.063  0.00  0.00    -0.240 OA
ENDBRANCH  12  21
BRANCH  14  24
ATOM     24  O   UNL     1       4.026   4.473  33.999  0.00  0.00    -0.390 OA
ATOM     25  H   UNL     1       3.594   4.987  33.313  0.00  0.00    +0.210 HD
ENDBRANCH  14  24
BRANCH  12  26
ATOM     26  O   UNL     1       6.356   7.022  37.397  0.00  0.00    -0.343 OA
ATOM     27  C   UNL     1       7.088   6.336  38.443  0.00  0.00    +0.198 C 
ENDBRANCH  12  26
ENDBRANCH   9  10
BRANCH   9  28
ATOM     28  O   UNL     1       9.229   3.001  33.936  0.00  0.00    -0.387 OA
ATOM     29  H   UNL     1      10.154   3.210  33.789  0.00  0.00    +0.210 HD
ENDBRANCH   9  28
ENDBRANCH   6   9
ENDBRANCH   5   6
ENDBRANCH   3   5
BRANCH   1  30
ATOM     30  O   UNL     1      12.883   1.675  36.720  0.00  0.00    -0.444 OA
BRANCH  30  31
ATOM     31  C   UNL     1      13.019   3.006  37.225  0.00  0.00    +0.292 C 
BRANCH  31  33
ATOM     32  N   UNL     1      14.941   3.159  35.668  0.00  0.00    -0.131 NA
ATOM     33  C   UNL     1      13.966   3.775  36.397  0.00  0.00    +0.121 A 
ATOM     34  C   UNL     1      14.048   5.133  36.197  0.00  0.00    +0.143 A 
ATOM     35  N   UNL     1      15.082   5.302  35.305  0.00  0.00    -0.220 N 
ATOM     36  N   UNL     1      15.620   4.093  35.012  0.00  0.00    -0.060 NA
BRANCH  35  37
ATOM     37  C   UNL     1      15.546   6.503  34.712  0.00  0.00    +0.067 A 
ATOM     38  C   UNL     1      15.576   6.639  33.315  0.00  0.00    +0.030 A 
ATOM     39  C   UNL     1      16.088   7.798  32.735  0.00  0.00    +0.031 A 
ATOM     40  C   UNL     1      16.562   8.831  33.546  0.00  0.00    +0.109 A 
ATOM     41  C   UNL     1      16.529   8.715  34.938  0.00  0.00    +0.031 A 
ATOM     42  C   UNL     1      16.011   7.553  35.522  0.00  0.00    +0.030 A 
BRANCH  40  43
ATOM     43  S   UNL     1      17.344  10.222  32.774  0.00  0.00    +0.074 S 
ATOM     44  O   UNL     1      18.740  10.213  33.168  0.00  0.00    -0.150 OA
ATOM     45  O   UNL     1      16.987  10.234  31.375  0.00  0.00    -0.150 OA
BRANCH  43  46
ATOM     46  N   UNL     1      16.672  11.548  33.575  0.00  0.00    -0.194 N 
ATOM     47  H   UNL     1      15.892  11.186  34.117  0.00  0.00    +0.176 HD
ATOM     48  C   UNL     1      17.625  12.239  34.351  0.00  0.00    +0.177 A 
ATOM     49  S   UNL     1      17.805  11.985  36.031  0.00  0.00    -0.059 S 
ATOM     50  C   UNL     1      18.970  13.244  36.073  0.00  0.00    +0.068 A 
ATOM     51  C   UNL     1      19.076  13.814  34.821  0.00  0.00    +0.120 A 
ATOM     52  N   UNL     1      18.326  13.213  33.827  0.00  0.00    -0.232 NA
ENDBRANCH  43  46
ENDBRANCH  40  43
ENDBRANCH  35  37
ENDBRANCH  31  33
ENDBRANCH  30  31
ENDBRANCH   1  30
TORSDOF 16
