REMARK VINA RESULT:    -5.397      6.996     11.944
REMARK INTER + INTRA:         -12.278
REMARK INTER:                 -10.596
REMARK INTRA:                  -1.682
REMARK UNBOUND:                -2.936
REMARK  Name = lig_assembled_93.pdb
REMARK  16 active torsions:
REMARK  status: ('A' for Active; 'I' for Inactive)
REMARK    1  A    between atoms: _2  and  _9
REMARK    2  A    between atoms: _4  and  _18
REMARK    3  A    between atoms: _6  and  _7
REMARK    4  A    between atoms: _6  and  _18
REMARK    5  A    between atoms: _14  and  _34
REMARK    6  A    between atoms: _16  and  _22
REMARK    7  A    between atoms: _17  and  _21
REMARK    8  A    between atoms: _21  and  _22
REMARK    9  A    between atoms: _24  and  _25
REMARK   10  A    between atoms: _26  and  _27
REMARK   11  A    between atoms: _28  and  _30
REMARK   12  A    between atoms: _30  and  _31
REMARK   13  A    between atoms: _30  and  _32
REMARK   14  A    between atoms: _32  and  _33
REMARK   15  A    between atoms: _32  and  _34
REMARK   16  A    between atoms: _35  and  _37
REMARK                            x       y       z     vdW  Elec       q    Type
REMARK                         _______ _______ _______ _____ _____    ______ ____
ROOT
ATOM      1  C   UNL     1       9.999   3.157  35.110  0.00  0.00    +0.163 C 
ENDROOT
BRANCH   1   2
ATOM      2  O   UNL     1       9.989   2.229  34.013  0.00  0.00    -0.388 OA
ATOM      3  H   UNL     1      10.642   2.495  33.362  0.00  0.00    +0.210 HD
ENDBRANCH   1   2
BRANCH   1   4
ATOM      4  C   UNL     1      11.086   2.773  36.109  0.00  0.00    +0.141 C 
BRANCH   4   7
ATOM      5  C   UNL     1      13.272   3.244  35.057  0.00  0.00    +0.401 C 
ATOM      6  O   UNL     1      13.246   2.244  34.336  0.00  0.00    -0.226 OA
ATOM      7  N   UNL     1      12.307   3.566  35.920  0.00  0.00    -0.279 N 
ATOM      8  H   UNL     1      12.423   4.402  36.476  0.00  0.00    +0.152 HD
BRANCH   5   9
ATOM      9  O   UNL     1      14.396   4.125  34.984  0.00  0.00    -0.444 OA
BRANCH   9  10
ATOM     10  C   UNL     1      14.364   5.033  36.088  0.00  0.00    +0.292 C 
BRANCH  10  12
ATOM     11  N   UNL     1      15.678   7.033  36.692  0.00  0.00    -0.131 NA
ATOM     12  C   UNL     1      15.059   6.287  35.740  0.00  0.00    +0.121 A 
ATOM     13  C   UNL     1      15.222   6.900  34.520  0.00  0.00    +0.143 A 
ATOM     14  N   UNL     1      15.977   8.034  34.770  0.00  0.00    -0.219 N 
ATOM     15  N   UNL     1      16.222   8.084  36.098  0.00  0.00    -0.060 NA
BRANCH  14  16
ATOM     16  C   UNL     1      16.454   9.003  33.832  0.00  0.00    +0.080 A 
ATOM     17  C   UNL     1      15.650  10.145  33.604  0.00  0.00    +0.029 A 
ATOM     18  C   UNL     1      16.022  11.138  32.694  0.00  0.00    +0.002 A 
ATOM     19  C   UNL     1      17.207  11.020  31.987  0.00  0.00    +0.001 A 
ATOM     20  C   UNL     1      18.022   9.910  32.196  0.00  0.00    +0.016 A 
ATOM     21  C   UNL     1      17.663   8.899  33.113  0.00  0.00    +0.039 A 
ATOM     22  I   UNL     1      19.105   7.353  33.210  0.00  0.00    -0.042 I 
ENDBRANCH  14  16
ENDBRANCH  10  12
ENDBRANCH   9  10
ENDBRANCH   5   9
ENDBRANCH   4   7
ENDBRANCH   1   4
BRANCH   1  23
ATOM     23  C   UNL     1       8.635   3.185  35.820  0.00  0.00    +0.175 C 
BRANCH  23  24
ATOM     24  C   UNL     1       7.785   4.391  35.394  0.00  0.00    +0.176 C 
ATOM     25  O   UNL     1       7.473   5.162  36.586  0.00  0.00    -0.332 OA
ATOM     26  C   UNL     1       6.752   6.418  36.358  0.00  0.00    +0.277 C 
ATOM     27  C   UNL     1       5.457   6.158  35.550  0.00  0.00    +0.110 C 
ATOM     28  C   UNL     1       5.733   5.314  34.288  0.00  0.00    +0.143 C 
ATOM     29  C   UNL     1       6.491   4.033  34.640  0.00  0.00    +0.133 C 
BRANCH  29  30
ATOM     30  N   UNL     1       6.824   3.280  33.421  0.00  0.00    -0.308 N 
ATOM     31  H   UNL     1       7.400   3.737  32.727  0.00  0.00    +0.149 HD
ATOM     32  C   UNL     1       6.416   2.033  33.171  0.00  0.00    +0.210 C 
ATOM     33  C   UNL     1       5.520   1.374  34.236  0.00  0.00    +0.109 C 
ATOM     34  O   UNL     1       6.724   1.421  32.147  0.00  0.00    -0.276 OA
ENDBRANCH  29  30
BRANCH  26  35
ATOM     35  C   UNL     1       7.638   7.429  35.602  0.00  0.00    +0.414 C 
ATOM     36  O   UNL     1       8.802   7.618  35.954  0.00  0.00    -0.240 OA
ATOM     37  O   UNL     1       7.190   8.055  34.641  0.00  0.00    -0.240 OA
ENDBRANCH  26  35
BRANCH  28  38
ATOM     38  O   UNL     1       4.498   4.972  33.657  0.00  0.00    -0.390 OA
ATOM     39  H   UNL     1       4.374   4.020  33.690  0.00  0.00    +0.210 HD
ENDBRANCH  28  38
BRANCH  26  40
ATOM     40  O   UNL     1       6.382   6.964  37.651  0.00  0.00    -0.343 OA
ATOM     41  C   UNL     1       5.292   6.277  38.317  0.00  0.00    +0.198 C 
ENDBRANCH  26  40
ENDBRANCH  23  24
BRANCH  23  42
ATOM     42  O   UNL     1       8.819   3.188  37.250  0.00  0.00    -0.387 OA
ATOM     43  H   UNL     1       9.193   2.348  37.527  0.00  0.00    +0.210 HD
ENDBRANCH  23  42
ENDBRANCH   1  23
TORSDOF 14
