REMARK VINA RESULT:    -5.842     14.312     18.613
REMARK INTER + INTRA:         -13.890
REMARK INTER:                 -11.929
REMARK INTRA:                  -1.961
REMARK UNBOUND:                -2.754
REMARK  Name = lig_assembled_12.pdb
REMARK  19 active torsions:
REMARK  status: ('A' for Active; 'I' for Inactive)
REMARK    1  A    between atoms: _2  and  _9
REMARK    2  A    between atoms: _4  and  _21
REMARK    3  A    between atoms: _6  and  _7
REMARK    4  A    between atoms: _6  and  _21
REMARK    5  A    between atoms: _9  and  _16
REMARK    6  A    between atoms: _10  and  _11
REMARK    7  A    between atoms: _10  and  _16
REMARK    8  A    between atoms: _17  and  _37
REMARK    9  A    between atoms: _19  and  _25
REMARK   10  A    between atoms: _20  and  _24
REMARK   11  A    between atoms: _24  and  _25
REMARK   12  A    between atoms: _27  and  _28
REMARK   13  A    between atoms: _29  and  _30
REMARK   14  A    between atoms: _31  and  _33
REMARK   15  A    between atoms: _33  and  _34
REMARK   16  A    between atoms: _33  and  _35
REMARK   17  A    between atoms: _35  and  _36
REMARK   18  A    between atoms: _35  and  _37
REMARK   19  A    between atoms: _38  and  _40
REMARK                            x       y       z     vdW  Elec       q    Type
REMARK                         _______ _______ _______ _____ _____    ______ ____
ROOT
ATOM      1  C   UNL     1      18.405   5.792  23.829  0.00  0.00    +0.163 C 
ENDROOT
BRANCH   1   2
ATOM      2  O   UNL     1      17.436   5.784  22.768  0.00  0.00    -0.388 OA
ATOM      3  H   UNL     1      16.565   5.610  23.131  0.00  0.00    +0.210 HD
ENDBRANCH   1   2
BRANCH   1   4
ATOM      4  C   UNL     1      19.155   4.450  23.899  0.00  0.00    +0.175 C 
BRANCH   4   5
ATOM      5  C   UNL     1      18.409   3.415  24.754  0.00  0.00    +0.176 C 
ATOM      6  O   UNL     1      19.292   3.008  25.835  0.00  0.00    -0.332 OA
ATOM      7  C   UNL     1      18.708   2.095  26.822  0.00  0.00    +0.277 C 
ATOM      8  C   UNL     1      18.125   0.842  26.122  0.00  0.00    +0.110 C 
ATOM      9  C   UNL     1      17.204   1.225  24.944  0.00  0.00    +0.143 C 
ATOM     10  C   UNL     1      17.911   2.179  23.982  0.00  0.00    +0.133 C 
BRANCH  10  11
ATOM     11  N   UNL     1      16.995   2.605  22.912  0.00  0.00    -0.308 N 
ATOM     12  H   UNL     1      16.203   3.177  23.169  0.00  0.00    +0.149 HD
ATOM     13  C   UNL     1      17.142   2.285  21.623  0.00  0.00    +0.210 C 
ATOM     14  C   UNL     1      18.344   1.390  21.268  0.00  0.00    +0.109 C 
ATOM     15  O   UNL     1      16.366   2.668  20.747  0.00  0.00    -0.276 OA
ENDBRANCH  10  11
BRANCH   7  16
ATOM     16  C   UNL     1      17.596   2.799  27.627  0.00  0.00    +0.414 C 
ATOM     17  O   UNL     1      16.424   2.726  27.261  0.00  0.00    -0.240 OA
ATOM     18  O   UNL     1      17.871   3.439  28.643  0.00  0.00    -0.240 OA
ENDBRANCH   7  16
BRANCH   9  19
ATOM     19  O   UNL     1      16.812   0.048  24.237  0.00  0.00    -0.390 OA
ATOM     20  H   UNL     1      17.003  -0.726  24.772  0.00  0.00    +0.210 HD
ENDBRANCH   9  19
BRANCH   7  21
ATOM     21  O   UNL     1      19.765   1.667  27.719  0.00  0.00    -0.343 OA
ATOM     22  C   UNL     1      21.048   2.305  27.501  0.00  0.00    +0.198 C 
ENDBRANCH   7  21
ENDBRANCH   4   5
BRANCH   4  23
ATOM     23  O   UNL     1      20.487   4.652  24.413  0.00  0.00    -0.387 OA
ATOM     24  H   UNL     1      21.121   4.578  23.696  0.00  0.00    +0.210 HD
ENDBRANCH   4  23
ENDBRANCH   1   4
BRANCH   1  25
ATOM     25  C   UNL     1      19.405   6.923  23.615  0.00  0.00    +0.141 C 
BRANCH  25  28
ATOM     26  C   UNL     1      20.820   7.889  25.395  0.00  0.00    +0.401 C 
ATOM     27  O   UNL     1      21.869   7.421  24.945  0.00  0.00    -0.226 OA
ATOM     28  N   UNL     1      19.622   7.701  24.840  0.00  0.00    -0.279 N 
ATOM     29  H   UNL     1      18.818   8.118  25.289  0.00  0.00    +0.152 HD
BRANCH  26  30
ATOM     30  O   UNL     1      20.867   8.681  26.585  0.00  0.00    -0.444 OA
BRANCH  30  31
ATOM     31  C   UNL     1      19.786   9.617  26.579  0.00  0.00    +0.292 C 
BRANCH  31  33
ATOM     32  N   UNL     1      18.374  10.711  28.298  0.00  0.00    -0.131 NA
ATOM     33  C   UNL     1      19.104   9.626  27.886  0.00  0.00    +0.120 A 
ATOM     34  C   UNL     1      19.062   8.659  28.863  0.00  0.00    +0.139 A 
ATOM     35  N   UNL     1      18.317   9.224  29.856  0.00  0.00    -0.226 N 
ATOM     36  N   UNL     1      17.885  10.449  29.503  0.00  0.00    -0.063 NA
BRANCH  35  37
ATOM     37  C   UNL     1      17.931   8.654  31.135  0.00  0.00    +0.305 C 
BRANCH  37  38
ATOM     38  O   UNL     1      16.888   9.443  31.704  0.00  0.00    -0.353 OA
BRANCH  38  39
ATOM     39  C   UNL     1      16.434   8.903  32.938  0.00  0.00    +0.197 C 
BRANCH  39  40
ATOM     40  C   UNL     1      16.736   9.913  34.011  0.00  0.00    -0.022 A 
ATOM     41  C   UNL     1      16.585   9.582  35.365  0.00  0.00    +0.006 A 
ATOM     42  C   UNL     1      16.828  10.530  36.358  0.00  0.00    +0.000 A 
ATOM     43  C   UNL     1      17.217  11.822  36.009  0.00  0.00    +0.000 A 
ATOM     44  C   UNL     1      17.360  12.168  34.667  0.00  0.00    +0.000 A 
ATOM     45  C   UNL     1      17.118  11.219  33.672  0.00  0.00    +0.006 A 
ENDBRANCH  39  40
ENDBRANCH  38  39
ENDBRANCH  37  38
ENDBRANCH  35  37
ENDBRANCH  31  33
ENDBRANCH  30  31
ENDBRANCH  26  30
ENDBRANCH  25  28
ENDBRANCH   1  25
TORSDOF 17
