REMARK VINA RESULT:    -5.704     14.672     16.959
REMARK INTER + INTRA:         -13.178
REMARK INTER:                 -11.018
REMARK INTRA:                  -2.161
REMARK UNBOUND:                -2.805
REMARK  Name = lig_assembled_72.pdb
REMARK  20 active torsions:
REMARK  status: ('A' for Active; 'I' for Inactive)
REMARK    1  A    between atoms: _2  and  _9
REMARK    2  A    between atoms: _4  and  _17
REMARK    3  A    between atoms: _5  and  _9
REMARK    4  A    between atoms: _5  and  _12
REMARK    5  A    between atoms: _6  and  _7
REMARK    6  A    between atoms: _6  and  _17
REMARK    7  A    between atoms: _9  and  _10
REMARK    8  A    between atoms: _9  and  _11
REMARK    9  A    between atoms: _13  and  _33
REMARK   10  A    between atoms: _15  and  _21
REMARK   11  A    between atoms: _16  and  _20
REMARK   12  A    between atoms: _20  and  _21
REMARK   13  A    between atoms: _23  and  _24
REMARK   14  A    between atoms: _25  and  _26
REMARK   15  A    between atoms: _27  and  _29
REMARK   16  A    between atoms: _29  and  _30
REMARK   17  A    between atoms: _29  and  _31
REMARK   18  A    between atoms: _31  and  _32
REMARK   19  A    between atoms: _31  and  _33
REMARK   20  A    between atoms: _34  and  _36
REMARK                            x       y       z     vdW  Elec       q    Type
REMARK                         _______ _______ _______ _____ _____    ______ ____
ROOT
ATOM      1  C   UNL     1       3.998   3.702  32.713  0.00  0.00    +0.163 C 
ENDROOT
BRANCH   1   2
ATOM      2  O   UNL     1       3.122   4.049  33.798  0.00  0.00    -0.388 OA
ATOM      3  H   UNL     1       2.275   4.335  33.448  0.00  0.00    +0.210 HD
ENDBRANCH   1   2
BRANCH   1   4
ATOM      4  C   UNL     1       5.353   3.199  33.239  0.00  0.00    +0.175 C 
BRANCH   4   5
ATOM      5  C   UNL     1       5.717   3.828  34.592  0.00  0.00    +0.176 C 
ATOM      6  O   UNL     1       5.766   5.270  34.416  0.00  0.00    -0.332 OA
ATOM      7  C   UNL     1       5.998   6.050  35.636  0.00  0.00    +0.277 C 
ATOM      8  C   UNL     1       7.283   5.566  36.351  0.00  0.00    +0.110 C 
ATOM      9  C   UNL     1       7.292   4.034  36.532  0.00  0.00    +0.143 C 
ATOM     10  C   UNL     1       7.038   3.323  35.202  0.00  0.00    +0.133 C 
BRANCH  10  11
ATOM     11  N   UNL     1       6.962   1.867  35.402  0.00  0.00    -0.308 N 
ATOM     12  H   UNL     1       6.237   1.512  36.010  0.00  0.00    +0.149 HD
ATOM     13  C   UNL     1       7.789   0.985  34.834  0.00  0.00    +0.210 C 
ATOM     14  C   UNL     1       8.899   1.560  33.935  0.00  0.00    +0.109 C 
ATOM     15  O   UNL     1       7.692  -0.230  35.009  0.00  0.00    -0.276 OA
ENDBRANCH  10  11
BRANCH   7  16
ATOM     16  C   UNL     1       4.797   5.932  36.597  0.00  0.00    +0.414 C 
ATOM     17  O   UNL     1       4.943   6.143  37.800  0.00  0.00    -0.240 OA
ATOM     18  O   UNL     1       3.683   5.625  36.170  0.00  0.00    -0.240 OA
ENDBRANCH   7  16
BRANCH   9  19
ATOM     19  O   UNL     1       8.554   3.618  37.055  0.00  0.00    -0.390 OA
ATOM     20  H   UNL     1       8.945   2.966  36.468  0.00  0.00    +0.210 HD
ENDBRANCH   9  19
BRANCH   7  21
ATOM     21  O   UNL     1       6.182   7.437  35.253  0.00  0.00    -0.343 OA
ATOM     22  C   UNL     1       7.106   7.653  34.157  0.00  0.00    +0.198 C 
ENDBRANCH   7  21
ENDBRANCH   4   5
BRANCH   4  23
ATOM     23  O   UNL     1       6.390   3.464  32.273  0.00  0.00    -0.387 OA
ATOM     24  H   UNL     1       7.249   3.348  32.685  0.00  0.00    +0.210 HD
ENDBRANCH   4  23
ENDBRANCH   1   4
BRANCH   1  25
ATOM     25  C   UNL     1       3.354   2.623  31.848  0.00  0.00    +0.141 C 
BRANCH  25  28
ATOM     26  C   UNL     1       1.403   3.862  30.977  0.00  0.00    +0.401 C 
ATOM     27  O   UNL     1       0.908   4.054  32.090  0.00  0.00    -0.226 OA
ATOM     28  N   UNL     1       2.541   3.198  30.770  0.00  0.00    -0.279 N 
ATOM     29  H   UNL     1       2.861   3.084  29.819  0.00  0.00    +0.152 HD
BRANCH  26  30
ATOM     30  O   UNL     1       0.730   4.370  29.821  0.00  0.00    -0.444 OA
BRANCH  30  31
ATOM     31  C   UNL     1       0.287   3.280  29.008  0.00  0.00    +0.292 C 
BRANCH  31  33
ATOM     32  N   UNL     1       2.162   3.747  27.465  0.00  0.00    -0.131 NA
ATOM     33  C   UNL     1       0.856   3.388  27.653  0.00  0.00    +0.120 A 
ATOM     34  C   UNL     1       0.268   3.175  26.425  0.00  0.00    +0.137 A 
ATOM     35  N   UNL     1       1.269   3.420  25.525  0.00  0.00    -0.244 N 
ATOM     36  N   UNL     1       2.405   3.765  26.164  0.00  0.00    -0.065 NA
BRANCH  35  37
ATOM     37  C   UNL     1       1.213   3.340  24.058  0.00  0.00    +0.083 C 
ATOM     38  C   UNL     1      -0.206   2.922  23.627  0.00  0.00    +0.038 C 
ATOM     39  C   UNL     1       2.230   2.296  23.556  0.00  0.00    +0.038 C 
BRANCH  37  40
ATOM     40  C   UNL     1       1.523   4.712  23.397  0.00  0.00    +0.185 C 
BRANCH  40  41
ATOM     41  O   UNL     1       0.995   5.811  24.136  0.00  0.00    -0.393 OA
ATOM     42  H   UNL     1       1.344   5.716  25.048  0.00  0.00    +0.209 HD
ENDBRANCH  40  41
ENDBRANCH  37  40
ENDBRANCH  35  37
ENDBRANCH  31  33
ENDBRANCH  30  31
ENDBRANCH  26  30
ENDBRANCH  25  28
ENDBRANCH   1  25
TORSDOF 16
