REMARK VINA RESULT:    -6.468     14.368     16.620
REMARK INTER + INTRA:         -13.386
REMARK INTER:                 -10.909
REMARK INTRA:                  -2.477
REMARK UNBOUND:                -1.813
REMARK  Name = lig_assembled_41.pdb
REMARK  18 active torsions:
REMARK  status: ('A' for Active; 'I' for Inactive)
REMARK    1  A    between atoms: _2  and  _9
REMARK    2  A    between atoms: _4  and  _21
REMARK    3  A    between atoms: _6  and  _7
REMARK    4  A    between atoms: _6  and  _21
REMARK    5  A    between atoms: _10  and  _11
REMARK    6  A    between atoms: _11  and  _12
REMARK    7  A    between atoms: _17  and  _37
REMARK    8  A    between atoms: _19  and  _25
REMARK    9  A    between atoms: _20  and  _24
REMARK   10  A    between atoms: _24  and  _25
REMARK   11  A    between atoms: _27  and  _28
REMARK   12  A    between atoms: _29  and  _30
REMARK   13  A    between atoms: _31  and  _33
REMARK   14  A    between atoms: _33  and  _34
REMARK   15  A    between atoms: _33  and  _35
REMARK   16  A    between atoms: _35  and  _36
REMARK   17  A    between atoms: _35  and  _37
REMARK   18  A    between atoms: _38  and  _40
REMARK                            x       y       z     vdW  Elec       q    Type
REMARK                         _______ _______ _______ _____ _____    ______ ____
ROOT
ATOM      1  C   UNL     1      17.198   3.429  22.729  0.00  0.00    +0.163 C 
ENDROOT
BRANCH   1   2
ATOM      2  O   UNL     1      15.919   3.203  23.344  0.00  0.00    -0.388 OA
ATOM      3  H   UNL     1      15.435   2.542  22.844  0.00  0.00    +0.210 HD
ENDBRANCH   1   2
BRANCH   1   4
ATOM      4  C   UNL     1      17.288   2.661  21.414  0.00  0.00    +0.141 C 
BRANCH   4   7
ATOM      5  C   UNL     1      18.530   0.532  21.241  0.00  0.00    +0.401 C 
ATOM      6  O   UNL     1      19.488   1.031  20.645  0.00  0.00    -0.226 OA
ATOM      7  N   UNL     1      17.456   1.219  21.633  0.00  0.00    -0.279 N 
ATOM      8  H   UNL     1      16.717   0.719  22.107  0.00  0.00    +0.152 HD
BRANCH   5   9
ATOM      9  O   UNL     1      18.548  -0.867  21.537  0.00  0.00    -0.444 OA
BRANCH   9  10
ATOM     10  C   UNL     1      18.521  -1.056  22.954  0.00  0.00    +0.292 C 
BRANCH  10  12
ATOM     11  N   UNL     1      18.843  -3.434  23.523  0.00  0.00    -0.131 NA
ATOM     12  C   UNL     1      17.997  -2.394  23.284  0.00  0.00    +0.121 A 
ATOM     13  C   UNL     1      16.698  -2.829  23.427  0.00  0.00    +0.143 A 
ATOM     14  N   UNL     1      16.796  -4.184  23.651  0.00  0.00    -0.219 N 
ATOM     15  N   UNL     1      18.112  -4.503  23.799  0.00  0.00    -0.060 NA
BRANCH  14  16
ATOM     16  C   UNL     1      15.787  -5.170  23.846  0.00  0.00    +0.077 A 
ATOM     17  C   UNL     1      15.347  -5.632  25.104  0.00  0.00    +0.043 A 
ATOM     18  C   UNL     1      14.373  -6.652  25.150  0.00  0.00    +0.013 A 
ATOM     19  C   UNL     1      13.850  -7.209  23.980  0.00  0.00    +0.001 A 
ATOM     20  C   UNL     1      14.264  -6.737  22.744  0.00  0.00    +0.002 A 
ATOM     21  C   UNL     1      15.214  -5.720  22.676  0.00  0.00    +0.028 A 
BRANCH  17  22
ATOM     22  C   UNL     1      15.687  -4.971  26.401  0.00  0.00    +0.162 C 
ATOM     23  O   UNL     1      16.685  -5.336  27.019  0.00  0.00    -0.292 OA
ATOM     24  C   UNL     1      14.815  -3.864  26.943  0.00  0.00    +0.091 C 
ENDBRANCH  17  22
ENDBRANCH  14  16
ENDBRANCH  10  12
ENDBRANCH   9  10
ENDBRANCH   5   9
ENDBRANCH   4   7
ENDBRANCH   1   4
BRANCH   1  25
ATOM     25  C   UNL     1      18.342   2.989  23.660  0.00  0.00    +0.175 C 
BRANCH  25  26
ATOM     26  C   UNL     1      18.427   3.860  24.922  0.00  0.00    +0.176 C 
ATOM     27  O   UNL     1      19.747   4.469  24.956  0.00  0.00    -0.332 OA
ATOM     28  C   UNL     1      19.976   5.425  26.043  0.00  0.00    +0.277 C 
ATOM     29  C   UNL     1      19.666   4.771  27.412  0.00  0.00    +0.110 C 
ATOM     30  C   UNL     1      18.285   4.082  27.415  0.00  0.00    +0.143 C 
ATOM     31  C   UNL     1      18.154   3.112  26.240  0.00  0.00    +0.133 C 
BRANCH  31  32
ATOM     32  N   UNL     1      16.804   2.528  26.203  0.00  0.00    -0.308 N 
ATOM     33  H   UNL     1      16.022   3.154  26.075  0.00  0.00    +0.149 HD
ATOM     34  C   UNL     1      16.545   1.223  26.328  0.00  0.00    +0.210 C 
ATOM     35  C   UNL     1      17.756   0.298  26.548  0.00  0.00    +0.109 C 
ATOM     36  O   UNL     1      15.405   0.760  26.278  0.00  0.00    -0.276 OA
ENDBRANCH  31  32
BRANCH  28  37
ATOM     37  C   UNL     1      19.099   6.681  25.861  0.00  0.00    +0.414 C 
ATOM     38  O   UNL     1      18.652   6.970  24.752  0.00  0.00    -0.240 OA
ATOM     39  O   UNL     1      18.838   7.405  26.823  0.00  0.00    -0.240 OA
ENDBRANCH  28  37
BRANCH  30  40
ATOM     40  O   UNL     1      18.105   3.367  28.638  0.00  0.00    -0.390 OA
ATOM     41  H   UNL     1      17.217   3.518  28.970  0.00  0.00    +0.210 HD
ENDBRANCH  30  40
BRANCH  28  42
ATOM     42  O   UNL     1      21.377   5.801  26.023  0.00  0.00    -0.343 OA
ATOM     43  C   UNL     1      22.056   5.565  24.764  0.00  0.00    +0.198 C 
ENDBRANCH  28  42
ENDBRANCH  25  26
BRANCH  25  44
ATOM     44  O   UNL     1      19.597   3.016  22.952  0.00  0.00    -0.387 OA
ATOM     45  H   UNL     1      19.498   2.568  22.108  0.00  0.00    +0.210 HD
ENDBRANCH  25  44
ENDBRANCH   1  25
TORSDOF 15
