REMARK VINA RESULT:    -6.602      5.720     11.104
REMARK INTER + INTRA:         -13.835
REMARK INTER:                 -11.897
REMARK INTRA:                  -1.938
REMARK UNBOUND:                -1.444
REMARK  Name = lig_assembled_16.pdb
REMARK  19 active torsions:
REMARK  status: ('A' for Active; 'I' for Inactive)
REMARK    1  A    between atoms: _2  and  _9
REMARK    2  A    between atoms: _4  and  _22
REMARK    3  A    between atoms: _6  and  _7
REMARK    4  A    between atoms: _6  and  _22
REMARK    5  A    between atoms: _9  and  _10
REMARK    6  A    between atoms: _13  and  _14
REMARK    7  A    between atoms: _14  and  _16
REMARK    8  A    between atoms: _18  and  _38
REMARK    9  A    between atoms: _20  and  _26
REMARK   10  A    between atoms: _21  and  _25
REMARK   11  A    between atoms: _25  and  _26
REMARK   12  A    between atoms: _28  and  _29
REMARK   13  A    between atoms: _30  and  _31
REMARK   14  A    between atoms: _32  and  _34
REMARK   15  A    between atoms: _34  and  _35
REMARK   16  A    between atoms: _34  and  _36
REMARK   17  A    between atoms: _36  and  _37
REMARK   18  A    between atoms: _36  and  _38
REMARK   19  A    between atoms: _39  and  _41
REMARK                            x       y       z     vdW  Elec       q    Type
REMARK                         _______ _______ _______ _____ _____    ______ ____
ROOT
ATOM      1  C   UNL     1       5.145   2.941  32.554  0.00  0.00    +0.163 C 
ENDROOT
BRANCH   1   2
ATOM      2  O   UNL     1       4.285   3.962  33.086  0.00  0.00    -0.388 OA
ATOM      3  H   UNL     1       3.532   3.552  33.519  0.00  0.00    +0.210 HD
ENDBRANCH   1   2
BRANCH   1   4
ATOM      4  C   UNL     1       6.579   3.096  33.091  0.00  0.00    +0.175 C 
BRANCH   4   5
ATOM      5  C   UNL     1       6.621   3.889  34.405  0.00  0.00    +0.176 C 
ATOM      6  O   UNL     1       6.417   5.293  34.088  0.00  0.00    -0.332 OA
ATOM      7  C   UNL     1       6.320   6.196  35.239  0.00  0.00    +0.277 C 
ATOM      8  C   UNL     1       7.561   6.041  36.153  0.00  0.00    +0.110 C 
ATOM      9  C   UNL     1       7.837   4.561  36.492  0.00  0.00    +0.143 C 
ATOM     10  C   UNL     1       7.915   3.713  35.223  0.00  0.00    +0.133 C 
BRANCH  10  11
ATOM     11  N   UNL     1       8.092   2.292  35.562  0.00  0.00    -0.308 N 
ATOM     12  H   UNL     1       7.318   1.812  36.000  0.00  0.00    +0.149 HD
ATOM     13  C   UNL     1       9.208   1.596  35.330  0.00  0.00    +0.210 C 
ATOM     14  C   UNL     1      10.378   2.363  34.686  0.00  0.00    +0.109 C 
ATOM     15  O   UNL     1       9.322   0.403  35.612  0.00  0.00    -0.276 OA
ENDBRANCH  10  11
BRANCH   7  16
ATOM     16  C   UNL     1       5.041   5.910  36.053  0.00  0.00    +0.414 C 
ATOM     17  O   UNL     1       5.011   6.138  37.261  0.00  0.00    -0.240 OA
ATOM     18  O   UNL     1       4.040   5.452  35.501  0.00  0.00    -0.240 OA
ENDBRANCH   7  16
BRANCH   7  19
ATOM     19  O   UNL     1       6.287   7.558  34.739  0.00  0.00    -0.343 OA
ATOM     20  C   UNL     1       7.587   8.158  34.510  0.00  0.00    +0.198 C 
ENDBRANCH   7  19
BRANCH   9  21
ATOM     21  O   UNL     1       9.069   4.453  37.207  0.00  0.00    -0.390 OA
ATOM     22  H   UNL     1       9.151   3.569  37.571  0.00  0.00    +0.210 HD
ENDBRANCH   9  21
ENDBRANCH   4   5
BRANCH   4  23
ATOM     23  O   UNL     1       7.414   3.730  32.101  0.00  0.00    -0.387 OA
ATOM     24  H   UNL     1       7.109   3.490  31.223  0.00  0.00    +0.210 HD
ENDBRANCH   4  23
ENDBRANCH   1   4
BRANCH   1  25
ATOM     25  C   UNL     1       4.610   1.562  32.923  0.00  0.00    +0.141 C 
BRANCH  25  28
ATOM     26  C   UNL     1       5.528  -0.087  31.329  0.00  0.00    +0.401 C 
ATOM     27  O   UNL     1       6.639  -0.125  31.863  0.00  0.00    -0.226 OA
ATOM     28  N   UNL     1       4.522   0.678  31.754  0.00  0.00    -0.279 N 
ATOM     29  H   UNL     1       3.651   0.647  31.244  0.00  0.00    +0.152 HD
BRANCH  26  30
ATOM     30  O   UNL     1       5.282  -0.901  30.179  0.00  0.00    -0.444 OA
BRANCH  30  31
ATOM     31  C   UNL     1       3.875  -0.967  29.933  0.00  0.00    +0.292 C 
BRANCH  31  33
ATOM     32  N   UNL     1       4.493  -1.406  27.574  0.00  0.00    -0.131 NA
ATOM     33  C   UNL     1       3.606  -0.893  28.486  0.00  0.00    +0.120 A 
ATOM     34  C   UNL     1       2.518  -0.380  27.816  0.00  0.00    +0.137 A 
ATOM     35  N   UNL     1       2.761  -0.697  26.513  0.00  0.00    -0.247 N 
ATOM     36  N   UNL     1       3.971  -1.264  26.363  0.00  0.00    -0.065 NA
BRANCH  35  37
ATOM     37  C   UNL     1       1.885  -0.513  25.373  0.00  0.00    +0.180 C 
BRANCH  37  38
ATOM     38  C   UNL     1       1.716   0.952  25.040  0.00  0.00    -0.026 A 
ATOM     39  C   UNL     1       2.732   1.659  24.382  0.00  0.00    +0.006 A 
ATOM     40  C   UNL     1       2.555   3.004  24.044  0.00  0.00    +0.015 A 
ATOM     41  C   UNL     1       1.368   3.663  24.368  0.00  0.00    +0.059 A 
ATOM     42  C   UNL     1       0.352   2.973  25.046  0.00  0.00    +0.015 A 
ATOM     43  C   UNL     1       0.535   1.629  25.389  0.00  0.00    +0.006 A 
BRANCH  41  44
ATOM     44  C   UNL     1       1.203   5.071  23.919  0.00  0.00    +0.337 C 
ATOM     45  O   UNL     1       1.870   5.556  23.020  0.00  0.00    -0.245 OA
BRANCH  44  46
ATOM     46  O   UNL     1       0.283   5.768  24.614  0.00  0.00    -0.477 OA
ATOM     47  H   UNL     1      -0.623   5.728  24.259  0.00  0.00    +0.295 HD
ENDBRANCH  44  46
ENDBRANCH  41  44
ENDBRANCH  37  38
ENDBRANCH  35  37
ENDBRANCH  31  33
ENDBRANCH  30  31
ENDBRANCH  26  30
ENDBRANCH  25  28
ENDBRANCH   1  25
TORSDOF 17
