REMARK VINA RESULT:    -5.563     14.007     17.544
REMARK INTER + INTRA:         -12.118
REMARK INTER:                 -10.784
REMARK INTRA:                  -1.334
REMARK UNBOUND:                -2.491
REMARK  Name = lig_assembled_57.pdb
REMARK  17 active torsions:
REMARK  status: ('A' for Active; 'I' for Inactive)
REMARK    1  A    between atoms: _2  and  _10
REMARK    2  A    between atoms: _3  and  _13
REMARK    3  A    between atoms: _5  and  _19
REMARK    4  A    between atoms: _7  and  _8
REMARK    5  A    between atoms: _7  and  _19
REMARK    6  A    between atoms: _15  and  _35
REMARK    7  A    between atoms: _17  and  _23
REMARK    8  A    between atoms: _18  and  _22
REMARK    9  A    between atoms: _22  and  _23
REMARK   10  A    between atoms: _25  and  _26
REMARK   11  A    between atoms: _27  and  _28
REMARK   12  A    between atoms: _29  and  _31
REMARK   13  A    between atoms: _31  and  _32
REMARK   14  A    between atoms: _31  and  _33
REMARK   15  A    between atoms: _33  and  _34
REMARK   16  A    between atoms: _33  and  _35
REMARK   17  A    between atoms: _36  and  _38
REMARK                            x       y       z     vdW  Elec       q    Type
REMARK                         _______ _______ _______ _____ _____    ______ ____
ROOT
ATOM      1  C   UNL     1      18.438   3.104  27.800  0.00  0.00    +0.163 C 
ENDROOT
BRANCH   1   2
ATOM      2  O   UNL     1      18.303   3.071  29.230  0.00  0.00    -0.388 OA
ATOM      3  H   UNL     1      19.135   2.799  29.625  0.00  0.00    +0.210 HD
ENDBRANCH   1   2
BRANCH   1   4
ATOM      4  C   UNL     1      18.283   4.535  27.295  0.00  0.00    +0.141 C 
BRANCH   4   7
ATOM      5  C   UNL     1      19.106   6.779  27.921  0.00  0.00    +0.401 C 
ATOM      6  O   UNL     1      18.930   7.260  26.799  0.00  0.00    -0.226 OA
ATOM      7  N   UNL     1      18.837   5.512  28.240  0.00  0.00    -0.279 N 
ATOM      8  H   UNL     1      19.025   5.208  29.185  0.00  0.00    +0.152 HD
BRANCH   5   9
ATOM      9  O   UNL     1      19.635   7.610  28.958  0.00  0.00    -0.444 OA
BRANCH   9  10
ATOM     10  C   UNL     1      19.095   8.928  28.835  0.00  0.00    +0.292 C 
BRANCH  10  12
ATOM     11  N   UNL     1      17.563  10.348  30.153  0.00  0.00    -0.131 NA
ATOM     12  C   UNL     1      18.493   9.348  30.114  0.00  0.00    +0.120 A 
ATOM     13  C   UNL     1      18.690   8.865  31.390  0.00  0.00    +0.137 A 
ATOM     14  N   UNL     1      17.787   9.548  32.148  0.00  0.00    -0.248 N 
ATOM     15  N   UNL     1      17.166  10.490  31.407  0.00  0.00    -0.065 NA
BRANCH  14  16
ATOM     16  C   UNL     1      17.375   9.375  33.536  0.00  0.00    +0.111 C 
ATOM     17  C   UNL     1      15.843   9.362  33.652  0.00  0.00    +0.042 C 
ATOM     18  C   UNL     1      15.279   8.040  33.138  0.00  0.00    +0.086 C 
ATOM     19  N   UNL     1      15.800   6.875  33.862  0.00  0.00    -0.305 NA
ATOM     20  C   UNL     1      17.263   6.830  33.875  0.00  0.00    +0.086 C 
ATOM     21  C   UNL     1      15.216   6.743  35.193  0.00  0.00    +0.104 C 
ATOM     22  C   UNL     1      17.948   8.148  34.266  0.00  0.00    +0.042 C 
ENDBRANCH  14  16
ENDBRANCH  10  12
ENDBRANCH   9  10
ENDBRANCH   5   9
ENDBRANCH   4   7
ENDBRANCH   1   4
BRANCH   1  23
ATOM     23  C   UNL     1      17.387   2.205  27.127  0.00  0.00    +0.175 C 
BRANCH  23  24
ATOM     24  C   UNL     1      17.858   1.690  25.759  0.00  0.00    +0.176 C 
ATOM     25  O   UNL     1      17.234   2.511  24.733  0.00  0.00    -0.332 OA
ATOM     26  C   UNL     1      17.652   2.231  23.356  0.00  0.00    +0.277 C 
ATOM     27  C   UNL     1      17.449   0.733  23.022  0.00  0.00    +0.110 C 
ATOM     28  C   UNL     1      18.068  -0.180  24.102  0.00  0.00    +0.143 C 
ATOM     29  C   UNL     1      17.568   0.201  25.495  0.00  0.00    +0.133 C 
BRANCH  29  30
ATOM     30  N   UNL     1      18.231  -0.618  26.522  0.00  0.00    -0.308 N 
ATOM     31  H   UNL     1      19.216  -0.465  26.684  0.00  0.00    +0.149 HD
ATOM     32  C   UNL     1      17.615  -1.550  27.255  0.00  0.00    +0.210 C 
ATOM     33  C   UNL     1      16.119  -1.777  26.967  0.00  0.00    +0.109 C 
ATOM     34  O   UNL     1      18.193  -2.211  28.119  0.00  0.00    -0.276 OA
ENDBRANCH  29  30
BRANCH  26  35
ATOM     35  C   UNL     1      19.133   2.610  23.146  0.00  0.00    +0.414 C 
ATOM     36  O   UNL     1      19.823   1.990  22.338  0.00  0.00    -0.240 OA
ATOM     37  O   UNL     1      19.637   3.535  23.785  0.00  0.00    -0.240 OA
ENDBRANCH  26  35
BRANCH  28  38
ATOM     38  O   UNL     1      17.728  -1.541  23.835  0.00  0.00    -0.390 OA
ATOM     39  H   UNL     1      18.464  -1.975  23.396  0.00  0.00    +0.210 HD
ENDBRANCH  28  38
BRANCH  26  40
ATOM     40  O   UNL     1      16.817   3.015  22.466  0.00  0.00    -0.343 OA
ATOM     41  C   UNL     1      16.669   2.473  21.129  0.00  0.00    +0.198 C 
ENDBRANCH  26  40
ENDBRANCH  23  24
BRANCH  23  42
ATOM     42  O   UNL     1      16.141   2.915  26.988  0.00  0.00    -0.387 OA
ATOM     43  H   UNL     1      16.307   3.861  27.012  0.00  0.00    +0.210 HD
ENDBRANCH  23  42
ENDBRANCH   1  23
TORSDOF 14
