REMARK VINA RESULT:    -5.993      7.801     12.989
REMARK INTER + INTRA:         -14.161
REMARK INTER:                 -12.103
REMARK INTRA:                  -2.058
REMARK UNBOUND:                -2.036
REMARK  Name = lig_assembled_45.pdb
REMARK  24 active torsions:
REMARK  status: ('A' for Active; 'I' for Inactive)
REMARK    1  A    between atoms: _2  and  _10
REMARK    2  A    between atoms: _3  and  _12
REMARK    3  A    between atoms: _3  and  _13
REMARK    4  A    between atoms: _3  and  _14
REMARK    5  A    between atoms: _3  and  _16
REMARK    6  A    between atoms: _5  and  _21
REMARK    7  A    between atoms: _6  and  _16
REMARK    8  A    between atoms: _7  and  _8
REMARK    9  A    between atoms: _7  and  _21
REMARK   10  A    between atoms: _10  and  _11
REMARK   11  A    between atoms: _11  and  _12
REMARK   12  A    between atoms: _14  and  _15
REMARK   13  A    between atoms: _17  and  _37
REMARK   14  A    between atoms: _19  and  _25
REMARK   15  A    between atoms: _20  and  _24
REMARK   16  A    between atoms: _24  and  _25
REMARK   17  A    between atoms: _27  and  _28
REMARK   18  A    between atoms: _29  and  _30
REMARK   19  A    between atoms: _31  and  _33
REMARK   20  A    between atoms: _33  and  _34
REMARK   21  A    between atoms: _33  and  _35
REMARK   22  A    between atoms: _35  and  _36
REMARK   23  A    between atoms: _35  and  _37
REMARK   24  A    between atoms: _38  and  _40
REMARK                            x       y       z     vdW  Elec       q    Type
REMARK                         _______ _______ _______ _____ _____    ______ ____
ROOT
ATOM      1  C   UNL     1       7.197   2.262  34.281  0.00  0.00    +0.163 C 
ENDROOT
BRANCH   1   2
ATOM      2  O   UNL     1       7.154   2.362  35.714  0.00  0.00    -0.388 OA
ATOM      3  H   UNL     1       6.448   1.806  36.053  0.00  0.00    +0.210 HD
ENDBRANCH   1   2
BRANCH   1   4
ATOM      4  C   UNL     1       7.626   3.598  33.650  0.00  0.00    +0.175 C 
BRANCH   4   5
ATOM      5  C   UNL     1       7.008   4.804  34.373  0.00  0.00    +0.176 C 
ATOM      6  O   UNL     1       7.742   5.008  35.611  0.00  0.00    -0.332 OA
ATOM      7  C   UNL     1       7.357   6.189  36.390  0.00  0.00    +0.277 C 
ATOM      8  C   UNL     1       5.836   6.174  36.680  0.00  0.00    +0.110 C 
ATOM      9  C   UNL     1       5.014   5.928  35.397  0.00  0.00    +0.143 C 
ATOM     10  C   UNL     1       5.501   4.677  34.665  0.00  0.00    +0.133 C 
BRANCH  10  11
ATOM     11  N   UNL     1       4.769   4.503  33.400  0.00  0.00    -0.308 N 
ATOM     12  H   UNL     1       4.947   5.163  32.657  0.00  0.00    +0.149 HD
ATOM     13  C   UNL     1       3.883   3.529  33.171  0.00  0.00    +0.210 C 
ATOM     14  C   UNL     1       3.614   2.555  34.334  0.00  0.00    +0.109 C 
ATOM     15  O   UNL     1       3.296   3.398  32.097  0.00  0.00    -0.276 OA
ENDBRANCH  10  11
BRANCH   7  16
ATOM     16  C   UNL     1       7.726   7.484  35.636  0.00  0.00    +0.414 C 
ATOM     17  O   UNL     1       8.858   7.956  35.731  0.00  0.00    -0.240 OA
ATOM     18  O   UNL     1       6.891   8.057  34.935  0.00  0.00    -0.240 OA
ENDBRANCH   7  16
BRANCH   9  19
ATOM     19  O   UNL     1       3.635   5.771  35.731  0.00  0.00    -0.390 OA
ATOM     20  H   UNL     1       3.091   6.100  35.011  0.00  0.00    +0.210 HD
ENDBRANCH   9  19
BRANCH   7  21
ATOM     21  O   UNL     1       8.065   6.142  37.655  0.00  0.00    -0.343 OA
ATOM     22  C   UNL     1       7.995   4.871  38.349  0.00  0.00    +0.198 C 
ENDBRANCH   7  21
ENDBRANCH   4   5
BRANCH   4  23
ATOM     23  O   UNL     1       7.274   3.623  32.252  0.00  0.00    -0.387 OA
ATOM     24  H   UNL     1       8.061   3.778  31.726  0.00  0.00    +0.210 HD
ENDBRANCH   4  23
ENDBRANCH   1   4
BRANCH   1  25
ATOM     25  C   UNL     1       8.171   1.166  33.863  0.00  0.00    +0.141 C 
BRANCH  25  28
ATOM     26  C   UNL     1      10.391   1.729  34.790  0.00  0.00    +0.401 C 
ATOM     27  O   UNL     1      10.103   1.385  35.939  0.00  0.00    -0.226 OA
ATOM     28  N   UNL     1       9.547   1.666  33.759  0.00  0.00    -0.279 N 
ATOM     29  H   UNL     1       9.873   1.980  32.856  0.00  0.00    +0.152 HD
BRANCH  26  30
ATOM     30  O   UNL     1      11.703   2.232  34.524  0.00  0.00    -0.444 OA
BRANCH  30  31
ATOM     31  C   UNL     1      12.365   2.516  35.759  0.00  0.00    +0.292 C 
BRANCH  31  33
ATOM     32  N   UNL     1      13.853   3.940  34.377  0.00  0.00    -0.131 NA
ATOM     33  C   UNL     1      13.293   3.650  35.593  0.00  0.00    +0.120 A 
ATOM     34  C   UNL     1      13.748   4.556  36.524  0.00  0.00    +0.137 A 
ATOM     35  N   UNL     1      14.573   5.363  35.803  0.00  0.00    -0.251 N 
ATOM     36  N   UNL     1      14.644   4.995  34.522  0.00  0.00    -0.065 NA
BRANCH  35  37
ATOM     37  C   UNL     1      15.344   6.489  36.290  0.00  0.00    +0.150 C 
BRANCH  37  38
ATOM     38  C   UNL     1      16.379   6.977  35.286  0.00  0.00    +0.074 C 
BRANCH  38  39
ATOM     39  C   UNL     1      16.444   8.491  35.039  0.00  0.00    +0.134 C 
BRANCH  39  40
ATOM     40  N   UNL     1      16.326   8.999  33.564  0.00  0.00    +0.241 N 
ATOM     41  C   UNL     1      14.877   9.447  33.309  0.00  0.00    +0.192 C 
BRANCH  40  42
ATOM     42  C   UNL     1      16.629   7.761  32.655  0.00  0.00    +0.129 C 
ATOM     43  C   UNL     1      17.521   8.074  31.459  0.00  0.00    +0.060 C 
ENDBRANCH  40  42
BRANCH  40  44
ATOM     44  C   UNL     1      17.277  10.154  33.201  0.00  0.00    +0.129 C 
ATOM     45  C   UNL     1      18.310  10.472  34.270  0.00  0.00    +0.060 C 
ENDBRANCH  40  44
ENDBRANCH  39  40
ENDBRANCH  38  39
ENDBRANCH  37  38
ENDBRANCH  35  37
ENDBRANCH  31  33
ENDBRANCH  30  31
ENDBRANCH  26  30
ENDBRANCH  25  28
ENDBRANCH   1  25
TORSDOF 19
