REMARK VINA RESULT:    -6.653     11.060     15.342
REMARK INTER + INTRA:         -14.431
REMARK INTER:                 -11.867
REMARK INTRA:                  -2.564
REMARK UNBOUND:                -2.138
REMARK  Name = lig_assembled_92.pdb
REMARK  18 active torsions:
REMARK  status: ('A' for Active; 'I' for Inactive)
REMARK    1  A    between atoms: _2  and  _11
REMARK    2  A    between atoms: _3  and  _46
REMARK    3  A    between atoms: _6  and  _25
REMARK    4  A    between atoms: _8  and  _9
REMARK    5  A    between atoms: _8  and  _25
REMARK    6  A    between atoms: _14  and  _46
REMARK    7  A    between atoms: _21  and  _41
REMARK    8  A    between atoms: _23  and  _29
REMARK    9  A    between atoms: _24  and  _28
REMARK   10  A    between atoms: _28  and  _29
REMARK   11  A    between atoms: _31  and  _32
REMARK   12  A    between atoms: _33  and  _34
REMARK   13  A    between atoms: _35  and  _37
REMARK   14  A    between atoms: _37  and  _38
REMARK   15  A    between atoms: _37  and  _39
REMARK   16  A    between atoms: _39  and  _40
REMARK   17  A    between atoms: _39  and  _41
REMARK   18  A    between atoms: _42  and  _44
REMARK                            x       y       z     vdW  Elec       q    Type
REMARK                         _______ _______ _______ _____ _____    ______ ____
ROOT
ATOM      1  C   UNL     1      10.909   0.008  36.120  0.00  0.00    +0.401 C 
ATOM      2  O   UNL     1      10.422  -0.878  36.826  0.00  0.00    -0.226 OA
ATOM      3  N   UNL     1      10.188   0.897  35.436  0.00  0.00    -0.279 N 
ATOM      4  H   UNL     1      10.680   1.592  34.892  0.00  0.00    +0.152 HD
ENDROOT
BRANCH   3   5
ATOM      5  C   UNL     1       8.721   0.922  35.428  0.00  0.00    +0.141 C 
BRANCH   5   6
ATOM      6  C   UNL     1       8.172   2.257  35.920  0.00  0.00    +0.163 C 
BRANCH   6   7
ATOM      7  O   UNL     1       8.616   2.505  37.264  0.00  0.00    -0.388 OA
ATOM      8  H   UNL     1       9.048   3.361  37.306  0.00  0.00    +0.210 HD
ENDBRANCH   6   7
BRANCH   6   9
ATOM      9  C   UNL     1       8.629   3.381  34.974  0.00  0.00    +0.175 C 
BRANCH   9  10
ATOM     10  C   UNL     1       7.553   4.463  34.801  0.00  0.00    +0.176 C 
ATOM     11  O   UNL     1       7.443   5.189  36.056  0.00  0.00    -0.332 OA
ATOM     12  C   UNL     1       6.531   6.337  36.046  0.00  0.00    +0.277 C 
ATOM     13  C   UNL     1       5.124   5.907  35.564  0.00  0.00    +0.110 C 
ATOM     14  C   UNL     1       5.193   5.104  34.248  0.00  0.00    +0.143 C 
ATOM     15  C   UNL     1       6.172   3.936  34.369  0.00  0.00    +0.133 C 
BRANCH  15  16
ATOM     16  N   UNL     1       6.294   3.231  33.084  0.00  0.00    -0.308 N 
ATOM     17  H   UNL     1       6.740   3.718  32.319  0.00  0.00    +0.149 HD
ATOM     18  C   UNL     1       5.855   1.989  32.861  0.00  0.00    +0.210 C 
ATOM     19  C   UNL     1       5.158   1.283  34.039  0.00  0.00    +0.109 C 
ATOM     20  O   UNL     1       5.985   1.418  31.778  0.00  0.00    -0.276 OA
ENDBRANCH  15  16
BRANCH  12  21
ATOM     21  C   UNL     1       7.070   7.455  35.129  0.00  0.00    +0.414 C 
ATOM     22  O   UNL     1       6.298   8.111  34.431  0.00  0.00    -0.240 OA
ATOM     23  O   UNL     1       8.277   7.701  35.088  0.00  0.00    -0.240 OA
ENDBRANCH  12  21
BRANCH  14  24
ATOM     24  O   UNL     1       3.897   4.600  33.923  0.00  0.00    -0.390 OA
ATOM     25  H   UNL     1       3.626   4.942  33.068  0.00  0.00    +0.210 HD
ENDBRANCH  14  24
BRANCH  12  26
ATOM     26  O   UNL     1       6.418   6.832  37.405  0.00  0.00    -0.343 OA
ATOM     27  C   UNL     1       7.590   6.622  38.233  0.00  0.00    +0.198 C 
ENDBRANCH  12  26
ENDBRANCH   9  10
BRANCH   9  28
ATOM     28  O   UNL     1       8.993   2.832  33.692  0.00  0.00    -0.387 OA
ATOM     29  H   UNL     1       9.161   1.891  33.782  0.00  0.00    +0.210 HD
ENDBRANCH   9  28
ENDBRANCH   6   9
ENDBRANCH   5   6
ENDBRANCH   3   5
BRANCH   1  30
ATOM     30  O   UNL     1      12.332   0.110  36.017  0.00  0.00    -0.444 OA
BRANCH  30  31
ATOM     31  C   UNL     1      12.796   1.174  36.852  0.00  0.00    +0.292 C 
BRANCH  31  33
ATOM     32  N   UNL     1      12.882   2.466  34.739  0.00  0.00    -0.131 NA
ATOM     33  C   UNL     1      13.290   2.294  36.030  0.00  0.00    +0.121 A 
ATOM     34  C   UNL     1      14.165   3.302  36.362  0.00  0.00    +0.143 A 
ATOM     35  N   UNL     1      14.240   4.093  35.238  0.00  0.00    -0.220 N 
ATOM     36  N   UNL     1      13.469   3.558  34.262  0.00  0.00    -0.060 NA
BRANCH  35  37
ATOM     37  C   UNL     1      14.954   5.305  35.062  0.00  0.00    +0.067 A 
ATOM     38  C   UNL     1      15.532   5.615  33.821  0.00  0.00    +0.030 A 
ATOM     39  C   UNL     1      16.283   6.780  33.668  0.00  0.00    +0.031 A 
ATOM     40  C   UNL     1      16.450   7.646  34.750  0.00  0.00    +0.109 A 
ATOM     41  C   UNL     1      15.873   7.357  35.989  0.00  0.00    +0.031 A 
ATOM     42  C   UNL     1      15.116   6.190  36.142  0.00  0.00    +0.030 A 
BRANCH  40  43
ATOM     43  S   UNL     1      17.535   9.035  34.560  0.00  0.00    +0.074 S 
ATOM     44  O   UNL     1      17.360   9.888  35.720  0.00  0.00    -0.150 OA
ATOM     45  O   UNL     1      18.849   8.550  34.210  0.00  0.00    -0.150 OA
BRANCH  43  46
ATOM     46  N   UNL     1      16.853   9.896  33.278  0.00  0.00    -0.194 N 
ATOM     47  H   UNL     1      16.667  10.831  33.631  0.00  0.00    +0.176 HD
ATOM     48  C   UNL     1      17.675   9.881  32.131  0.00  0.00    +0.177 A 
ATOM     49  S   UNL     1      18.733  11.164  31.738  0.00  0.00    -0.059 S 
ATOM     50  C   UNL     1      19.125  10.359  30.274  0.00  0.00    +0.068 A 
ATOM     51  C   UNL     1      18.363   9.216  30.159  0.00  0.00    +0.120 A 
ATOM     52  N   UNL     1      17.555   8.926  31.243  0.00  0.00    -0.232 NA
ENDBRANCH  43  46
ENDBRANCH  40  43
ENDBRANCH  35  37
ENDBRANCH  31  33
ENDBRANCH  30  31
ENDBRANCH   1  30
TORSDOF 16
