REMARK VINA RESULT:    -6.652      5.229     12.429
REMARK INTER + INTRA:         -15.312
REMARK INTER:                 -12.564
REMARK INTRA:                  -2.748
REMARK UNBOUND:                -2.243
REMARK  Name = lig_assembled_31.pdb
REMARK  20 active torsions:
REMARK  status: ('A' for Active; 'I' for Inactive)
REMARK    1  A    between atoms: _2  and  _11
REMARK    2  A    between atoms: _3  and  _12
REMARK    3  A    between atoms: _4  and  _14
REMARK    4  A    between atoms: _6  and  _24
REMARK    5  A    between atoms: _8  and  _9
REMARK    6  A    between atoms: _8  and  _24
REMARK    7  A    between atoms: _11  and  _12
REMARK    8  A    between atoms: _14  and  _15
REMARK    9  A    between atoms: _20  and  _40
REMARK   10  A    between atoms: _22  and  _28
REMARK   11  A    between atoms: _23  and  _27
REMARK   12  A    between atoms: _27  and  _28
REMARK   13  A    between atoms: _30  and  _31
REMARK   14  A    between atoms: _32  and  _33
REMARK   15  A    between atoms: _34  and  _36
REMARK   16  A    between atoms: _36  and  _37
REMARK   17  A    between atoms: _36  and  _38
REMARK   18  A    between atoms: _38  and  _39
REMARK   19  A    between atoms: _38  and  _40
REMARK   20  A    between atoms: _41  and  _43
REMARK                            x       y       z     vdW  Elec       q    Type
REMARK                         _______ _______ _______ _____ _____    ______ ____
ROOT
ATOM      1  C   UNL     1      16.443  -1.644  25.111  0.00  0.00    +0.401 C 
ATOM      2  O   UNL     1      17.673  -1.724  25.110  0.00  0.00    -0.226 OA
ATOM      3  N   UNL     1      15.758  -0.680  25.727  0.00  0.00    -0.279 N 
ATOM      4  H   UNL     1      14.750  -0.695  25.662  0.00  0.00    +0.152 HD
ENDROOT
BRANCH   1   5
ATOM      5  O   UNL     1      15.683  -2.633  24.411  0.00  0.00    -0.444 OA
BRANCH   5   6
ATOM      6  C   UNL     1      16.120  -3.937  24.803  0.00  0.00    +0.292 C 
BRANCH   6   8
ATOM      7  N   UNL     1      15.738  -4.930  22.568  0.00  0.00    -0.131 NA
ATOM      8  C   UNL     1      15.531  -4.965  23.921  0.00  0.00    +0.120 A 
ATOM      9  C   UNL     1      14.742  -6.051  24.227  0.00  0.00    +0.137 A 
ATOM     10  N   UNL     1      14.495  -6.628  23.018  0.00  0.00    -0.250 N 
ATOM     11  N   UNL     1      15.099  -5.958  22.023  0.00  0.00    -0.065 NA
BRANCH  10  12
ATOM     12  C   UNL     1      13.699  -7.804  22.733  0.00  0.00    +0.164 C 
BRANCH  12  13
ATOM     13  C   UNL     1      12.266  -7.434  22.386  0.00  0.00    +0.129 C 
BRANCH  13  14
ATOM     14  N   UNL     1      12.126  -6.570  21.220  0.00  0.00    -0.298 N 
ATOM     15  H   UNL     1      12.845  -5.902  20.984  0.00  0.00    +0.150 HD
ATOM     16  C   UNL     1      10.870  -6.363  20.713  0.00  0.00    +0.300 C 
ATOM     17  O   UNL     1       9.877  -6.951  21.135  0.00  0.00    -0.253 OA
ATOM     18  N   UNL     1      10.820  -5.474  19.684  0.00  0.00    -0.292 N 
ATOM     19  H   UNL     1      11.629  -4.961  19.364  0.00  0.00    +0.151 HD
BRANCH  18  20
ATOM     20  C   UNL     1       9.540  -5.193  19.075  0.00  0.00    +0.180 C 
BRANCH  20  21
ATOM     21  C   UNL     1       9.328  -5.910  17.793  0.00  0.00    +0.122 A 
ATOM     22  O   UNL     1       9.962  -5.461  16.668  0.00  0.00    -0.466 OA
ATOM     23  C   UNL     1       9.595  -6.292  15.653  0.00  0.00    +0.195 A 
ATOM     24  C   UNL     1       8.734  -7.265  16.107  0.00  0.00    +0.041 A 
ATOM     25  C   UNL     1       8.560  -7.019  17.488  0.00  0.00    +0.046 A 
ENDBRANCH  20  21
ENDBRANCH  18  20
ENDBRANCH  13  14
ENDBRANCH  12  13
ENDBRANCH  10  12
ENDBRANCH   6   8
ENDBRANCH   5   6
ENDBRANCH   1   5
BRANCH   3  26
ATOM     26  C   UNL     1      16.387   0.402  26.494  0.00  0.00    +0.141 C 
BRANCH  26  27
ATOM     27  C   UNL     1      16.048   1.775  25.923  0.00  0.00    +0.163 C 
BRANCH  27  28
ATOM     28  O   UNL     1      16.500   2.805  26.818  0.00  0.00    -0.388 OA
ATOM     29  H   UNL     1      16.981   3.472  26.322  0.00  0.00    +0.210 HD
ENDBRANCH  27  28
BRANCH  27  30
ATOM     30  C   UNL     1      16.696   1.929  24.536  0.00  0.00    +0.175 C 
BRANCH  30  31
ATOM     31  C   UNL     1      18.193   2.258  24.630  0.00  0.00    +0.176 C 
ATOM     32  O   UNL     1      18.322   3.684  24.887  0.00  0.00    -0.332 OA
ATOM     33  C   UNL     1      19.688   4.166  25.113  0.00  0.00    +0.277 C 
ATOM     34  C   UNL     1      20.607   3.761  23.935  0.00  0.00    +0.110 C 
ATOM     35  C   UNL     1      20.480   2.259  23.605  0.00  0.00    +0.143 C 
ATOM     36  C   UNL     1      19.018   1.865  23.391  0.00  0.00    +0.133 C 
BRANCH  36  37
ATOM     37  N   UNL     1      18.903   0.416  23.163  0.00  0.00    -0.308 N 
ATOM     38  H   UNL     1      19.176  -0.203  23.913  0.00  0.00    +0.149 HD
ATOM     39  C   UNL     1      18.460  -0.134  22.029  0.00  0.00    +0.210 C 
ATOM     40  C   UNL     1      18.076   0.836  20.896  0.00  0.00    +0.109 C 
ATOM     41  O   UNL     1      18.360  -1.351  21.871  0.00  0.00    -0.276 OA
ENDBRANCH  36  37
BRANCH  33  42
ATOM     42  C   UNL     1      20.257   3.598  26.430  0.00  0.00    +0.414 C 
ATOM     43  O   UNL     1      19.499   3.274  27.344  0.00  0.00    -0.240 OA
ATOM     44  O   UNL     1      21.472   3.465  26.579  0.00  0.00    -0.240 OA
ENDBRANCH  33  42
BRANCH  35  45
ATOM     45  O   UNL     1      21.225   1.961  22.423  0.00  0.00    -0.390 OA
ATOM     46  H   UNL     1      20.780   1.269  21.929  0.00  0.00    +0.210 HD
ENDBRANCH  35  45
BRANCH  33  47
ATOM     47  O   UNL     1      19.646   5.615  25.184  0.00  0.00    -0.343 OA
ATOM     48  C   UNL     1      19.163   6.272  23.985  0.00  0.00    +0.198 C 
ENDBRANCH  33  47
ENDBRANCH  30  31
BRANCH  30  49
ATOM     49  O   UNL     1      16.010   2.946  23.778  0.00  0.00    -0.387 OA
ATOM     50  H   UNL     1      15.189   2.589  23.432  0.00  0.00    +0.210 HD
ENDBRANCH  30  49
ENDBRANCH  27  30
ENDBRANCH  26  27
ENDBRANCH   3  26
TORSDOF 18
