REMARK VINA RESULT:    -7.141      1.629      2.426
REMARK INTER + INTRA:         -15.262
REMARK INTER:                 -12.859
REMARK INTRA:                  -2.402
REMARK UNBOUND:                -2.067
REMARK  Name = lig_assembled_79.pdb
REMARK  20 active torsions:
REMARK  status: ('A' for Active; 'I' for Inactive)
REMARK    1  A    between atoms: _2  and  _10
REMARK    2  A    between atoms: _5  and  _26
REMARK    3  A    between atoms: _7  and  _8
REMARK    4  A    between atoms: _7  and  _26
REMARK    5  A    between atoms: _10  and  _11
REMARK    6  A    between atoms: _10  and  _12
REMARK    7  A    between atoms: _10  and  _13
REMARK    8  A    between atoms: _13  and  _14
REMARK    9  A    between atoms: _22  and  _42
REMARK   10  A    between atoms: _24  and  _30
REMARK   11  A    between atoms: _25  and  _29
REMARK   12  A    between atoms: _29  and  _30
REMARK   13  A    between atoms: _32  and  _33
REMARK   14  A    between atoms: _34  and  _35
REMARK   15  A    between atoms: _36  and  _38
REMARK   16  A    between atoms: _38  and  _39
REMARK   17  A    between atoms: _38  and  _40
REMARK   18  A    between atoms: _40  and  _41
REMARK   19  A    between atoms: _40  and  _42
REMARK   20  A    between atoms: _43  and  _45
REMARK                            x       y       z     vdW  Elec       q    Type
REMARK                         _______ _______ _______ _____ _____    ______ ____
ROOT
ATOM      1  C   UNL     1      -2.977   6.197  16.332  0.00  0.00    +0.401 C 
ATOM      2  O   UNL     1      -4.187   6.394  16.466  0.00  0.00    -0.226 OA
ATOM      3  N   UNL     1      -2.301   6.444  15.210  0.00  0.00    -0.279 N 
ATOM      4  H   UNL     1      -1.308   6.259  15.200  0.00  0.00    +0.152 HD
ENDROOT
BRANCH   3   5
ATOM      5  C   UNL     1      -2.919   6.970  13.986  0.00  0.00    +0.141 C 
BRANCH   5   6
ATOM      6  C   UNL     1      -2.247   8.256  13.518  0.00  0.00    +0.163 C 
BRANCH   6   7
ATOM      7  O   UNL     1      -2.327   8.359  12.087  0.00  0.00    -0.388 OA
ATOM      8  H   UNL     1      -1.580   7.904  11.690  0.00  0.00    +0.210 HD
ENDBRANCH   6   7
BRANCH   6   9
ATOM      9  C   UNL     1      -2.920   9.463  14.194  0.00  0.00    +0.175 C 
BRANCH   9  10
ATOM     10  C   UNL     1      -3.245  10.581  13.192  0.00  0.00    +0.176 C 
ATOM     11  O   UNL     1      -1.991  11.053  12.627  0.00  0.00    -0.332 OA
ATOM     12  C   UNL     1      -2.112  12.056  11.565  0.00  0.00    +0.277 C 
ATOM     13  C   UNL     1      -2.954  13.261  12.052  0.00  0.00    +0.110 C 
ATOM     14  C   UNL     1      -4.283  12.806  12.690  0.00  0.00    +0.143 C 
ATOM     15  C   UNL     1      -4.040  11.761  13.779  0.00  0.00    +0.133 C 
BRANCH  15  16
ATOM     16  N   UNL     1      -5.319  11.272  14.319  0.00  0.00    -0.308 N 
ATOM     17  H   UNL     1      -5.943  10.790  13.688  0.00  0.00    +0.149 HD
ATOM     18  C   UNL     1      -5.708  11.425  15.588  0.00  0.00    +0.210 C 
ATOM     19  C   UNL     1      -4.746  12.188  16.517  0.00  0.00    +0.109 C 
ATOM     20  O   UNL     1      -6.779  10.992  16.015  0.00  0.00    -0.276 OA
ENDBRANCH  15  16
BRANCH  12  21
ATOM     21  C   UNL     1      -2.766  11.445  10.308  0.00  0.00    +0.414 C 
ATOM     22  O   UNL     1      -2.668  10.240  10.082  0.00  0.00    -0.240 OA
ATOM     23  O   UNL     1      -3.391  12.157   9.521  0.00  0.00    -0.240 OA
ENDBRANCH  12  21
BRANCH  14  24
ATOM     24  O   UNL     1      -4.955  13.932  13.259  0.00  0.00    -0.390 OA
ATOM     25  H   UNL     1      -5.901  13.773  13.260  0.00  0.00    +0.210 HD
ENDBRANCH  14  24
BRANCH  12  26
ATOM     26  O   UNL     1      -0.780  12.530  11.241  0.00  0.00    -0.343 OA
ATOM     27  C   UNL     1      -0.599  13.965  11.341  0.00  0.00    +0.198 C 
ENDBRANCH  12  26
ENDBRANCH   9  10
BRANCH   9  28
ATOM     28  O   UNL     1      -2.081   9.972  15.251  0.00  0.00    -0.387 OA
ATOM     29  H   UNL     1      -1.924   9.279  15.897  0.00  0.00    +0.210 HD
ENDBRANCH   9  28
ENDBRANCH   6   9
ENDBRANCH   5   6
ENDBRANCH   3   5
BRANCH   1  30
ATOM     30  O   UNL     1      -2.232   5.676  17.436  0.00  0.00    -0.444 OA
BRANCH  30  31
ATOM     31  C   UNL     1      -0.840   5.661  17.109  0.00  0.00    +0.292 C 
BRANCH  31  33
ATOM     32  N   UNL     1       0.967   4.062  17.619  0.00  0.00    -0.131 NA
ATOM     33  C   UNL     1      -0.109   4.786  18.042  0.00  0.00    +0.120 A 
ATOM     34  C   UNL     1      -0.327   4.531  19.378  0.00  0.00    +0.138 A 
ATOM     35  N   UNL     1       0.704   3.710  19.744  0.00  0.00    -0.238 N 
ATOM     36  N   UNL     1       1.430   3.373  18.649  0.00  0.00    -0.064 NA
BRANCH  35  37
ATOM     37  C   UNL     1       0.994   3.024  21.036  0.00  0.00    +0.122 C 
ATOM     38  C   UNL     1       2.086   1.969  20.738  0.00  0.00    +0.044 C 
ATOM     39  C   UNL     1      -0.359   2.441  21.489  0.00  0.00    +0.044 C 
BRANCH  37  40
ATOM     40  C   UNL     1       1.550   3.967  22.123  0.00  0.00    +0.192 C 
ATOM     41  O   UNL     1       2.115   5.019  21.806  0.00  0.00    -0.289 OA
BRANCH  40  42
ATOM     42  C   UNL     1       1.459   3.659  23.580  0.00  0.00    +0.045 A 
ATOM     43  C   UNL     1       0.967   4.616  24.460  0.00  0.00    +0.095 A 
ATOM     44  N   UNL     1       1.001   4.131  25.732  0.00  0.00    -0.360 N 
ATOM     45  H   UNL     1       0.708   4.635  26.558  0.00  0.00    +0.165 HD
ATOM     46  C   UNL     1       1.504   2.856  25.734  0.00  0.00    +0.047 A 
ATOM     47  C   UNL     1       1.719   1.998  26.823  0.00  0.00    +0.026 A 
ATOM     48  C   UNL     1       2.253   0.735  26.572  0.00  0.00    +0.002 A 
ATOM     49  C   UNL     1       2.558   0.345  25.277  0.00  0.00    +0.001 A 
ATOM     50  C   UNL     1       2.335   1.216  24.204  0.00  0.00    +0.011 A 
ATOM     51  C   UNL     1       1.798   2.514  24.407  0.00  0.00    +0.010 A 
ENDBRANCH  40  42
ENDBRANCH  37  40
ENDBRANCH  35  37
ENDBRANCH  31  33
ENDBRANCH  30  31
ENDBRANCH   1  30
TORSDOF 16
