REMARK VINA RESULT:    -5.482     18.481     20.414
REMARK INTER + INTRA:         -13.830
REMARK INTER:                 -10.498
REMARK INTRA:                  -3.332
REMARK UNBOUND:                -3.380
REMARK  Name = lig_assembled_62.pdb
REMARK  20 active torsions:
REMARK  status: ('A' for Active; 'I' for Inactive)
REMARK    1  A    between atoms: _2  and  _10
REMARK    2  A    between atoms: _5  and  _19
REMARK    3  A    between atoms: _6  and  _10
REMARK    4  A    between atoms: _7  and  _8
REMARK    5  A    between atoms: _7  and  _19
REMARK    6  A    between atoms: _10  and  _11
REMARK    7  A    between atoms: _11  and  _14
REMARK    8  A    between atoms: _12  and  _14
REMARK    9  A    between atoms: _15  and  _35
REMARK   10  A    between atoms: _17  and  _23
REMARK   11  A    between atoms: _18  and  _22
REMARK   12  A    between atoms: _22  and  _23
REMARK   13  A    between atoms: _25  and  _26
REMARK   14  A    between atoms: _27  and  _28
REMARK   15  A    between atoms: _29  and  _31
REMARK   16  A    between atoms: _31  and  _32
REMARK   17  A    between atoms: _31  and  _33
REMARK   18  A    between atoms: _33  and  _34
REMARK   19  A    between atoms: _33  and  _35
REMARK   20  A    between atoms: _36  and  _38
REMARK                            x       y       z     vdW  Elec       q    Type
REMARK                         _______ _______ _______ _____ _____    ______ ____
ROOT
ATOM      1  C   UNL     1       1.841   5.201  23.745  0.00  0.00    +0.163 C 
ENDROOT
BRANCH   1   2
ATOM      2  O   UNL     1       0.633   5.854  24.168  0.00  0.00    -0.388 OA
ATOM      3  H   UNL     1       0.052   5.214  24.587  0.00  0.00    +0.210 HD
ENDBRANCH   1   2
BRANCH   1   4
ATOM      4  C   UNL     1       2.082   3.914  24.554  0.00  0.00    +0.175 C 
BRANCH   4   5
ATOM      5  C   UNL     1       0.812   3.435  25.271  0.00  0.00    +0.176 C 
ATOM      6  O   UNL     1       0.824   3.985  26.618  0.00  0.00    -0.332 OA
ATOM      7  C   UNL     1      -0.372   3.718  27.422  0.00  0.00    +0.277 C 
ATOM      8  C   UNL     1      -0.657   2.197  27.480  0.00  0.00    +0.110 C 
ATOM      9  C   UNL     1      -0.649   1.562  26.074  0.00  0.00    +0.143 C 
ATOM     10  C   UNL     1       0.639   1.906  25.324  0.00  0.00    +0.133 C 
BRANCH  10  11
ATOM     11  N   UNL     1       0.597   1.369  23.955  0.00  0.00    -0.308 N 
ATOM     12  H   UNL     1      -0.196   1.610  23.378  0.00  0.00    +0.149 HD
ATOM     13  C   UNL     1       1.538   0.583  23.425  0.00  0.00    +0.210 C 
ATOM     14  C   UNL     1       2.721   0.212  24.340  0.00  0.00    +0.109 C 
ATOM     15  O   UNL     1       1.484   0.159  22.270  0.00  0.00    -0.276 OA
ENDBRANCH  10  11
BRANCH   7  16
ATOM     16  C   UNL     1      -1.598   4.451  26.839  0.00  0.00    +0.414 C 
ATOM     17  O   UNL     1      -1.446   5.411  26.085  0.00  0.00    -0.240 OA
ATOM     18  O   UNL     1      -2.738   4.082  27.123  0.00  0.00    -0.240 OA
ENDBRANCH   7  16
BRANCH   7  19
ATOM     19  O   UNL     1      -0.118   4.188  28.772  0.00  0.00    -0.343 OA
ATOM     20  C   UNL     1       0.836   3.398  29.526  0.00  0.00    +0.198 C 
ENDBRANCH   7  19
BRANCH   9  21
ATOM     21  O   UNL     1      -0.764   0.143  26.185  0.00  0.00    -0.390 OA
ATOM     22  H   UNL     1      -1.064  -0.221  25.349  0.00  0.00    +0.210 HD
ENDBRANCH   9  21
ENDBRANCH   4   5
BRANCH   4  23
ATOM     23  O   UNL     1       3.144   4.119  25.507  0.00  0.00    -0.387 OA
ATOM     24  H   UNL     1       3.461   3.269  25.821  0.00  0.00    +0.210 HD
ENDBRANCH   4  23
ENDBRANCH   1   4
BRANCH   1  25
ATOM     25  C   UNL     1       1.759   4.861  22.261  0.00  0.00    +0.141 C 
BRANCH  25  28
ATOM     26  C   UNL     1      -0.021   3.694  21.005  0.00  0.00    +0.401 C 
ATOM     27  O   UNL     1       0.738   2.846  20.532  0.00  0.00    -0.226 OA
ATOM     28  N   UNL     1       0.371   4.677  21.817  0.00  0.00    -0.279 N 
ATOM     29  H   UNL     1      -0.325   5.331  22.146  0.00  0.00    +0.152 HD
BRANCH  26  30
ATOM     30  O   UNL     1      -1.411   3.645  20.673  0.00  0.00    -0.444 OA
BRANCH  30  31
ATOM     31  C   UNL     1      -2.186   3.549  21.871  0.00  0.00    +0.292 C 
BRANCH  31  33
ATOM     32  N   UNL     1      -2.296   5.870  22.727  0.00  0.00    -0.131 NA
ATOM     33  C   UNL     1      -2.910   4.811  22.116  0.00  0.00    +0.120 A 
ATOM     34  C   UNL     1      -4.209   5.157  21.815  0.00  0.00    +0.138 A 
ATOM     35  N   UNL     1      -4.330   6.434  22.281  0.00  0.00    -0.237 N 
ATOM     36  N   UNL     1      -3.173   6.861  22.822  0.00  0.00    -0.065 NA
BRANCH  35  37
ATOM     37  C   UNL     1      -5.471   7.333  22.232  0.00  0.00    +0.219 C 
BRANCH  37  38
ATOM     38  C   UNL     1      -5.001   8.776  22.128  0.00  0.00    +0.237 C 
ATOM     39  O   UNL     1      -4.746   9.347  21.071  0.00  0.00    -0.274 OA
ATOM     40  N   UNL     1      -4.929   9.471  23.306  0.00  0.00    -0.328 N 
ATOM     41  H   UNL     1      -5.211   9.092  24.201  0.00  0.00    +0.145 HD
ATOM     42  H   UNL     1      -4.628  10.437  23.265  0.00  0.00    +0.145 HD
ENDBRANCH  37  38
BRANCH  37  43
ATOM     43  C   UNL     1      -6.367   7.137  23.452  0.00  0.00    +0.195 C 
BRANCH  43  44
ATOM     44  O   UNL     1      -7.561   7.917  23.295  0.00  0.00    -0.380 OA
ATOM     45  C   UNL     1      -8.398   7.834  24.442  0.00  0.00    +0.194 C 
ENDBRANCH  43  44
ENDBRANCH  37  43
ENDBRANCH  35  37
ENDBRANCH  31  33
ENDBRANCH  30  31
ENDBRANCH  26  30
ENDBRANCH  25  28
ENDBRANCH   1  25
TORSDOF 17
