REMARK VINA RESULT:    -6.522      2.138      4.172
REMARK INTER + INTRA:         -14.661
REMARK INTER:                 -12.750
REMARK INTRA:                  -1.911
REMARK UNBOUND:                -2.230
REMARK  Name = lig_assembled_9.pdb
REMARK  20 active torsions:
REMARK  status: ('A' for Active; 'I' for Inactive)
REMARK    1  A    between atoms: _2  and  _9
REMARK    2  A    between atoms: _4  and  _23
REMARK    3  A    between atoms: _6  and  _7
REMARK    4  A    between atoms: _6  and  _23
REMARK    5  A    between atoms: _11  and  _12
REMARK    6  A    between atoms: _12  and  _17
REMARK    7  A    between atoms: _13  and  _14
REMARK    8  A    between atoms: _13  and  _17
REMARK    9  A    between atoms: _19  and  _39
REMARK   10  A    between atoms: _21  and  _27
REMARK   11  A    between atoms: _22  and  _26
REMARK   12  A    between atoms: _26  and  _27
REMARK   13  A    between atoms: _29  and  _30
REMARK   14  A    between atoms: _31  and  _32
REMARK   15  A    between atoms: _33  and  _35
REMARK   16  A    between atoms: _35  and  _36
REMARK   17  A    between atoms: _35  and  _37
REMARK   18  A    between atoms: _37  and  _38
REMARK   19  A    between atoms: _37  and  _39
REMARK   20  A    between atoms: _40  and  _42
REMARK                            x       y       z     vdW  Elec       q    Type
REMARK                         _______ _______ _______ _____ _____    ______ ____
ROOT
ATOM      1  C   UNL     1       6.170   3.209  33.615  0.00  0.00    +0.163 C 
ENDROOT
BRANCH   1   2
ATOM      2  O   UNL     1       6.060   2.166  34.597  0.00  0.00    -0.388 OA
ATOM      3  H   UNL     1       6.434   2.467  35.428  0.00  0.00    +0.210 HD
ENDBRANCH   1   2
BRANCH   1   4
ATOM      4  C   UNL     1       7.644   3.535  33.321  0.00  0.00    +0.175 C 
BRANCH   4   5
ATOM      5  C   UNL     1       8.472   3.676  34.607  0.00  0.00    +0.176 C 
ATOM      6  O   UNL     1       8.732   2.341  35.120  0.00  0.00    -0.332 OA
ATOM      7  C   UNL     1       9.605   2.272  36.296  0.00  0.00    +0.277 C 
ATOM      8  C   UNL     1       9.057   3.172  37.430  0.00  0.00    +0.110 C 
ATOM      9  C   UNL     1       8.735   4.594  36.925  0.00  0.00    +0.143 C 
ATOM     10  C   UNL     1       7.823   4.547  35.698  0.00  0.00    +0.133 C 
BRANCH  10  11
ATOM     11  N   UNL     1       7.595   5.903  35.174  0.00  0.00    -0.308 N 
ATOM     12  H   UNL     1       8.368   6.370  34.721  0.00  0.00    +0.149 HD
ATOM     13  C   UNL     1       6.433   6.556  35.257  0.00  0.00    +0.210 C 
ATOM     14  C   UNL     1       5.282   5.828  35.976  0.00  0.00    +0.109 C 
ATOM     15  O   UNL     1       6.266   7.686  34.796  0.00  0.00    -0.276 OA
ENDBRANCH  10  11
BRANCH   7  16
ATOM     16  C   UNL     1      11.040   2.712  35.937  0.00  0.00    +0.414 C 
ATOM     17  O   UNL     1      11.413   2.715  34.765  0.00  0.00    -0.240 OA
ATOM     18  O   UNL     1      11.824   3.064  36.820  0.00  0.00    -0.240 OA
ENDBRANCH   7  16
BRANCH   7  19
ATOM     19  O   UNL     1       9.618   0.900  36.766  0.00  0.00    -0.343 OA
ATOM     20  C   UNL     1       9.499  -0.105  35.727  0.00  0.00    +0.198 C 
ENDBRANCH   7  19
BRANCH   9  21
ATOM     21  O   UNL     1       8.094   5.340  37.960  0.00  0.00    -0.390 OA
ATOM     22  H   UNL     1       7.465   4.778  38.418  0.00  0.00    +0.210 HD
ENDBRANCH   9  21
ENDBRANCH   4   5
BRANCH   4  23
ATOM     23  O   UNL     1       7.739   4.739  32.534  0.00  0.00    -0.387 OA
ATOM     24  H   UNL     1       8.118   5.441  33.067  0.00  0.00    +0.210 HD
ENDBRANCH   4  23
ENDBRANCH   1   4
BRANCH   1  25
ATOM     25  C   UNL     1       5.475   2.786  32.325  0.00  0.00    +0.141 C 
BRANCH  25  28
ATOM     26  C   UNL     1       3.083   3.398  32.422  0.00  0.00    +0.401 C 
ATOM     27  O   UNL     1       2.762   2.415  33.094  0.00  0.00    -0.226 OA
ATOM     28  N   UNL     1       4.327   3.647  32.013  0.00  0.00    -0.279 N 
ATOM     29  H   UNL     1       4.490   4.475  31.458  0.00  0.00    +0.152 HD
BRANCH  26  30
ATOM     30  O   UNL     1       2.075   4.339  32.044  0.00  0.00    -0.444 OA
BRANCH  30  31
ATOM     31  C   UNL     1       0.880   3.641  31.685  0.00  0.00    +0.292 C 
BRANCH  31  33
ATOM     32  N   UNL     1      -0.321   4.362  29.644  0.00  0.00    -0.131 NA
ATOM     33  C   UNL     1       0.696   3.660  30.222  0.00  0.00    +0.121 A 
ATOM     34  C   UNL     1       1.438   3.050  29.237  0.00  0.00    +0.143 A 
ATOM     35  N   UNL     1       0.851   3.445  28.056  0.00  0.00    -0.220 N 
ATOM     36  N   UNL     1      -0.226   4.220  28.329  0.00  0.00    -0.060 NA
BRANCH  35  37
ATOM     37  C   UNL     1       1.257   3.162  26.726  0.00  0.00    +0.068 A 
ATOM     38  C   UNL     1       0.996   4.072  25.693  0.00  0.00    +0.042 A 
ATOM     39  C   UNL     1       1.371   3.774  24.374  0.00  0.00    +0.061 A 
ATOM     40  C   UNL     1       2.015   2.563  24.094  0.00  0.00    +0.015 A 
ATOM     41  C   UNL     1       2.288   1.660  25.123  0.00  0.00    +0.003 A 
ATOM     42  C   UNL     1       1.914   1.957  26.435  0.00  0.00    +0.028 A 
BRANCH  39  43
ATOM     43  C   UNL     1       1.166   4.737  23.261  0.00  0.00    +0.339 C 
ATOM     44  O   UNL     1       0.222   5.506  23.196  0.00  0.00    -0.245 OA
BRANCH  43  45
ATOM     45  O   UNL     1       2.116   4.550  22.312  0.00  0.00    -0.461 OA
BRANCH  45  46
ATOM     46  C   UNL     1       1.646   4.543  20.958  0.00  0.00    +0.229 C 
ATOM     47  C   UNL     1       1.727   3.120  20.440  0.00  0.00    +0.048 C 
ENDBRANCH  45  46
ENDBRANCH  43  45
ENDBRANCH  39  43
ENDBRANCH  35  37
ENDBRANCH  31  33
ENDBRANCH  30  31
ENDBRANCH  26  30
ENDBRANCH  25  28
ENDBRANCH   1  25
TORSDOF 17
