REMARK VINA RESULT:    -6.351      8.754     12.558
REMARK INTER + INTRA:         -14.906
REMARK INTER:                 -12.125
REMARK INTRA:                  -2.781
REMARK UNBOUND:                -2.615
REMARK  Name = lig_assembled_83.pdb
REMARK  20 active torsions:
REMARK  status: ('A' for Active; 'I' for Inactive)
REMARK    1  A    between atoms: _2  and  _12
REMARK    2  A    between atoms: _3  and  _14
REMARK    3  A    between atoms: _7  and  _24
REMARK    4  A    between atoms: _9  and  _10
REMARK    5  A    between atoms: _9  and  _24
REMARK    6  A    between atoms: _12  and  _13
REMARK    7  A    between atoms: _13  and  _14
REMARK    8  A    between atoms: _13  and  _18
REMARK    9  A    between atoms: _20  and  _40
REMARK   10  A    between atoms: _22  and  _28
REMARK   11  A    between atoms: _23  and  _27
REMARK   12  A    between atoms: _27  and  _28
REMARK   13  A    between atoms: _30  and  _31
REMARK   14  A    between atoms: _32  and  _33
REMARK   15  A    between atoms: _34  and  _36
REMARK   16  A    between atoms: _36  and  _37
REMARK   17  A    between atoms: _36  and  _38
REMARK   18  A    between atoms: _38  and  _39
REMARK   19  A    between atoms: _38  and  _40
REMARK   20  A    between atoms: _41  and  _43
REMARK                            x       y       z     vdW  Elec       q    Type
REMARK                         _______ _______ _______ _____ _____    ______ ____
ROOT
ATOM      1  C   UNL     1       9.554   1.555  35.414  0.00  0.00    +0.141 C 
ENDROOT
BRANCH   1   4
ATOM      2  C   UNL     1      11.881   2.373  35.273  0.00  0.00    +0.401 C 
ATOM      3  O   UNL     1      12.056   2.368  36.494  0.00  0.00    -0.226 OA
ATOM      4  N   UNL     1      10.740   2.014  34.683  0.00  0.00    -0.279 N 
ATOM      5  H   UNL     1      10.690   2.062  33.675  0.00  0.00    +0.152 HD
BRANCH   2   6
ATOM      6  O   UNL     1      12.950   2.789  34.420  0.00  0.00    -0.444 OA
BRANCH   6   7
ATOM      7  C   UNL     1      14.138   2.968  35.196  0.00  0.00    +0.292 C 
BRANCH   7   9
ATOM      8  N   UNL     1      13.884   5.376  35.746  0.00  0.00    -0.131 NA
ATOM      9  C   UNL     1      14.588   4.371  35.135  0.00  0.00    +0.120 A 
ATOM     10  C   UNL     1      15.693   4.912  34.517  0.00  0.00    +0.137 A 
ATOM     11  N   UNL     1      15.611   6.240  34.803  0.00  0.00    -0.249 N 
ATOM     12  N   UNL     1      14.518   6.522  35.531  0.00  0.00    -0.065 NA
BRANCH  11  13
ATOM     13  C   UNL     1      16.511   7.294  34.385  0.00  0.00    +0.178 C 
BRANCH  13  14
ATOM     14  C   UNL     1      16.866   7.185  32.900  0.00  0.00    +0.156 C 
BRANCH  14  15
ATOM     15  O   UNL     1      15.793   7.699  32.104  0.00  0.00    -0.388 OA
ATOM     16  H   UNL     1      15.059   7.987  32.684  0.00  0.00    +0.210 HD
ENDBRANCH  14  15
BRANCH  14  17
ATOM     17  C   UNL     1      18.166   7.949  32.600  0.00  0.00    +0.162 C 
BRANCH  17  18
ATOM     18  N   UNL     1      18.577   7.827  31.210  0.00  0.00    -0.269 N 
ATOM     19  C   UNL     1      19.234   6.727  30.708  0.00  0.00    +0.113 A 
ATOM     20  C   UNL     1      19.414   6.984  29.369  0.00  0.00    +0.137 A 
ATOM     21  N   UNL     1      18.915   8.214  29.039  0.00  0.00    -0.172 NA
ATOM     22  C   UNL     1      18.413   8.698  30.160  0.00  0.00    +0.450 A 
ATOM     23  N   UNL     1      17.771   9.992  30.228  0.00  0.00    +0.120 N 
ATOM     24  O   UNL     1      17.328  10.358  31.328  0.00  0.00    +0.045 OA
ATOM     25  O   UNL     1      17.717  10.657  29.186  0.00  0.00    -0.573 OA
ENDBRANCH  17  18
ENDBRANCH  14  17
ENDBRANCH  13  14
ENDBRANCH  11  13
ENDBRANCH   7   9
ENDBRANCH   6   7
ENDBRANCH   2   6
ENDBRANCH   1   4
BRANCH   1  26
ATOM     26  C   UNL     1       8.599   2.702  35.727  0.00  0.00    +0.163 C 
BRANCH  26  27
ATOM     27  O   UNL     1       9.045   3.409  36.896  0.00  0.00    -0.388 OA
ATOM     28  H   UNL     1       9.947   3.710  36.763  0.00  0.00    +0.210 HD
ENDBRANCH  26  27
BRANCH  26  29
ATOM     29  C   UNL     1       8.513   3.645  34.514  0.00  0.00    +0.175 C 
BRANCH  29  30
ATOM     30  C   UNL     1       7.394   4.685  34.669  0.00  0.00    +0.176 C 
ATOM     31  O   UNL     1       7.795   5.623  35.705  0.00  0.00    -0.332 OA
ATOM     32  C   UNL     1       6.891   6.757  35.919  0.00  0.00    +0.277 C 
ATOM     33  C   UNL     1       5.452   6.256  36.195  0.00  0.00    +0.110 C 
ATOM     34  C   UNL     1       4.992   5.231  35.137  0.00  0.00    +0.143 C 
ATOM     35  C   UNL     1       6.008   4.097  34.993  0.00  0.00    +0.133 C 
BRANCH  35  36
ATOM     36  N   UNL     1       5.602   3.174  33.922  0.00  0.00    -0.308 N 
ATOM     37  H   UNL     1       5.636   3.512  32.970  0.00  0.00    +0.149 HD
ATOM     38  C   UNL     1       5.191   1.920  34.124  0.00  0.00    +0.210 C 
ATOM     39  C   UNL     1       5.126   1.443  35.588  0.00  0.00    +0.109 C 
ATOM     40  O   UNL     1       4.871   1.164  33.206  0.00  0.00    -0.276 OA
ENDBRANCH  35  36
BRANCH  32  41
ATOM     41  C   UNL     1       6.884   7.691  34.691  0.00  0.00    +0.414 C 
ATOM     42  O   UNL     1       7.945   8.073  34.197  0.00  0.00    -0.240 OA
ATOM     43  O   UNL     1       5.820   8.062  34.194  0.00  0.00    -0.240 OA
ENDBRANCH  32  41
BRANCH  32  44
ATOM     44  O   UNL     1       7.353   7.486  37.085  0.00  0.00    -0.343 OA
ATOM     45  C   UNL     1       8.304   6.773  37.915  0.00  0.00    +0.198 C 
ENDBRANCH  32  44
BRANCH  34  46
ATOM     46  O   UNL     1       3.727   4.685  35.512  0.00  0.00    -0.390 OA
ATOM     47  H   UNL     1       3.825   4.174  36.319  0.00  0.00    +0.210 HD
ENDBRANCH  34  46
ENDBRANCH  29  30
BRANCH  29  48
ATOM     48  O   UNL     1       8.319   2.883  33.306  0.00  0.00    -0.387 OA
ATOM     49  H   UNL     1       7.407   2.964  33.018  0.00  0.00    +0.210 HD
ENDBRANCH  29  48
ENDBRANCH  26  29
ENDBRANCH   1  26
TORSDOF 18
