REMARK VINA RESULT:    -5.450      8.851     13.484
REMARK INTER + INTRA:         -12.482
REMARK INTER:                 -10.388
REMARK INTRA:                  -2.094
REMARK UNBOUND:                -2.094
REMARK  Name = lig_assembled_19.pdb
REMARK  20 active torsions:
REMARK  status: ('A' for Active; 'I' for Inactive)
REMARK    1  A    between atoms: _2  and  _9
REMARK    2  A    between atoms: _4  and  _18
REMARK    3  A    between atoms: _5  and  _11
REMARK    4  A    between atoms: _6  and  _7
REMARK    5  A    between atoms: _6  and  _18
REMARK    6  A    between atoms: _9  and  _10
REMARK    7  A    between atoms: _10  and  _13
REMARK    8  A    between atoms: _11  and  _13
REMARK    9  A    between atoms: _14  and  _34
REMARK   10  A    between atoms: _16  and  _22
REMARK   11  A    between atoms: _17  and  _21
REMARK   12  A    between atoms: _21  and  _22
REMARK   13  A    between atoms: _24  and  _25
REMARK   14  A    between atoms: _26  and  _27
REMARK   15  A    between atoms: _28  and  _30
REMARK   16  A    between atoms: _30  and  _31
REMARK   17  A    between atoms: _30  and  _32
REMARK   18  A    between atoms: _32  and  _33
REMARK   19  A    between atoms: _32  and  _34
REMARK   20  A    between atoms: _35  and  _37
REMARK                            x       y       z     vdW  Elec       q    Type
REMARK                         _______ _______ _______ _____ _____    ______ ____
ROOT
ATOM      1  C   UNL     1       1.300   3.701  19.207  0.00  0.00    +0.163 C 
ENDROOT
BRANCH   1   2
ATOM      2  O   UNL     1       0.112   3.862  18.415  0.00  0.00    -0.388 OA
ATOM      3  H   UNL     1       0.009   3.106  17.833  0.00  0.00    +0.210 HD
ENDBRANCH   1   2
BRANCH   1   4
ATOM      4  C   UNL     1       1.106   2.612  20.275  0.00  0.00    +0.175 C 
BRANCH   4   5
ATOM      5  C   UNL     1       0.498   3.173  21.569  0.00  0.00    +0.176 C 
ATOM      6  O   UNL     1       1.416   2.881  22.658  0.00  0.00    -0.332 OA
ATOM      7  C   UNL     1       1.049   3.438  23.963  0.00  0.00    +0.277 C 
ATOM      8  C   UNL     1      -0.383   3.000  24.355  0.00  0.00    +0.110 C 
ATOM      9  C   UNL     1      -1.390   3.261  23.216  0.00  0.00    +0.143 C 
ATOM     10  C   UNL     1      -0.908   2.641  21.904  0.00  0.00    +0.133 C 
BRANCH  10  11
ATOM     11  N   UNL     1      -1.832   2.971  20.808  0.00  0.00    -0.308 N 
ATOM     12  H   UNL     1      -1.969   3.947  20.584  0.00  0.00    +0.149 HD
ATOM     13  C   UNL     1      -2.502   2.066  20.089  0.00  0.00    +0.210 C 
ATOM     14  C   UNL     1      -2.292   0.589  20.473  0.00  0.00    +0.109 C 
ATOM     15  O   UNL     1      -3.258   2.371  19.167  0.00  0.00    -0.276 OA
ENDBRANCH  10  11
BRANCH   7  16
ATOM     16  C   UNL     1       1.130   4.979  23.943  0.00  0.00    +0.414 C 
ATOM     17  O   UNL     1       0.350   5.649  24.618  0.00  0.00    -0.240 OA
ATOM     18  O   UNL     1       1.974   5.551  23.252  0.00  0.00    -0.240 OA
ENDBRANCH   7  16
BRANCH   9  19
ATOM     19  O   UNL     1      -2.661   2.707  23.559  0.00  0.00    -0.390 OA
ATOM     20  H   UNL     1      -2.552   1.786  23.807  0.00  0.00    +0.210 HD
ENDBRANCH   9  19
BRANCH   7  21
ATOM     21  O   UNL     1       1.974   2.914  24.951  0.00  0.00    -0.343 OA
ATOM     22  C   UNL     1       2.713   1.738  24.534  0.00  0.00    +0.198 C 
ENDBRANCH   7  21
ENDBRANCH   4   5
BRANCH   4  23
ATOM     23  O   UNL     1       2.362   1.963  20.557  0.00  0.00    -0.387 OA
ATOM     24  H   UNL     1       2.586   2.087  21.482  0.00  0.00    +0.210 HD
ENDBRANCH   4  23
ENDBRANCH   1   4
BRANCH   1  25
ATOM     25  C   UNL     1       2.478   3.332  18.311  0.00  0.00    +0.141 C 
BRANCH  25  28
ATOM     26  C   UNL     1       3.094   1.355  16.963  0.00  0.00    +0.401 C 
ATOM     27  O   UNL     1       4.302   1.466  17.180  0.00  0.00    -0.226 OA
ATOM     28  N   UNL     1       2.170   2.187  17.446  0.00  0.00    -0.279 N 
ATOM     29  H   UNL     1       1.203   2.019  17.204  0.00  0.00    +0.152 HD
BRANCH  26  30
ATOM     30  O   UNL     1       2.632   0.280  16.141  0.00  0.00    -0.444 OA
BRANCH  30  31
ATOM     31  C   UNL     1       2.889   0.583  14.768  0.00  0.00    +0.292 C 
BRANCH  31  33
ATOM     32  N   UNL     1       4.553  -1.235  15.029  0.00  0.00    -0.131 NA
ATOM     33  C   UNL     1       3.934  -0.308  14.231  0.00  0.00    +0.120 A 
ATOM     34  C   UNL     1       4.452  -0.394  12.958  0.00  0.00    +0.137 A 
ATOM     35  N   UNL     1       5.387  -1.380  13.053  0.00  0.00    -0.248 N 
ATOM     36  N   UNL     1       5.444  -1.888  14.294  0.00  0.00    -0.065 NA
BRANCH  35  37
ATOM     37  C   UNL     1       6.246  -1.893  12.007  0.00  0.00    +0.186 C 
BRANCH  37  38
ATOM     38  C   UNL     1       7.721  -1.670  12.325  0.00  0.00    +0.255 C 
BRANCH  38  39
ATOM     39  O   UNL     1       8.077  -0.273  12.304  0.00  0.00    -0.463 OA
BRANCH  39  40
ATOM     40  C   UNL     1       8.526   0.245  13.478  0.00  0.00    +0.304 C 
ATOM     41  O   UNL     1       7.810   0.623  14.394  0.00  0.00    -0.251 OA
ATOM     42  C   UNL     1      10.024   0.261  13.517  0.00  0.00    +0.136 C 
ENDBRANCH  39  40
ENDBRANCH  38  39
ENDBRANCH  37  38
ENDBRANCH  35  37
ENDBRANCH  31  33
ENDBRANCH  30  31
ENDBRANCH  26  30
ENDBRANCH  25  28
ENDBRANCH   1  25
TORSDOF 17
