REMARK VINA RESULT:    -5.506      2.898      4.496
REMARK INTER + INTRA:         -12.927
REMARK INTER:                 -10.171
REMARK INTRA:                  -2.756
REMARK UNBOUND:                -2.111
REMARK  Name = lig_assembled_17.pdb
REMARK  22 active torsions:
REMARK  status: ('A' for Active; 'I' for Inactive)
REMARK    1  A    between atoms: _2  and  _10
REMARK    2  A    between atoms: _3  and  _11
REMARK    3  A    between atoms: _3  and  _12
REMARK    4  A    between atoms: _3  and  _14
REMARK    5  A    between atoms: _5  and  _19
REMARK    6  A    between atoms: _6  and  _14
REMARK    7  A    between atoms: _7  and  _8
REMARK    8  A    between atoms: _7  and  _19
REMARK    9  A    between atoms: _10  and  _11
REMARK   10  A    between atoms: _12  and  _13
REMARK   11  A    between atoms: _15  and  _35
REMARK   12  A    between atoms: _17  and  _23
REMARK   13  A    between atoms: _18  and  _22
REMARK   14  A    between atoms: _22  and  _23
REMARK   15  A    between atoms: _25  and  _26
REMARK   16  A    between atoms: _27  and  _28
REMARK   17  A    between atoms: _29  and  _31
REMARK   18  A    between atoms: _31  and  _32
REMARK   19  A    between atoms: _31  and  _33
REMARK   20  A    between atoms: _33  and  _34
REMARK   21  A    between atoms: _33  and  _35
REMARK   22  A    between atoms: _36  and  _38
REMARK                            x       y       z     vdW  Elec       q    Type
REMARK                         _______ _______ _______ _____ _____    ______ ____
ROOT
ATOM      1  C   UNL     1       5.867   2.971  32.577  0.00  0.00    +0.163 C 
ENDROOT
BRANCH   1   2
ATOM      2  O   UNL     1       4.814   3.923  32.804  0.00  0.00    -0.388 OA
ATOM      3  H   UNL     1       4.792   4.161  33.734  0.00  0.00    +0.210 HD
ENDBRANCH   1   2
BRANCH   1   4
ATOM      4  C   UNL     1       7.173   3.425  33.251  0.00  0.00    +0.175 C 
BRANCH   4   5
ATOM      5  C   UNL     1       6.934   3.972  34.666  0.00  0.00    +0.176 C 
ATOM      6  O   UNL     1       6.840   5.420  34.575  0.00  0.00    -0.332 OA
ATOM      7  C   UNL     1       6.506   6.113  35.823  0.00  0.00    +0.277 C 
ATOM      8  C   UNL     1       7.502   5.722  36.943  0.00  0.00    +0.110 C 
ATOM      9  C   UNL     1       7.660   4.191  37.056  0.00  0.00    +0.143 C 
ATOM     10  C   UNL     1       8.004   3.574  35.700  0.00  0.00    +0.133 C 
BRANCH  10  11
ATOM     11  N   UNL     1       8.066   2.107  35.803  0.00  0.00    -0.308 N 
ATOM     12  H   UNL     1       7.259   1.626  36.177  0.00  0.00    +0.149 HD
ATOM     13  C   UNL     1       9.117   1.370  35.435  0.00  0.00    +0.210 C 
ATOM     14  C   UNL     1      10.340   2.135  34.894  0.00  0.00    +0.109 C 
ATOM     15  O   UNL     1       9.135   0.142  35.519  0.00  0.00    -0.276 OA
ENDBRANCH  10  11
BRANCH   7  16
ATOM     16  C   UNL     1       5.069   5.773  36.270  0.00  0.00    +0.414 C 
ATOM     17  O   UNL     1       4.211   5.490  35.435  0.00  0.00    -0.240 OA
ATOM     18  O   UNL     1       4.768   5.781  37.464  0.00  0.00    -0.240 OA
ENDBRANCH   7  16
BRANCH   9  19
ATOM     19  O   UNL     1       8.694   3.881  37.990  0.00  0.00    -0.390 OA
ATOM     20  H   UNL     1       9.466   4.420  37.804  0.00  0.00    +0.210 HD
ENDBRANCH   9  19
BRANCH   7  21
ATOM     21  O   UNL     1       6.619   7.540  35.588  0.00  0.00    -0.343 OA
ATOM     22  C   UNL     1       7.161   7.907  34.294  0.00  0.00    +0.198 C 
ENDBRANCH   7  21
ENDBRANCH   4   5
BRANCH   4  23
ATOM     23  O   UNL     1       7.832   4.418  32.439  0.00  0.00    -0.387 OA
ATOM     24  H   UNL     1       7.174   4.982  32.027  0.00  0.00    +0.210 HD
ENDBRANCH   4  23
ENDBRANCH   1   4
BRANCH   1  25
ATOM     25  C   UNL     1       5.460   1.605  33.122  0.00  0.00    +0.141 C 
BRANCH  25  28
ATOM     26  C   UNL     1       3.113   0.918  32.775  0.00  0.00    +0.401 C 
ATOM     27  O   UNL     1       3.348   0.301  31.733  0.00  0.00    -0.226 OA
ATOM     28  N   UNL     1       4.039   1.562  33.486  0.00  0.00    -0.279 N 
ATOM     29  H   UNL     1       3.746   2.047  34.322  0.00  0.00    +0.152 HD
BRANCH  26  30
ATOM     30  O   UNL     1       1.771   0.962  33.267  0.00  0.00    -0.444 OA
BRANCH  30  31
ATOM     31  C   UNL     1       1.459   2.293  33.687  0.00  0.00    +0.292 C 
BRANCH  31  33
ATOM     32  N   UNL     1       1.738   4.225  32.171  0.00  0.00    -0.131 NA
ATOM     33  C   UNL     1       1.036   3.105  32.532  0.00  0.00    +0.120 A 
ATOM     34  C   UNL     1      -0.017   2.931  31.661  0.00  0.00    +0.137 A 
ATOM     35  N   UNL     1       0.114   3.966  30.785  0.00  0.00    -0.250 N 
ATOM     36  N   UNL     1       1.161   4.748  31.099  0.00  0.00    -0.065 NA
BRANCH  35  37
ATOM     37  C   UNL     1      -0.680   4.256  29.608  0.00  0.00    +0.160 C 
BRANCH  37  38
ATOM     38  C   UNL     1      -0.290   3.325  28.451  0.00  0.00    +0.107 C 
BRANCH  38  39
ATOM     39  N   UNL     1       0.967   3.662  27.740  0.00  0.00    -0.301 NA
BRANCH  39  40
ATOM     40  C   UNL     1       2.143   2.939  28.257  0.00  0.00    +0.081 C 
ATOM     41  C   UNL     1       1.965   1.445  28.513  0.00  0.00    +0.020 C 
ENDBRANCH  39  40
BRANCH  39  42
ATOM     42  C   UNL     1       0.757   3.475  26.289  0.00  0.00    +0.081 C 
ATOM     43  C   UNL     1       1.964   3.809  25.418  0.00  0.00    +0.020 C 
ENDBRANCH  39  42
ENDBRANCH  38  39
ENDBRANCH  37  38
ENDBRANCH  35  37
ENDBRANCH  31  33
ENDBRANCH  30  31
ENDBRANCH  26  30
ENDBRANCH  25  28
ENDBRANCH   1  25
TORSDOF 18
