REMARK VINA RESULT:    -6.142      2.163      3.442
REMARK INTER + INTRA:         -12.478
REMARK INTER:                 -10.535
REMARK INTRA:                  -1.943
REMARK UNBOUND:                -1.847
REMARK  Name = lig_assembled_2.pdb
REMARK  16 active torsions:
REMARK  status: ('A' for Active; 'I' for Inactive)
REMARK    1  A    between atoms: _2  and  _9
REMARK    2  A    between atoms: _4  and  _18
REMARK    3  A    between atoms: _6  and  _7
REMARK    4  A    between atoms: _6  and  _18
REMARK    5  A    between atoms: _14  and  _34
REMARK    6  A    between atoms: _16  and  _22
REMARK    7  A    between atoms: _17  and  _21
REMARK    8  A    between atoms: _21  and  _22
REMARK    9  A    between atoms: _24  and  _25
REMARK   10  A    between atoms: _26  and  _27
REMARK   11  A    between atoms: _28  and  _30
REMARK   12  A    between atoms: _30  and  _31
REMARK   13  A    between atoms: _30  and  _32
REMARK   14  A    between atoms: _32  and  _33
REMARK   15  A    between atoms: _32  and  _34
REMARK   16  A    between atoms: _35  and  _37
REMARK                            x       y       z     vdW  Elec       q    Type
REMARK                         _______ _______ _______ _____ _____    ______ ____
ROOT
ATOM      1  C   UNL     1       3.245   2.387  32.926  0.00  0.00    +0.163 C 
ENDROOT
BRANCH   1   2
ATOM      2  O   UNL     1       3.348   1.132  33.619  0.00  0.00    -0.388 OA
ATOM      3  H   UNL     1       3.292   0.411  32.988  0.00  0.00    +0.210 HD
ENDBRANCH   1   2
BRANCH   1   4
ATOM      4  C   UNL     1       3.623   2.205  31.459  0.00  0.00    +0.141 C 
BRANCH   4   7
ATOM      5  C   UNL     1       1.678   2.856  30.082  0.00  0.00    +0.401 C 
ATOM      6  O   UNL     1       1.063   1.807  30.286  0.00  0.00    -0.226 OA
ATOM      7  N   UNL     1       2.883   3.124  30.586  0.00  0.00    -0.279 N 
ATOM      8  H   UNL     1       3.312   4.009  30.353  0.00  0.00    +0.152 HD
BRANCH   5   9
ATOM      9  O   UNL     1       1.084   3.860  29.254  0.00  0.00    -0.444 OA
BRANCH   9  10
ATOM     10  C   UNL     1       0.370   3.235  28.184  0.00  0.00    +0.292 C 
BRANCH  10  12
ATOM     11  N   UNL     1       2.352   3.901  26.860  0.00  0.00    -0.131 NA
ATOM     12  C   UNL     1       1.054   3.481  26.900  0.00  0.00    +0.121 A 
ATOM     13  C   UNL     1       0.586   3.344  25.613  0.00  0.00    +0.143 A 
ATOM     14  N   UNL     1       1.655   3.668  24.810  0.00  0.00    -0.220 N 
ATOM     15  N   UNL     1       2.708   4.019  25.588  0.00  0.00    -0.060 NA
BRANCH  14  16
ATOM     16  C   UNL     1       1.743   3.638  23.393  0.00  0.00    +0.067 A 
ATOM     17  C   UNL     1       1.749   4.824  22.646  0.00  0.00    +0.029 A 
ATOM     18  C   UNL     1       1.798   4.770  21.248  0.00  0.00    +0.022 A 
ATOM     19  C   UNL     1       1.845   3.539  20.598  0.00  0.00    +0.041 A 
ATOM     20 CL   UNL     1       1.882   3.483  18.879  0.00  0.00    -0.084 Cl
ATOM     21  C   UNL     1       1.854   2.356  21.332  0.00  0.00    +0.022 A 
ATOM     22  C   UNL     1       1.806   2.401  22.728  0.00  0.00    +0.029 A 
ENDBRANCH  14  16
ENDBRANCH  10  12
ENDBRANCH   9  10
ENDBRANCH   5   9
ENDBRANCH   4   7
ENDBRANCH   1   4
BRANCH   1  23
ATOM     23  C   UNL     1       4.161   3.445  33.565  0.00  0.00    +0.175 C 
BRANCH  23  24
ATOM     24  C   UNL     1       3.874   3.630  35.062  0.00  0.00    +0.176 C 
ATOM     25  O   UNL     1       2.435   3.551  35.255  0.00  0.00    -0.332 OA
ATOM     26  C   UNL     1       1.978   3.601  36.647  0.00  0.00    +0.277 C 
ATOM     27  C   UNL     1       2.533   4.862  37.354  0.00  0.00    +0.110 C 
ATOM     28  C   UNL     1       4.056   5.005  37.150  0.00  0.00    +0.143 C 
ATOM     29  C   UNL     1       4.420   4.936  35.667  0.00  0.00    +0.133 C 
BRANCH  29  30
ATOM     30  N   UNL     1       5.880   4.987  35.491  0.00  0.00    -0.308 N 
ATOM     31  H   UNL     1       6.424   4.212  35.844  0.00  0.00    +0.149 HD
ATOM     32  C   UNL     1       6.533   5.989  34.897  0.00  0.00    +0.210 C 
ATOM     33  C   UNL     1       5.677   7.167  34.395  0.00  0.00    +0.109 C 
ATOM     34  O   UNL     1       7.756   5.998  34.752  0.00  0.00    -0.276 OA
ENDBRANCH  29  30
BRANCH  26  35
ATOM     35  C   UNL     1       2.426   2.340  37.415  0.00  0.00    +0.414 C 
ATOM     36  O   UNL     1       2.641   1.290  36.811  0.00  0.00    -0.240 OA
ATOM     37  O   UNL     1       2.573   2.373  38.637  0.00  0.00    -0.240 OA
ENDBRANCH  26  35
BRANCH  28  38
ATOM     38  O   UNL     1       4.498   6.253  37.686  0.00  0.00    -0.390 OA
ATOM     39  H   UNL     1       4.942   6.102  38.524  0.00  0.00    +0.210 HD
ENDBRANCH  28  38
BRANCH  26  40
ATOM     40  O   UNL     1       0.529   3.680  36.641  0.00  0.00    -0.343 OA
ATOM     41  C   UNL     1      -0.010   5.025  36.603  0.00  0.00    +0.198 C 
ENDBRANCH  26  40
ENDBRANCH  23  24
BRANCH  23  42
ATOM     42  O   UNL     1       4.022   4.703  32.874  0.00  0.00    -0.387 OA
ATOM     43  H   UNL     1       4.270   5.420  33.462  0.00  0.00    +0.210 HD
ENDBRANCH  23  42
ENDBRANCH   1  23
TORSDOF 14
