REMARK VINA RESULT:    -5.529      4.498      5.584
REMARK INTER + INTRA:         -12.530
REMARK INTER:                 -10.270
REMARK INTRA:                  -2.260
REMARK UNBOUND:                -1.667
REMARK  Name = lig_assembled_43.pdb
REMARK  20 active torsions:
REMARK  status: ('A' for Active; 'I' for Inactive)
REMARK    1  A    between atoms: _2  and  _9
REMARK    2  A    between atoms: _4  and  _18
REMARK    3  A    between atoms: _6  and  _7
REMARK    4  A    between atoms: _6  and  _18
REMARK    5  A    between atoms: _9  and  _10
REMARK    6  A    between atoms: _10  and  _11
REMARK    7  A    between atoms: _11  and  _12
REMARK    8  A    between atoms: _12  and  _13
REMARK    9  A    between atoms: _14  and  _34
REMARK   10  A    between atoms: _16  and  _22
REMARK   11  A    between atoms: _17  and  _21
REMARK   12  A    between atoms: _21  and  _22
REMARK   13  A    between atoms: _24  and  _25
REMARK   14  A    between atoms: _26  and  _27
REMARK   15  A    between atoms: _28  and  _30
REMARK   16  A    between atoms: _30  and  _31
REMARK   17  A    between atoms: _30  and  _32
REMARK   18  A    between atoms: _32  and  _33
REMARK   19  A    between atoms: _32  and  _34
REMARK   20  A    between atoms: _35  and  _37
REMARK                            x       y       z     vdW  Elec       q    Type
REMARK                         _______ _______ _______ _____ _____    ______ ____
ROOT
ATOM      1  C   UNL     1       3.293   5.605  36.560  0.00  0.00    +0.163 C 
ENDROOT
BRANCH   1   2
ATOM      2  O   UNL     1       2.027   6.194  36.898  0.00  0.00    -0.388 OA
ATOM      3  H   UNL     1       1.316   5.642  36.564  0.00  0.00    +0.210 HD
ENDBRANCH   1   2
BRANCH   1   4
ATOM      4  C   UNL     1       4.299   5.763  37.712  0.00  0.00    +0.175 C 
BRANCH   4   5
ATOM      5  C   UNL     1       5.611   6.413  37.249  0.00  0.00    +0.176 C 
ATOM      6  O   UNL     1       6.105   5.659  36.108  0.00  0.00    -0.332 OA
ATOM      7  C   UNL     1       7.304   6.200  35.461  0.00  0.00    +0.277 C 
ATOM      8  C   UNL     1       8.440   6.386  36.496  0.00  0.00    +0.110 C 
ATOM      9  C   UNL     1       7.954   7.156  37.743  0.00  0.00    +0.143 C 
ATOM     10  C   UNL     1       6.701   6.509  38.333  0.00  0.00    +0.133 C 
BRANCH  10  11
ATOM     11  N   UNL     1       6.198   7.300  39.467  0.00  0.00    -0.308 N 
ATOM     12  H   UNL     1       5.853   8.231  39.276  0.00  0.00    +0.149 HD
ATOM     13  C   UNL     1       6.168   6.870  40.731  0.00  0.00    +0.210 C 
ATOM     14  C   UNL     1       6.725   5.457  40.992  0.00  0.00    +0.109 C 
ATOM     15  O   UNL     1       5.727   7.549  41.658  0.00  0.00    -0.276 OA
ENDBRANCH  10  11
BRANCH   7  16
ATOM     16  C   UNL     1       6.997   7.552  34.784  0.00  0.00    +0.414 C 
ATOM     17  O   UNL     1       7.878   8.404  34.672  0.00  0.00    -0.240 OA
ATOM     18  O   UNL     1       5.870   7.790  34.349  0.00  0.00    -0.240 OA
ENDBRANCH   7  16
BRANCH   9  19
ATOM     19  O   UNL     1       8.985   7.173  38.731  0.00  0.00    -0.390 OA
ATOM     20  H   UNL     1       8.943   6.367  39.252  0.00  0.00    +0.210 HD
ENDBRANCH   9  19
BRANCH   7  21
ATOM     21  O   UNL     1       7.747   5.244  34.464  0.00  0.00    -0.343 OA
ATOM     22  C   UNL     1       8.137   3.949  34.988  0.00  0.00    +0.198 C 
ENDBRANCH   7  21
ENDBRANCH   4   5
BRANCH   4  23
ATOM     23  O   UNL     1       4.566   4.483  38.318  0.00  0.00    -0.387 OA
ATOM     24  H   UNL     1       4.127   4.434  39.171  0.00  0.00    +0.210 HD
ENDBRANCH   4  23
ENDBRANCH   1   4
BRANCH   1  25
ATOM     25  C   UNL     1       3.111   4.125  36.242  0.00  0.00    +0.141 C 
BRANCH  25  28
ATOM     26  C   UNL     1       4.005   3.617  33.995  0.00  0.00    +0.401 C 
ATOM     27  O   UNL     1       2.995   4.005  33.402  0.00  0.00    -0.226 OA
ATOM     28  N   UNL     1       4.143   3.632  35.321  0.00  0.00    -0.279 N 
ATOM     29  H   UNL     1       5.006   3.284  35.715  0.00  0.00    +0.152 HD
BRANCH  26  30
ATOM     30  O   UNL     1       5.106   3.114  33.234  0.00  0.00    -0.444 OA
BRANCH  30  31
ATOM     31  C   UNL     1       5.418   1.786  33.666  0.00  0.00    +0.292 C 
BRANCH  31  33
ATOM     32  N   UNL     1       4.432   1.067  31.512  0.00  0.00    -0.131 NA
ATOM     33  C   UNL     1       5.312   0.842  32.539  0.00  0.00    +0.120 A 
ATOM     34  C   UNL     1       5.988  -0.334  32.302  0.00  0.00    +0.137 A 
ATOM     35  N   UNL     1       5.470  -0.776  31.122  0.00  0.00    -0.251 N 
ATOM     36  N   UNL     1       4.538   0.065  30.649  0.00  0.00    -0.065 NA
BRANCH  35  37
ATOM     37  C   UNL     1       5.787  -1.996  30.410  0.00  0.00    +0.145 C 
BRANCH  37  38
ATOM     38  C   UNL     1       6.425  -1.703  29.056  0.00  0.00    +0.024 C 
BRANCH  38  39
ATOM     39  C   UNL     1       7.762  -2.427  28.881  0.00  0.00    +0.006 C 
BRANCH  39  40
ATOM     40  C   UNL     1       7.724  -3.333  27.648  0.00  0.00    +0.026 C 
BRANCH  40  41
ATOM     41  C   UNL     1       7.096  -2.652  26.468  0.00  0.00    -0.034 C 
ATOM     42  C   UNL     1       7.793  -2.039  25.503  0.00  0.00    +0.004 C 
ENDBRANCH  40  41
ENDBRANCH  39  40
ENDBRANCH  38  39
ENDBRANCH  37  38
ENDBRANCH  35  37
ENDBRANCH  31  33
ENDBRANCH  30  31
ENDBRANCH  26  30
ENDBRANCH  25  28
ENDBRANCH   1  25
TORSDOF 18
