REMARK VINA RESULT:    -6.642      1.842      2.568
REMARK INTER + INTRA:         -14.845
REMARK INTER:                 -12.806
REMARK INTRA:                  -2.040
REMARK UNBOUND:                -2.378
REMARK  Name = lig_assembled_68.pdb
REMARK  19 active torsions:
REMARK  status: ('A' for Active; 'I' for Inactive)
REMARK    1  A    between atoms: _2  and  _9
REMARK    2  A    between atoms: _4  and  _21
REMARK    3  A    between atoms: _6  and  _7
REMARK    4  A    between atoms: _6  and  _21
REMARK    5  A    between atoms: _9  and  _10
REMARK    6  A    between atoms: _10  and  _11
REMARK    7  A    between atoms: _10  and  _16
REMARK    8  A    between atoms: _17  and  _37
REMARK    9  A    between atoms: _19  and  _25
REMARK   10  A    between atoms: _20  and  _24
REMARK   11  A    between atoms: _24  and  _25
REMARK   12  A    between atoms: _27  and  _28
REMARK   13  A    between atoms: _29  and  _30
REMARK   14  A    between atoms: _31  and  _33
REMARK   15  A    between atoms: _33  and  _34
REMARK   16  A    between atoms: _33  and  _35
REMARK   17  A    between atoms: _35  and  _36
REMARK   18  A    between atoms: _35  and  _37
REMARK   19  A    between atoms: _38  and  _40
REMARK                            x       y       z     vdW  Elec       q    Type
REMARK                         _______ _______ _______ _____ _____    ______ ____
ROOT
ATOM      1  C   UNL     1       4.853   3.249  32.401  0.00  0.00    +0.163 C 
ENDROOT
BRANCH   1   2
ATOM      2  O   UNL     1       4.110   4.336  32.977  0.00  0.00    -0.388 OA
ATOM      3  H   UNL     1       4.381   4.461  33.890  0.00  0.00    +0.210 HD
ENDBRANCH   1   2
BRANCH   1   4
ATOM      4  C   UNL     1       6.246   3.134  33.042  0.00  0.00    +0.175 C 
BRANCH   4   5
ATOM      5  C   UNL     1       6.329   3.880  34.382  0.00  0.00    +0.176 C 
ATOM      6  O   UNL     1       6.246   5.305  34.105  0.00  0.00    -0.332 OA
ATOM      7  C   UNL     1       6.203   6.178  35.282  0.00  0.00    +0.277 C 
ATOM      8  C   UNL     1       7.410   5.895  36.210  0.00  0.00    +0.110 C 
ATOM      9  C   UNL     1       7.559   4.388  36.507  0.00  0.00    +0.143 C 
ATOM     10  C   UNL     1       7.589   3.574  35.213  0.00  0.00    +0.133 C 
BRANCH  10  11
ATOM     11  N   UNL     1       7.644   2.134  35.511  0.00  0.00    -0.308 N 
ATOM     12  H   UNL     1       6.858   1.723  35.995  0.00  0.00    +0.149 HD
ATOM     13  C   UNL     1       8.663   1.336  35.183  0.00  0.00    +0.210 C 
ATOM     14  C   UNL     1       9.857   1.999  34.470  0.00  0.00    +0.109 C 
ATOM     15  O   UNL     1       8.675   0.130  35.433  0.00  0.00    -0.276 OA
ENDBRANCH  10  11
BRANCH   7  16
ATOM     16  C   UNL     1       4.890   5.974  36.067  0.00  0.00    +0.414 C 
ATOM     17  O   UNL     1       3.894   5.523  35.503  0.00  0.00    -0.240 OA
ATOM     18  O   UNL     1       4.827   6.259  37.263  0.00  0.00    -0.240 OA
ENDBRANCH   7  16
BRANCH   7  19
ATOM     19  O   UNL     1       6.290   7.552  34.825  0.00  0.00    -0.343 OA
ATOM     20  C   UNL     1       7.634   8.092  34.761  0.00  0.00    +0.198 C 
ENDBRANCH   7  19
BRANCH   9  21
ATOM     21  O   UNL     1       8.764   4.157  37.237  0.00  0.00    -0.390 OA
ATOM     22  H   UNL     1       8.597   4.265  38.176  0.00  0.00    +0.210 HD
ENDBRANCH   9  21
ENDBRANCH   4   5
BRANCH   4  23
ATOM     23  O   UNL     1       7.252   3.626  32.135  0.00  0.00    -0.387 OA
ATOM     24  H   UNL     1       6.829   3.990  31.354  0.00  0.00    +0.210 HD
ENDBRANCH   4  23
ENDBRANCH   1   4
BRANCH   1  25
ATOM     25  C   UNL     1       4.094   1.939  32.591  0.00  0.00    +0.141 C 
BRANCH  25  28
ATOM     26  C   UNL     1       1.809   1.854  31.656  0.00  0.00    +0.401 C 
ATOM     27  O   UNL     1       1.263   2.191  32.709  0.00  0.00    -0.226 OA
ATOM     28  N   UNL     1       3.126   1.705  31.513  0.00  0.00    -0.279 N 
ATOM     29  H   UNL     1       3.478   1.416  30.611  0.00  0.00    +0.152 HD
BRANCH  26  30
ATOM     30  O   UNL     1       0.999   1.597  30.506  0.00  0.00    -0.444 OA
BRANCH  30  31
ATOM     31  C   UNL     1       0.271   2.778  30.160  0.00  0.00    +0.292 C 
BRANCH  31  33
ATOM     32  N   UNL     1      -0.294   3.932  28.039  0.00  0.00    -0.131 NA
ATOM     33  C   UNL     1       0.594   3.199  28.785  0.00  0.00    +0.120 A 
ATOM     34  C   UNL     1       1.724   2.965  28.037  0.00  0.00    +0.137 A 
ATOM     35  N   UNL     1       1.468   3.588  26.850  0.00  0.00    -0.249 N 
ATOM     36  N   UNL     1       0.250   4.158  26.850  0.00  0.00    -0.065 NA
BRANCH  35  37
ATOM     37  C   UNL     1       2.286   3.590  25.656  0.00  0.00    +0.181 C 
BRANCH  37  38
ATOM     38  C   UNL     1       1.913   2.451  24.698  0.00  0.00    +0.166 C 
BRANCH  38  39
ATOM     39  C   UNL     1       1.865   2.856  23.231  0.00  0.00    -0.017 A 
ATOM     40  C   UNL     1       1.793   4.223  22.906  0.00  0.00    +0.006 A 
ATOM     41  C   UNL     1       1.774   4.640  21.573  0.00  0.00    +0.000 A 
ATOM     42  C   UNL     1       1.832   3.702  20.547  0.00  0.00    +0.000 A 
ATOM     43  C   UNL     1       1.922   2.348  20.850  0.00  0.00    +0.000 A 
ATOM     44  C   UNL     1       1.943   1.927  22.182  0.00  0.00    +0.006 A 
ENDBRANCH  38  39
BRANCH  38  45
ATOM     45  O   UNL     1       0.624   1.942  25.057  0.00  0.00    -0.385 OA
ATOM     46  H   UNL     1       0.059   1.960  24.267  0.00  0.00    +0.210 HD
ENDBRANCH  38  45
ENDBRANCH  37  38
ENDBRANCH  35  37
ENDBRANCH  31  33
ENDBRANCH  30  31
ENDBRANCH  26  30
ENDBRANCH  25  28
ENDBRANCH   1  25
TORSDOF 17
