REMARK VINA RESULT:    -5.354      5.458      6.764
REMARK INTER + INTRA:         -12.203
REMARK INTER:                 -10.616
REMARK INTRA:                  -1.587
REMARK UNBOUND:                -2.936
REMARK  Name = lig_assembled_93.pdb
REMARK  16 active torsions:
REMARK  status: ('A' for Active; 'I' for Inactive)
REMARK    1  A    between atoms: _2  and  _9
REMARK    2  A    between atoms: _4  and  _18
REMARK    3  A    between atoms: _6  and  _7
REMARK    4  A    between atoms: _6  and  _18
REMARK    5  A    between atoms: _14  and  _34
REMARK    6  A    between atoms: _16  and  _22
REMARK    7  A    between atoms: _17  and  _21
REMARK    8  A    between atoms: _21  and  _22
REMARK    9  A    between atoms: _24  and  _25
REMARK   10  A    between atoms: _26  and  _27
REMARK   11  A    between atoms: _28  and  _30
REMARK   12  A    between atoms: _30  and  _31
REMARK   13  A    between atoms: _30  and  _32
REMARK   14  A    between atoms: _32  and  _33
REMARK   15  A    between atoms: _32  and  _34
REMARK   16  A    between atoms: _35  and  _37
REMARK                            x       y       z     vdW  Elec       q    Type
REMARK                         _______ _______ _______ _____ _____    ______ ____
ROOT
ATOM      1  C   UNL     1       7.683   3.864  33.545  0.00  0.00    +0.163 C 
ENDROOT
BRANCH   1   2
ATOM      2  O   UNL     1       7.464   3.768  32.128  0.00  0.00    -0.388 OA
ATOM      3  H   UNL     1       6.871   4.469  31.847  0.00  0.00    +0.210 HD
ENDBRANCH   1   2
BRANCH   1   4
ATOM      4  C   UNL     1       8.366   2.599  34.054  0.00  0.00    +0.141 C 
BRANCH   4   7
ATOM      5  C   UNL     1       7.740   0.438  33.032  0.00  0.00    +0.401 C 
ATOM      6  O   UNL     1       6.947   0.137  33.927  0.00  0.00    -0.226 OA
ATOM      7  N   UNL     1       8.451   1.566  33.014  0.00  0.00    -0.279 N 
ATOM      8  H   UNL     1       9.083   1.719  32.241  0.00  0.00    +0.152 HD
BRANCH   5   9
ATOM      9  O   UNL     1       7.929  -0.465  31.939  0.00  0.00    -0.444 OA
BRANCH   9  10
ATOM     10  C   UNL     1       6.755  -1.264  31.771  0.00  0.00    +0.292 C 
BRANCH  10  12
ATOM     11  N   UNL     1       5.486  -1.121  29.659  0.00  0.00    -0.131 NA
ATOM     12  C   UNL     1       6.559  -1.593  30.347  0.00  0.00    +0.121 A 
ATOM     13  C   UNL     1       7.331  -2.351  29.498  0.00  0.00    +0.143 A 
ATOM     14  N   UNL     1       6.692  -2.305  28.271  0.00  0.00    -0.219 N 
ATOM     15  N   UNL     1       5.573  -1.560  28.413  0.00  0.00    -0.060 NA
BRANCH  14  16
ATOM     16  C   UNL     1       7.102  -2.902  27.037  0.00  0.00    +0.080 A 
ATOM     17  C   UNL     1       7.451  -2.035  25.974  0.00  0.00    +0.029 A 
ATOM     18  C   UNL     1       7.847  -2.524  24.726  0.00  0.00    +0.002 A 
ATOM     19  C   UNL     1       7.907  -3.889  24.504  0.00  0.00    +0.001 A 
ATOM     20  C   UNL     1       7.576  -4.766  25.534  0.00  0.00    +0.016 A 
ATOM     21  C   UNL     1       7.175  -4.291  26.802  0.00  0.00    +0.039 A 
ATOM     22  I   UNL     1       6.745  -5.863  28.151  0.00  0.00    -0.042 I 
ENDBRANCH  14  16
ENDBRANCH  10  12
ENDBRANCH   9  10
ENDBRANCH   5   9
ENDBRANCH   4   7
ENDBRANCH   1   4
BRANCH   1  23
ATOM     23  C   UNL     1       6.355   4.068  34.294  0.00  0.00    +0.175 C 
BRANCH  23  24
ATOM     24  C   UNL     1       6.439   5.206  35.321  0.00  0.00    +0.176 C 
ATOM     25  O   UNL     1       7.779   5.200  35.886  0.00  0.00    -0.332 OA
ATOM     26  C   UNL     1       8.080   6.292  36.816  0.00  0.00    +0.277 C 
ATOM     27  C   UNL     1       7.032   6.337  37.955  0.00  0.00    +0.110 C 
ATOM     28  C   UNL     1       5.591   6.313  37.405  0.00  0.00    +0.143 C 
ATOM     29  C   UNL     1       5.389   5.139  36.446  0.00  0.00    +0.133 C 
BRANCH  29  30
ATOM     30  N   UNL     1       4.040   5.177  35.861  0.00  0.00    -0.308 N 
ATOM     31  H   UNL     1       3.837   5.905  35.190  0.00  0.00    +0.149 HD
ATOM     32  C   UNL     1       3.065   4.314  36.159  0.00  0.00    +0.210 C 
ATOM     33  C   UNL     1       3.398   3.233  37.205  0.00  0.00    +0.109 C 
ATOM     34  O   UNL     1       1.949   4.361  35.642  0.00  0.00    -0.276 OA
ENDBRANCH  29  30
BRANCH  26  35
ATOM     35  C   UNL     1       8.099   7.648  36.080  0.00  0.00    +0.414 C 
ATOM     36  O   UNL     1       8.138   8.700  36.718  0.00  0.00    -0.240 OA
ATOM     37  O   UNL     1       8.077   7.691  34.850  0.00  0.00    -0.240 OA
ENDBRANCH  26  35
BRANCH  28  38
ATOM     38  O   UNL     1       4.664   6.202  38.485  0.00  0.00    -0.390 OA
ATOM     39  H   UNL     1       3.949   6.831  38.360  0.00  0.00    +0.210 HD
ENDBRANCH  28  38
BRANCH  26  40
ATOM     40  O   UNL     1       9.382   6.036  37.403  0.00  0.00    -0.343 OA
ATOM     41  C   UNL     1       9.352   5.441  38.725  0.00  0.00    +0.198 C 
ENDBRANCH  26  40
ENDBRANCH  23  24
BRANCH  23  42
ATOM     42  O   UNL     1       5.957   2.843  34.941  0.00  0.00    -0.387 OA
ATOM     43  H   UNL     1       6.517   2.688  35.706  0.00  0.00    +0.210 HD
ENDBRANCH  23  42
ENDBRANCH   1  23
TORSDOF 14
