REMARK VINA RESULT:    -5.460      5.014      6.771
REMARK INTER + INTRA:         -13.656
REMARK INTER:                 -11.463
REMARK INTRA:                  -2.194
REMARK UNBOUND:                -3.888
REMARK  Name = lig_assembled_46.pdb
REMARK  17 active torsions:
REMARK  status: ('A' for Active; 'I' for Inactive)
REMARK    1  A    between atoms: _2  and  _9
REMARK    2  A    between atoms: _4  and  _19
REMARK    3  A    between atoms: _6  and  _7
REMARK    4  A    between atoms: _6  and  _19
REMARK    5  A    between atoms: _9  and  _10
REMARK    6  A    between atoms: _15  and  _35
REMARK    7  A    between atoms: _17  and  _23
REMARK    8  A    between atoms: _18  and  _22
REMARK    9  A    between atoms: _22  and  _23
REMARK   10  A    between atoms: _25  and  _26
REMARK   11  A    between atoms: _27  and  _28
REMARK   12  A    between atoms: _29  and  _31
REMARK   13  A    between atoms: _31  and  _32
REMARK   14  A    between atoms: _31  and  _33
REMARK   15  A    between atoms: _33  and  _34
REMARK   16  A    between atoms: _33  and  _35
REMARK   17  A    between atoms: _36  and  _38
REMARK                            x       y       z     vdW  Elec       q    Type
REMARK                         _______ _______ _______ _____ _____    ______ ____
ROOT
ATOM      1  C   UNL     1       8.001   2.446  34.165  0.00  0.00    +0.163 C 
ENDROOT
BRANCH   1   2
ATOM      2  O   UNL     1       8.957   2.695  35.209  0.00  0.00    -0.388 OA
ATOM      3  H   UNL     1       9.706   3.177  34.849  0.00  0.00    +0.210 HD
ENDBRANCH   1   2
BRANCH   1   4
ATOM      4  C   UNL     1       8.437   1.243  33.335  0.00  0.00    +0.141 C 
BRANCH   4   7
ATOM      5  C   UNL     1       7.002  -0.727  33.741  0.00  0.00    +0.401 C 
ATOM      6  O   UNL     1       7.635  -1.103  34.730  0.00  0.00    -0.226 OA
ATOM      7  N   UNL     1       7.310   0.355  33.025  0.00  0.00    -0.279 N 
ATOM      8  H   UNL     1       6.736   0.576  32.224  0.00  0.00    +0.152 HD
BRANCH   5   9
ATOM      9  O   UNL     1       5.867  -1.485  33.314  0.00  0.00    -0.444 OA
BRANCH   9  10
ATOM     10  C   UNL     1       6.306  -2.694  32.689  0.00  0.00    +0.292 C 
BRANCH  10  12
ATOM     11  N   UNL     1       5.354  -3.795  30.688  0.00  0.00    -0.131 NA
ATOM     12  C   UNL     1       5.937  -2.698  31.261  0.00  0.00    +0.120 A 
ATOM     13  C   UNL     1       6.047  -1.701  30.316  0.00  0.00    +0.137 A 
ATOM     14  N   UNL     1       5.459  -2.232  29.204  0.00  0.00    -0.247 N 
ATOM     15  N   UNL     1       5.055  -3.498  29.429  0.00  0.00    -0.065 NA
BRANCH  14  16
ATOM     16  C   UNL     1       5.028  -1.529  28.008  0.00  0.00    +0.180 C 
BRANCH  16  17
ATOM     17  C   UNL     1       5.815  -1.892  26.774  0.00  0.00    -0.026 A 
ATOM     18  C   UNL     1       5.248  -1.774  25.495  0.00  0.00    +0.005 A 
ATOM     19  C   UNL     1       6.015  -2.021  24.354  0.00  0.00    +0.000 A 
ATOM     20  C   UNL     1       7.353  -2.385  24.476  0.00  0.00    +0.000 A 
ATOM     21  C   UNL     1       7.926  -2.515  25.739  0.00  0.00    +0.000 A 
ATOM     22  C   UNL     1       7.162  -2.270  26.882  0.00  0.00    +0.005 A 
ENDBRANCH  16  17
ENDBRANCH  14  16
ENDBRANCH  10  12
ENDBRANCH   9  10
ENDBRANCH   5   9
ENDBRANCH   4   7
ENDBRANCH   1   4
BRANCH   1  23
ATOM     23  C   UNL     1       7.852   3.674  33.251  0.00  0.00    +0.175 C 
BRANCH  23  24
ATOM     24  C   UNL     1       7.008   4.780  33.901  0.00  0.00    +0.176 C 
ATOM     25  O   UNL     1       7.783   5.351  34.991  0.00  0.00    -0.332 OA
ATOM     26  C   UNL     1       7.175   6.502  35.666  0.00  0.00    +0.277 C 
ATOM     27  C   UNL     1       5.753   6.146  36.165  0.00  0.00    +0.110 C 
ATOM     28  C   UNL     1       4.901   5.506  35.049  0.00  0.00    +0.143 C 
ATOM     29  C   UNL     1       5.630   4.321  34.414  0.00  0.00    +0.133 C 
BRANCH  29  30
ATOM     30  N   UNL     1       4.847   3.774  33.295  0.00  0.00    -0.308 N 
ATOM     31  H   UNL     1       4.764   4.335  32.458  0.00  0.00    +0.149 HD
ATOM     32  C   UNL     1       4.239   2.585  33.312  0.00  0.00    +0.210 C 
ATOM     33  C   UNL     1       4.363   1.766  34.610  0.00  0.00    +0.109 C 
ATOM     34  O   UNL     1       3.601   2.146  32.354  0.00  0.00    -0.276 OA
ENDBRANCH  29  30
BRANCH  26  35
ATOM     35  C   UNL     1       7.099   7.716  34.717  0.00  0.00    +0.414 C 
ATOM     36  O   UNL     1       8.131   8.248  34.307  0.00  0.00    -0.240 OA
ATOM     37  O   UNL     1       6.008   8.163  34.361  0.00  0.00    -0.240 OA
ENDBRANCH  26  35
BRANCH  26  38
ATOM     38  O   UNL     1       7.994   6.831  36.817  0.00  0.00    -0.343 OA
ATOM     39  C   UNL     1       8.763   5.727  37.358  0.00  0.00    +0.198 C 
ENDBRANCH  26  38
BRANCH  28  40
ATOM     40  O   UNL     1       3.657   5.057  35.589  0.00  0.00    -0.390 OA
ATOM     41  H   UNL     1       3.095   4.739  34.879  0.00  0.00    +0.210 HD
ENDBRANCH  28  40
ENDBRANCH  23  24
BRANCH  23  42
ATOM     42  O   UNL     1       7.275   3.286  31.988  0.00  0.00    -0.387 OA
ATOM     43  H   UNL     1       7.729   2.509  31.653  0.00  0.00    +0.210 HD
ENDBRANCH  23  42
ENDBRANCH   1  23
TORSDOF 15
