REMARK VINA RESULT:    -6.349      5.230      8.222
REMARK INTER + INTRA:         -13.134
REMARK INTER:                  -9.934
REMARK INTRA:                  -3.200
REMARK UNBOUND:                -1.775
REMARK  Name = lig_assembled_69.pdb
REMARK  18 active torsions:
REMARK  status: ('A' for Active; 'I' for Inactive)
REMARK    1  A    between atoms: _2  and  _9
REMARK    2  A    between atoms: _4  and  _21
REMARK    3  A    between atoms: _6  and  _7
REMARK    4  A    between atoms: _6  and  _21
REMARK    5  A    between atoms: _11  and  _16
REMARK    6  A    between atoms: _14  and  _15
REMARK    7  A    between atoms: _17  and  _37
REMARK    8  A    between atoms: _19  and  _25
REMARK    9  A    between atoms: _20  and  _24
REMARK   10  A    between atoms: _24  and  _25
REMARK   11  A    between atoms: _27  and  _28
REMARK   12  A    between atoms: _29  and  _30
REMARK   13  A    between atoms: _31  and  _33
REMARK   14  A    between atoms: _33  and  _34
REMARK   15  A    between atoms: _33  and  _35
REMARK   16  A    between atoms: _35  and  _36
REMARK   17  A    between atoms: _35  and  _37
REMARK   18  A    between atoms: _38  and  _40
REMARK                            x       y       z     vdW  Elec       q    Type
REMARK                         _______ _______ _______ _____ _____    ______ ____
ROOT
ATOM      1  C   UNL     1       2.862  -0.915  29.499  0.00  0.00    +0.163 C 
ENDROOT
BRANCH   1   2
ATOM      2  O   UNL     1       3.202  -2.234  29.957  0.00  0.00    -0.388 OA
ATOM      3  H   UNL     1       4.119  -2.420  29.744  0.00  0.00    +0.210 HD
ENDBRANCH   1   2
BRANCH   1   4
ATOM      4  C   UNL     1       2.684  -0.891  27.971  0.00  0.00    +0.175 C 
BRANCH   4   5
ATOM      5  C   UNL     1       3.781  -1.688  27.250  0.00  0.00    +0.176 C 
ATOM      6  O   UNL     1       5.002  -1.580  28.033  0.00  0.00    -0.332 OA
ATOM      7  C   UNL     1       6.138  -2.370  27.550  0.00  0.00    +0.277 C 
ATOM      8  C   UNL     1       6.436  -2.038  26.067  0.00  0.00    +0.110 C 
ATOM      9  C   UNL     1       5.162  -2.109  25.200  0.00  0.00    +0.143 C 
ATOM     10  C   UNL     1       4.043  -1.254  25.796  0.00  0.00    +0.133 C 
BRANCH  10  11
ATOM     11  N   UNL     1       2.808  -1.399  25.009  0.00  0.00    -0.308 N 
ATOM     12  H   UNL     1       2.325  -2.285  25.050  0.00  0.00    +0.149 HD
ATOM     13  C   UNL     1       2.285  -0.436  24.245  0.00  0.00    +0.210 C 
ATOM     14  C   UNL     1       3.060   0.894  24.184  0.00  0.00    +0.109 C 
ATOM     15  O   UNL     1       1.241  -0.581  23.609  0.00  0.00    -0.276 OA
ENDBRANCH  10  11
BRANCH   7  16
ATOM     16  C   UNL     1       5.854  -3.880  27.693  0.00  0.00    +0.414 C 
ATOM     17  O   UNL     1       6.536  -4.699  27.079  0.00  0.00    -0.240 OA
ATOM     18  O   UNL     1       4.945  -4.278  28.422  0.00  0.00    -0.240 OA
ENDBRANCH   7  16
BRANCH   7  19
ATOM     19  O   UNL     1       7.301  -2.014  28.341  0.00  0.00    -0.343 OA
ATOM     20  C   UNL     1       7.066  -1.924  29.769  0.00  0.00    +0.198 C 
ENDBRANCH   7  19
BRANCH   9  21
ATOM     21  O   UNL     1       5.452  -1.651  23.879  0.00  0.00    -0.390 OA
ATOM     22  H   UNL     1       4.809  -0.986  23.622  0.00  0.00    +0.210 HD
ENDBRANCH   9  21
ENDBRANCH   4   5
BRANCH   4  23
ATOM     23  O   UNL     1       2.664   0.469  27.494  0.00  0.00    -0.387 OA
ATOM     24  H   UNL     1       2.225   1.028  28.140  0.00  0.00    +0.210 HD
ENDBRANCH   4  23
ENDBRANCH   1   4
BRANCH   1  25
ATOM     25  C   UNL     1       1.575  -0.445  30.169  0.00  0.00    +0.141 C 
BRANCH  25  28
ATOM     26  C   UNL     1       1.478   1.972  30.670  0.00  0.00    +0.401 C 
ATOM     27  O   UNL     1       1.948   1.852  31.804  0.00  0.00    -0.226 OA
ATOM     28  N   UNL     1       1.264   0.951  29.839  0.00  0.00    -0.279 N 
ATOM     29  H   UNL     1       0.866   1.150  28.932  0.00  0.00    +0.152 HD
BRANCH  26  30
ATOM     30  O   UNL     1       1.131   3.277  30.197  0.00  0.00    -0.444 OA
BRANCH  30  31
ATOM     31  C   UNL     1       0.031   3.178  29.288  0.00  0.00    +0.292 C 
BRANCH  31  33
ATOM     32  N   UNL     1       1.780   3.595  27.593  0.00  0.00    -0.131 NA
ATOM     33  C   UNL     1       0.453   3.558  27.928  0.00  0.00    +0.120 A 
ATOM     34  C   UNL     1      -0.299   3.925  26.833  0.00  0.00    +0.137 A 
ATOM     35  N   UNL     1       0.630   4.184  25.870  0.00  0.00    -0.248 N 
ATOM     36  N   UNL     1       1.876   3.985  26.331  0.00  0.00    -0.065 NA
BRANCH  35  37
ATOM     37  C   UNL     1       0.404   4.674  24.510  0.00  0.00    +0.114 C 
ATOM     38  C   UNL     1      -0.457   3.700  23.697  0.00  0.00    +0.062 C 
ATOM     39  C   UNL     1       0.284   2.543  23.023  0.00  0.00    +0.139 C 
ATOM     40  C   UNL     1       1.166   2.901  21.860  0.00  0.00    +0.002 C 
ATOM     41  C   UNL     1       1.713   4.089  21.556  0.00  0.00    +0.002 C 
ATOM     42  C   UNL     1       1.703   5.341  22.379  0.00  0.00    +0.139 C 
ATOM     43  C   UNL     1       1.738   5.108  23.885  0.00  0.00    +0.062 C 
BRANCH  39  44
ATOM     44  O   UNL     1      -0.713   1.663  22.488  0.00  0.00    -0.388 OA
ATOM     45  H   UNL     1      -1.213   1.300  23.240  0.00  0.00    +0.210 HD
ENDBRANCH  39  44
BRANCH  42  46
ATOM     46  O   UNL     1       0.578   6.130  22.024  0.00  0.00    -0.388 OA
ATOM     47  H   UNL     1      -0.171   5.523  21.893  0.00  0.00    +0.210 HD
ENDBRANCH  42  46
ENDBRANCH  35  37
ENDBRANCH  31  33
ENDBRANCH  30  31
ENDBRANCH  26  30
ENDBRANCH  25  28
ENDBRANCH   1  25
TORSDOF 16
