REMARK VINA RESULT:    -6.439      1.687      3.985
REMARK INTER + INTRA:         -12.997
REMARK INTER:                 -11.509
REMARK INTRA:                  -1.487
REMARK UNBOUND:                -1.853
REMARK  Name = lig_assembled_86.pdb
REMARK  17 active torsions:
REMARK  status: ('A' for Active; 'I' for Inactive)
REMARK    1  A    between atoms: _2  and  _10
REMARK    2  A    between atoms: _3  and  _13
REMARK    3  A    between atoms: _5  and  _21
REMARK    4  A    between atoms: _7  and  _8
REMARK    5  A    between atoms: _7  and  _21
REMARK    6  A    between atoms: _17  and  _37
REMARK    7  A    between atoms: _19  and  _25
REMARK    8  A    between atoms: _20  and  _24
REMARK    9  A    between atoms: _24  and  _25
REMARK   10  A    between atoms: _27  and  _28
REMARK   11  A    between atoms: _29  and  _30
REMARK   12  A    between atoms: _31  and  _33
REMARK   13  A    between atoms: _33  and  _34
REMARK   14  A    between atoms: _33  and  _35
REMARK   15  A    between atoms: _35  and  _36
REMARK   16  A    between atoms: _35  and  _37
REMARK   17  A    between atoms: _38  and  _40
REMARK                            x       y       z     vdW  Elec       q    Type
REMARK                         _______ _______ _______ _____ _____    ______ ____
ROOT
ATOM      1  C   UNL     1       3.238   3.162  32.287  0.00  0.00    +0.163 C 
ENDROOT
BRANCH   1   2
ATOM      2  O   UNL     1       3.843   3.283  30.989  0.00  0.00    -0.388 OA
ATOM      3  H   UNL     1       4.169   2.426  30.706  0.00  0.00    +0.210 HD
ENDBRANCH   1   2
BRANCH   1   4
ATOM      4  C   UNL     1       1.796   3.655  32.239  0.00  0.00    +0.141 C 
BRANCH   4   7
ATOM      5  C   UNL     1       0.116   4.290  30.541  0.00  0.00    +0.401 C 
ATOM      6  O   UNL     1      -0.699   4.708  31.367  0.00  0.00    -0.226 OA
ATOM      7  N   UNL     1       1.304   3.776  30.860  0.00  0.00    -0.279 N 
ATOM      8  H   UNL     1       1.900   3.450  30.112  0.00  0.00    +0.152 HD
BRANCH   5   9
ATOM      9  O   UNL     1      -0.213   4.347  29.151  0.00  0.00    -0.444 OA
BRANCH   9  10
ATOM     10  C   UNL     1       0.178   3.126  28.517  0.00  0.00    +0.292 C 
BRANCH  10  12
ATOM     11  N   UNL     1       2.206   3.774  27.245  0.00  0.00    -0.131 NA
ATOM     12  C   UNL     1       0.885   3.411  27.254  0.00  0.00    +0.120 A 
ATOM     13  C   UNL     1       0.427   3.364  25.958  0.00  0.00    +0.137 A 
ATOM     14  N   UNL     1       1.521   3.672  25.209  0.00  0.00    -0.248 N 
ATOM     15  N   UNL     1       2.582   3.949  25.985  0.00  0.00    -0.065 NA
BRANCH  14  16
ATOM     16  C   UNL     1       1.614   3.708  23.757  0.00  0.00    +0.112 C 
ATOM     17  C   UNL     1       0.859   2.532  23.103  0.00  0.00    +0.045 C 
ATOM     18  C   UNL     1      -0.030   2.924  21.919  0.00  0.00    +0.059 C 
ATOM     19  C   UNL     1      -1.325   3.588  22.397  0.00  0.00    +0.020 C 
ATOM     20  C   UNL     1      -1.025   5.085  22.365  0.00  0.00    +0.020 C 
ATOM     21  C   UNL     1       0.446   5.172  21.952  0.00  0.00    +0.059 C 
ATOM     22  N   UNL     1       0.553   3.987  21.101  0.00  0.00    -0.299 NA
ATOM     23  C   UNL     1       1.856   3.725  20.520  0.00  0.00    +0.105 C 
ATOM     24  C   UNL     1       1.373   5.119  23.175  0.00  0.00    +0.045 C 
ENDBRANCH  14  16
ENDBRANCH  10  12
ENDBRANCH   9  10
ENDBRANCH   5   9
ENDBRANCH   4   7
ENDBRANCH   1   4
BRANCH   1  25
ATOM     25  C   UNL     1       4.022   3.969  33.337  0.00  0.00    +0.175 C 
BRANCH  25  26
ATOM     26  C   UNL     1       5.420   3.386  33.587  0.00  0.00    +0.176 C 
ATOM     27  O   UNL     1       5.259   2.014  34.042  0.00  0.00    -0.332 OA
ATOM     28  C   UNL     1       6.500   1.259  34.232  0.00  0.00    +0.277 C 
ATOM     29  C   UNL     1       7.455   2.018  35.187  0.00  0.00    +0.110 C 
ATOM     30  C   UNL     1       7.633   3.490  34.761  0.00  0.00    +0.143 C 
ATOM     31  C   UNL     1       6.279   4.180  34.589  0.00  0.00    +0.133 C 
BRANCH  31  32
ATOM     32  N   UNL     1       6.460   5.555  34.100  0.00  0.00    -0.308 N 
ATOM     33  H   UNL     1       6.842   5.680  33.173  0.00  0.00    +0.149 HD
ATOM     34  C   UNL     1       6.152   6.650  34.801  0.00  0.00    +0.210 C 
ATOM     35  C   UNL     1       5.597   6.427  36.220  0.00  0.00    +0.109 C 
ATOM     36  O   UNL     1       6.301   7.790  34.360  0.00  0.00    -0.276 OA
ENDBRANCH  31  32
BRANCH  28  37
ATOM     37  C   UNL     1       7.206   1.018  32.882  0.00  0.00    +0.414 C 
ATOM     38  O   UNL     1       6.551   0.709  31.887  0.00  0.00    -0.240 OA
ATOM     39  O   UNL     1       8.429   1.131  32.787  0.00  0.00    -0.240 OA
ENDBRANCH  28  37
BRANCH  30  40
ATOM     40  O   UNL     1       8.395   4.188  35.747  0.00  0.00    -0.390 OA
ATOM     41  H   UNL     1       9.331   4.083  35.563  0.00  0.00    +0.210 HD
ENDBRANCH  30  40
BRANCH  28  42
ATOM     42  O   UNL     1       6.162  -0.014  34.841  0.00  0.00    -0.343 OA
ATOM     43  C   UNL     1       4.770  -0.162  35.219  0.00  0.00    +0.198 C 
ENDBRANCH  28  42
ENDBRANCH  25  26
BRANCH  25  44
ATOM     44  O   UNL     1       3.280   4.029  34.572  0.00  0.00    -0.387 OA
ATOM     45  H   UNL     1       3.778   4.533  35.220  0.00  0.00    +0.210 HD
ENDBRANCH  25  44
ENDBRANCH   1  25
TORSDOF 14
