REMARK VINA RESULT:    -5.849      2.296      4.507
REMARK INTER + INTRA:         -13.993
REMARK INTER:                 -11.799
REMARK INTRA:                  -2.194
REMARK UNBOUND:                -3.014
REMARK  Name = lig_assembled_75.pdb
REMARK  19 active torsions:
REMARK  status: ('A' for Active; 'I' for Inactive)
REMARK    1  A    between atoms: _2  and  _9
REMARK    2  A    between atoms: _4  and  _23
REMARK    3  A    between atoms: _6  and  _7
REMARK    4  A    between atoms: _6  and  _23
REMARK    5  A    between atoms: _11  and  _12
REMARK    6  A    between atoms: _13  and  _14
REMARK    7  A    between atoms: _14  and  _17
REMARK    8  A    between atoms: _19  and  _39
REMARK    9  A    between atoms: _21  and  _27
REMARK   10  A    between atoms: _22  and  _26
REMARK   11  A    between atoms: _26  and  _27
REMARK   12  A    between atoms: _29  and  _30
REMARK   13  A    between atoms: _31  and  _32
REMARK   14  A    between atoms: _33  and  _35
REMARK   15  A    between atoms: _35  and  _36
REMARK   16  A    between atoms: _35  and  _37
REMARK   17  A    between atoms: _37  and  _38
REMARK   18  A    between atoms: _37  and  _39
REMARK   19  A    between atoms: _40  and  _42
REMARK                            x       y       z     vdW  Elec       q    Type
REMARK                         _______ _______ _______ _____ _____    ______ ____
ROOT
ATOM      1  C   UNL     1       3.239   3.568  32.727  0.00  0.00    +0.141 C 
ENDROOT
BRANCH   1   4
ATOM      2  C   UNL     1       1.967   2.984  30.691  0.00  0.00    +0.401 C 
ATOM      3  O   UNL     1       1.171   2.253  31.285  0.00  0.00    -0.226 OA
ATOM      4  N   UNL     1       2.969   3.633  31.285  0.00  0.00    -0.279 N 
ATOM      5  H   UNL     1       3.576   4.202  30.712  0.00  0.00    +0.152 HD
BRANCH   2   6
ATOM      6  O   UNL     1       1.830   3.157  29.278  0.00  0.00    -0.444 OA
BRANCH   6   7
ATOM      7  C   UNL     1       1.661   1.882  28.654  0.00  0.00    +0.292 C 
BRANCH   7   9
ATOM      8  N   UNL     1       2.158   0.944  26.420  0.00  0.00    -0.131 NA
ATOM      9  C   UNL     1       1.781   2.006  27.189  0.00  0.00    +0.121 A 
ATOM     10  C   UNL     1       1.565   3.096  26.379  0.00  0.00    +0.143 A 
ATOM     11  N   UNL     1       1.827   2.650  25.104  0.00  0.00    -0.220 N 
ATOM     12  N   UNL     1       2.186   1.342  25.156  0.00  0.00    -0.060 NA
BRANCH  11  13
ATOM     13  C   UNL     1       1.787   3.368  23.882  0.00  0.00    +0.068 A 
ATOM     14  C   UNL     1       1.762   2.660  22.668  0.00  0.00    +0.035 A 
ATOM     15  C   UNL     1       1.790   3.338  21.440  0.00  0.00    -0.023 A 
ATOM     16  C   UNL     1       1.778   4.738  21.445  0.00  0.00    +0.008 A 
ATOM     17  C   UNL     1       1.779   5.447  22.649  0.00  0.00    +0.003 A 
ATOM     18  C   UNL     1       1.793   4.767  23.866  0.00  0.00    +0.028 A 
BRANCH  15  19
ATOM     19  C   UNL     1       1.811   2.634  20.149  0.00  0.00    +0.015 C 
ATOM     20  C   UNL     1       2.218   3.196  18.999  0.00  0.00    +0.092 C 
BRANCH  20  21
ATOM     21  C   UNL     1       2.152   2.423  17.745  0.00  0.00    +0.330 C 
ATOM     22  O   UNL     1       2.717   1.362  17.552  0.00  0.00    -0.246 OA
BRANCH  21  23
ATOM     23  O   UNL     1       1.372   3.025  16.823  0.00  0.00    -0.478 OA
ATOM     24  H   UNL     1       1.233   2.526  15.999  0.00  0.00    +0.295 HD
ENDBRANCH  21  23
ENDBRANCH  20  21
ENDBRANCH  15  19
ENDBRANCH  11  13
ENDBRANCH   7   9
ENDBRANCH   6   7
ENDBRANCH   2   6
ENDBRANCH   1   4
BRANCH   1  25
ATOM     25  C   UNL     1       4.112   2.370  33.088  0.00  0.00    +0.163 C 
BRANCH  25  26
ATOM     26  O   UNL     1       3.286   1.228  33.369  0.00  0.00    -0.388 OA
ATOM     27  H   UNL     1       3.051   1.224  34.300  0.00  0.00    +0.210 HD
ENDBRANCH  25  26
BRANCH  25  28
ATOM     28  C   UNL     1       5.084   2.075  31.933  0.00  0.00    +0.175 C 
BRANCH  28  29
ATOM     29  C   UNL     1       6.067   0.947  32.279  0.00  0.00    +0.176 C 
ATOM     30  O   UNL     1       5.320  -0.299  32.327  0.00  0.00    -0.332 OA
ATOM     31  C   UNL     1       6.118  -1.509  32.542  0.00  0.00    +0.277 C 
ATOM     32  C   UNL     1       6.982  -1.368  33.819  0.00  0.00    +0.110 C 
ATOM     33  C   UNL     1       7.772  -0.042  33.829  0.00  0.00    +0.143 C 
ATOM     34  C   UNL     1       6.844   1.151  33.593  0.00  0.00    +0.133 C 
BRANCH  34  35
ATOM     35  N   UNL     1       7.619   2.399  33.518  0.00  0.00    -0.308 N 
ATOM     36  H   UNL     1       8.226   2.530  32.721  0.00  0.00    +0.149 HD
ATOM     37  C   UNL     1       7.574   3.370  34.435  0.00  0.00    +0.210 C 
ATOM     38  C   UNL     1       6.660   3.128  35.651  0.00  0.00    +0.109 C 
ATOM     39  O   UNL     1       8.223   4.412  34.338  0.00  0.00    -0.276 OA
ENDBRANCH  34  35
BRANCH  31  40
ATOM     40  C   UNL     1       7.032  -1.784  31.329  0.00  0.00    +0.414 C 
ATOM     41  O   UNL     1       6.734  -1.352  30.217  0.00  0.00    -0.240 OA
ATOM     42  O   UNL     1       8.068  -2.438  31.464  0.00  0.00    -0.240 OA
ENDBRANCH  31  40
BRANCH  31  43
ATOM     43  O   UNL     1       5.206  -2.622  32.727  0.00  0.00    -0.343 OA
ATOM     44  C   UNL     1       5.786  -3.791  33.359  0.00  0.00    +0.198 C 
ENDBRANCH  31  43
BRANCH  33  45
ATOM     45  O   UNL     1       8.432   0.116  35.085  0.00  0.00    -0.390 OA
ATOM     46  H   UNL     1       8.991  -0.646  35.252  0.00  0.00    +0.210 HD
ENDBRANCH  33  45
ENDBRANCH  28  29
BRANCH  28  47
ATOM     47  O   UNL     1       5.805   3.270  31.574  0.00  0.00    -0.387 OA
ATOM     48  H   UNL     1       6.737   3.063  31.470  0.00  0.00    +0.210 HD
ENDBRANCH  28  47
ENDBRANCH  25  28
ENDBRANCH   1  25
TORSDOF 17
