REMARK VINA RESULT:    -6.937      1.507      1.962
REMARK INTER + INTRA:         -15.519
REMARK INTER:                 -13.088
REMARK INTRA:                  -2.430
REMARK UNBOUND:                -2.499
REMARK  Name = lig_assembled_64.pdb
REMARK  19 active torsions:
REMARK  status: ('A' for Active; 'I' for Inactive)
REMARK    1  A    between atoms: _2  and  _10
REMARK    2  A    between atoms: _5  and  _27
REMARK    3  A    between atoms: _7  and  _8
REMARK    4  A    between atoms: _7  and  _27
REMARK    5  A    between atoms: _12  and  _13
REMARK    6  A    between atoms: _13  and  _21
REMARK    7  A    between atoms: _14  and  _15
REMARK    8  A    between atoms: _23  and  _43
REMARK    9  A    between atoms: _25  and  _31
REMARK   10  A    between atoms: _26  and  _30
REMARK   11  A    between atoms: _30  and  _31
REMARK   12  A    between atoms: _33  and  _34
REMARK   13  A    between atoms: _35  and  _36
REMARK   14  A    between atoms: _37  and  _39
REMARK   15  A    between atoms: _39  and  _40
REMARK   16  A    between atoms: _39  and  _41
REMARK   17  A    between atoms: _41  and  _42
REMARK   18  A    between atoms: _41  and  _43
REMARK   19  A    between atoms: _44  and  _46
REMARK                            x       y       z     vdW  Elec       q    Type
REMARK                         _______ _______ _______ _____ _____    ______ ____
ROOT
ATOM      1  C   UNL     1       5.551   0.762  32.167  0.00  0.00    +0.401 C 
ATOM      2  O   UNL     1       6.350  -0.073  31.737  0.00  0.00    -0.226 OA
ATOM      3  N   UNL     1       5.898   1.980  32.586  0.00  0.00    -0.279 N 
ATOM      4  H   UNL     1       5.169   2.598  32.913  0.00  0.00    +0.152 HD
ENDROOT
BRANCH   3   5
ATOM      5  C   UNL     1       7.281   2.473  32.598  0.00  0.00    +0.141 C 
BRANCH   5   6
ATOM      6  C   UNL     1       7.479   3.585  33.623  0.00  0.00    +0.163 C 
BRANCH   6   7
ATOM      7  O   UNL     1       7.766   4.824  32.954  0.00  0.00    -0.388 OA
ATOM      8  H   UNL     1       7.422   4.792  32.058  0.00  0.00    +0.210 HD
ENDBRANCH   6   7
BRANCH   6   9
ATOM      9  C   UNL     1       6.219   3.710  34.495  0.00  0.00    +0.175 C 
BRANCH   9  10
ATOM     10  C   UNL     1       6.241   4.976  35.365  0.00  0.00    +0.176 C 
ATOM     11  O   UNL     1       7.545   5.056  36.004  0.00  0.00    -0.332 OA
ATOM     12  C   UNL     1       7.790   6.265  36.797  0.00  0.00    +0.277 C 
ATOM     13  C   UNL     1       6.676   6.451  37.856  0.00  0.00    +0.110 C 
ATOM     14  C   UNL     1       5.270   6.342  37.229  0.00  0.00    +0.143 C 
ATOM     15  C   UNL     1       5.126   5.049  36.425  0.00  0.00    +0.133 C 
BRANCH  15  16
ATOM     16  N   UNL     1       3.814   4.998  35.762  0.00  0.00    -0.308 N 
ATOM     17  H   UNL     1       3.632   5.664  35.024  0.00  0.00    +0.149 HD
ATOM     18  C   UNL     1       2.847   4.130  36.071  0.00  0.00    +0.210 C 
ATOM     19  C   UNL     1       3.146   3.146  37.218  0.00  0.00    +0.109 C 
ATOM     20  O   UNL     1       1.763   4.100  35.489  0.00  0.00    -0.276 OA
ENDBRANCH  15  16
BRANCH  12  21
ATOM     21  C   UNL     1       7.852   7.511  35.889  0.00  0.00    +0.414 C 
ATOM     22  O   UNL     1       8.000   8.629  36.381  0.00  0.00    -0.240 OA
ATOM     23  O   UNL     1       7.754   7.399  34.667  0.00  0.00    -0.240 OA
ENDBRANCH  12  21
BRANCH  12  24
ATOM     24  O   UNL     1       9.055   6.100  37.488  0.00  0.00    -0.343 OA
ATOM     25  C   UNL     1       9.088   6.626  38.838  0.00  0.00    +0.198 C 
ENDBRANCH  12  24
BRANCH  14  26
ATOM     26  O   UNL     1       4.280   6.368  38.259  0.00  0.00    -0.390 OA
ATOM     27  H   UNL     1       3.406   6.310  37.865  0.00  0.00    +0.210 HD
ENDBRANCH  14  26
ENDBRANCH   9  10
BRANCH   9  28
ATOM     28  O   UNL     1       6.070   2.540  35.324  0.00  0.00    -0.387 OA
ATOM     29  H   UNL     1       6.889   2.378  35.799  0.00  0.00    +0.210 HD
ENDBRANCH   9  28
ENDBRANCH   6   9
ENDBRANCH   5   6
ENDBRANCH   3   5
BRANCH   1  30
ATOM     30  O   UNL     1       4.162   0.428  32.226  0.00  0.00    -0.444 OA
BRANCH  30  31
ATOM     31  C   UNL     1       3.378   1.616  32.079  0.00  0.00    +0.292 C 
BRANCH  31  33
ATOM     32  N   UNL     1       2.987   0.692  29.810  0.00  0.00    -0.131 NA
ATOM     33  C   UNL     1       2.772   1.672  30.736  0.00  0.00    +0.121 A 
ATOM     34  C   UNL     1       1.948   2.629  30.191  0.00  0.00    +0.143 A 
ATOM     35  N   UNL     1       1.688   2.190  28.915  0.00  0.00    -0.220 N 
ATOM     36  N   UNL     1       2.322   1.012  28.706  0.00  0.00    -0.060 NA
BRANCH  35  37
ATOM     37  C   UNL     1       0.892   2.805  27.917  0.00  0.00    +0.071 A 
ATOM     38  C   UNL     1      -0.429   3.146  28.185  0.00  0.00    +0.063 A 
ATOM     39  CA  UNL     1      -1.151   3.743  27.169  0.00  0.00    +0.150 A 
ATOM     40  N   UNL     1      -0.666   4.016  25.924  0.00  0.00    -0.240 NA
ATOM     41  C   UNL     1       0.623   3.666  25.666  0.00  0.00    +0.074 A 
ATOM     42  C   UNL     1       1.426   3.072  26.646  0.00  0.00    +0.056 A 
BRANCH  41  43
ATOM     43  C   UNL     1       1.096   3.932  24.286  0.00  0.00    +0.000 A 
ATOM     44  C   UNL     1       1.230   2.906  23.331  0.00  0.00    +0.010 A 
ATOM     45  C   UNL     1       1.641   3.175  22.020  0.00  0.00    +0.001 A 
ATOM     46  C   UNL     1       1.928   4.479  21.630  0.00  0.00    +0.000 A 
ATOM     47  C   UNL     1       1.811   5.513  22.554  0.00  0.00    +0.001 A 
ATOM     48  C   UNL     1       1.401   5.241  23.864  0.00  0.00    +0.010 A 
ENDBRANCH  41  43
BRANCH  39  49
ATOM     49  C   UNL     1      -2.572   4.126  27.411  0.00  0.00    +0.355 C 
ATOM     50  OXT UNL     1      -3.504   3.805  26.697  0.00  0.00    -0.243 OA
BRANCH  49  51
ATOM     51  O   UNL     1      -2.681   4.878  28.530  0.00  0.00    -0.476 OA
ATOM     52  H   UNL     1      -1.933   4.664  29.135  0.00  0.00    +0.295 HD
ENDBRANCH  49  51
ENDBRANCH  39  49
ENDBRANCH  35  37
ENDBRANCH  31  33
ENDBRANCH  30  31
ENDBRANCH   1  30
TORSDOF 17
