REMARK VINA RESULT:    -5.747     14.034     15.980
REMARK INTER + INTRA:         -12.818
REMARK INTER:                 -10.247
REMARK INTRA:                  -2.570
REMARK UNBOUND:                -2.536
REMARK  Name = lig_assembled_44.pdb
REMARK  17 active torsions:
REMARK  status: ('A' for Active; 'I' for Inactive)
REMARK    1  A    between atoms: _2  and  _9
REMARK    2  A    between atoms: _4  and  _19
REMARK    3  A    between atoms: _6  and  _7
REMARK    4  A    between atoms: _6  and  _19
REMARK    5  A    between atoms: _9  and  _10
REMARK    6  A    between atoms: _15  and  _35
REMARK    7  A    between atoms: _17  and  _23
REMARK    8  A    between atoms: _18  and  _22
REMARK    9  A    between atoms: _22  and  _23
REMARK   10  A    between atoms: _25  and  _26
REMARK   11  A    between atoms: _27  and  _28
REMARK   12  A    between atoms: _29  and  _31
REMARK   13  A    between atoms: _31  and  _32
REMARK   14  A    between atoms: _31  and  _33
REMARK   15  A    between atoms: _33  and  _34
REMARK   16  A    between atoms: _33  and  _35
REMARK   17  A    between atoms: _36  and  _38
REMARK                            x       y       z     vdW  Elec       q    Type
REMARK                         _______ _______ _______ _____ _____    ______ ____
ROOT
ATOM      1  C   UNL     1      18.494  10.411  29.816  0.00  0.00    +0.163 C 
ENDROOT
BRANCH   1   2
ATOM      2  O   UNL     1      17.163  10.759  30.229  0.00  0.00    -0.388 OA
ATOM      3  H   UNL     1      16.527  10.226  29.745  0.00  0.00    +0.210 HD
ENDBRANCH   1   2
BRANCH   1   4
ATOM      4  C   UNL     1      18.692  10.758  28.344  0.00  0.00    +0.141 C 
BRANCH   4   7
ATOM      5  C   UNL     1      19.817   9.506  26.535  0.00  0.00    +0.401 C 
ATOM      6  O   UNL     1      20.527  10.455  26.192  0.00  0.00    -0.226 OA
ATOM      7  N   UNL     1      18.928   9.561  27.527  0.00  0.00    -0.279 N 
ATOM      8  H   UNL     1      18.385   8.733  27.727  0.00  0.00    +0.152 HD
BRANCH   5   9
ATOM      9  O   UNL     1      19.936   8.263  25.838  0.00  0.00    -0.444 OA
BRANCH   9  10
ATOM     10  C   UNL     1      18.799   7.445  26.124  0.00  0.00    +0.292 C 
BRANCH  10  12
ATOM     11  N   UNL     1      18.110   6.635  23.885  0.00  0.00    -0.131 NA
ATOM     12  C   UNL     1      18.663   6.380  25.112  0.00  0.00    +0.120 A 
ATOM     13  C   UNL     1      19.037   5.058  25.171  0.00  0.00    +0.137 A 
ATOM     14  N   UNL     1      18.759   4.582  23.923  0.00  0.00    -0.247 N 
ATOM     15  N   UNL     1      18.164   5.522  23.166  0.00  0.00    -0.065 NA
BRANCH  14  16
ATOM     16  C   UNL     1      19.027   3.263  23.385  0.00  0.00    +0.180 C 
BRANCH  16  17
ATOM     17  C   UNL     1      18.389   2.183  24.226  0.00  0.00    -0.026 A 
ATOM     18  C   UNL     1      16.994   2.033  24.261  0.00  0.00    +0.006 A 
ATOM     19  C   UNL     1      16.406   1.044  25.051  0.00  0.00    +0.015 A 
ATOM     20  C   UNL     1      17.210   0.197  25.812  0.00  0.00    +0.018 A 
ATOM     21 BR   UNL     1      16.413  -1.153  26.868  0.00  0.00    -0.050 Br
ATOM     22  C   UNL     1      18.596   0.339  25.800  0.00  0.00    +0.015 A 
ATOM     23  C   UNL     1      19.184   1.333  25.012  0.00  0.00    +0.006 A 
ENDBRANCH  16  17
ENDBRANCH  14  16
ENDBRANCH  10  12
ENDBRANCH   9  10
ENDBRANCH   5   9
ENDBRANCH   4   7
ENDBRANCH   1   4
BRANCH   1  24
ATOM     24  C   UNL     1      18.762   8.911  30.031  0.00  0.00    +0.175 C 
BRANCH  24  25
ATOM     25  C   UNL     1      17.969   8.347  31.219  0.00  0.00    +0.176 C 
ATOM     26  O   UNL     1      18.064   9.300  32.313  0.00  0.00    -0.332 OA
ATOM     27  C   UNL     1      17.274   8.977  33.505  0.00  0.00    +0.277 C 
ATOM     28  C   UNL     1      17.622   7.557  34.016  0.00  0.00    +0.110 C 
ATOM     29  C   UNL     1      17.565   6.514  32.880  0.00  0.00    +0.143 C 
ATOM     30  C   UNL     1      18.419   6.952  31.690  0.00  0.00    +0.133 C 
BRANCH  30  31
ATOM     31  N   UNL     1      18.288   5.993  30.581  0.00  0.00    -0.308 N 
ATOM     32  H   UNL     1      17.394   5.931  30.115  0.00  0.00    +0.149 HD
ATOM     33  C   UNL     1      19.273   5.200  30.152  0.00  0.00    +0.210 C 
ATOM     34  C   UNL     1      20.615   5.299  30.901  0.00  0.00    +0.109 C 
ATOM     35  O   UNL     1      19.139   4.416  29.211  0.00  0.00    -0.276 OA
ENDBRANCH  30  31
BRANCH  27  36
ATOM     36  C   UNL     1      15.764   9.060  33.200  0.00  0.00    +0.414 C 
ATOM     37  O   UNL     1      14.997   8.197  33.627  0.00  0.00    -0.240 OA
ATOM     38  O   UNL     1      15.313   9.989  32.529  0.00  0.00    -0.240 OA
ENDBRANCH  27  36
BRANCH  27  39
ATOM     39  O   UNL     1      17.616   9.932  34.543  0.00  0.00    -0.343 OA
ATOM     40  C   UNL     1      18.534  10.978  34.134  0.00  0.00    +0.198 C 
ENDBRANCH  27  39
BRANCH  29  41
ATOM     41  O   UNL     1      18.037   5.254  33.360  0.00  0.00    -0.390 OA
ATOM     42  H   UNL     1      18.621   5.394  34.109  0.00  0.00    +0.210 HD
ENDBRANCH  29  41
ENDBRANCH  24  25
BRANCH  24  43
ATOM     43  O   UNL     1      20.173   8.681  30.222  0.00  0.00    -0.387 OA
ATOM     44  H   UNL     1      20.558   8.360  29.403  0.00  0.00    +0.210 HD
ENDBRANCH  24  43
ENDBRANCH   1  24
TORSDOF 15
