REMARK VINA RESULT:    -5.512     14.176     17.963
REMARK INTER + INTRA:         -12.994
REMARK INTER:                 -10.733
REMARK INTRA:                  -2.261
REMARK UNBOUND:                -2.970
REMARK  Name = lig_assembled_22.pdb
REMARK  20 active torsions:
REMARK  status: ('A' for Active; 'I' for Inactive)
REMARK    1  A    between atoms: _2  and  _9
REMARK    2  A    between atoms: _4  and  _18
REMARK    3  A    between atoms: _5  and  _9
REMARK    4  A    between atoms: _5  and  _12
REMARK    5  A    between atoms: _6  and  _7
REMARK    6  A    between atoms: _6  and  _18
REMARK    7  A    between atoms: _9  and  _10
REMARK    8  A    between atoms: _9  and  _11
REMARK    9  A    between atoms: _14  and  _34
REMARK   10  A    between atoms: _16  and  _22
REMARK   11  A    between atoms: _17  and  _21
REMARK   12  A    between atoms: _21  and  _22
REMARK   13  A    between atoms: _24  and  _25
REMARK   14  A    between atoms: _26  and  _27
REMARK   15  A    between atoms: _28  and  _30
REMARK   16  A    between atoms: _30  and  _31
REMARK   17  A    between atoms: _30  and  _32
REMARK   18  A    between atoms: _32  and  _33
REMARK   19  A    between atoms: _32  and  _34
REMARK   20  A    between atoms: _35  and  _37
REMARK                            x       y       z     vdW  Elec       q    Type
REMARK                         _______ _______ _______ _____ _____    ______ ____
ROOT
ATOM      1  C   UNL     1       6.718   3.746  33.497  0.00  0.00    +0.163 C 
ENDROOT
BRANCH   1   2
ATOM      2  O   UNL     1       7.435   4.878  32.978  0.00  0.00    -0.388 OA
ATOM      3  H   UNL     1       7.082   5.114  32.117  0.00  0.00    +0.210 HD
ENDBRANCH   1   2
BRANCH   1   4
ATOM      4  C   UNL     1       6.241   2.861  32.350  0.00  0.00    +0.141 C 
BRANCH   4   7
ATOM      5  C   UNL     1       4.008   2.470  31.366  0.00  0.00    +0.401 C 
ATOM      6  O   UNL     1       4.133   1.243  31.335  0.00  0.00    -0.226 OA
ATOM      7  N   UNL     1       4.946   3.303  31.819  0.00  0.00    -0.279 N 
ATOM      8  H   UNL     1       4.754   4.295  31.795  0.00  0.00    +0.152 HD
BRANCH   5   9
ATOM      9  O   UNL     1       2.795   3.057  30.889  0.00  0.00    -0.444 OA
BRANCH   9  10
ATOM     10  C   UNL     1       2.095   2.112  30.075  0.00  0.00    +0.292 C 
BRANCH  10  12
ATOM     11  N   UNL     1       2.563   3.715  28.257  0.00  0.00    -0.131 NA
ATOM     12  C   UNL     1       1.802   2.694  28.752  0.00  0.00    +0.120 A 
ATOM     13  C   UNL     1       0.821   2.381  27.837  0.00  0.00    +0.138 A 
ATOM     14  N   UNL     1       1.038   3.248  26.802  0.00  0.00    -0.235 N 
ATOM     15  N   UNL     1       2.087   4.049  27.069  0.00  0.00    -0.064 NA
BRANCH  14  16
ATOM     16  C   UNL     1       0.297   3.402  25.549  0.00  0.00    +0.155 C 
ATOM     17  C   UNL     1      -0.727   2.266  25.334  0.00  0.00    +0.048 C 
ATOM     18  C   UNL     1       1.297   3.383  24.378  0.00  0.00    +0.048 C 
BRANCH  16  19
ATOM     19  C   UNL     1      -0.475   4.724  25.546  0.00  0.00    +0.332 C 
ATOM     20  O   UNL     1      -0.851   5.299  24.530  0.00  0.00    -0.248 OA
BRANCH  19  21
ATOM     21  O   UNL     1      -0.732   5.248  26.768  0.00  0.00    -0.479 OA
ATOM     22  H   UNL     1      -0.113   5.932  27.088  0.00  0.00    +0.295 HD
ENDBRANCH  19  21
ENDBRANCH  16  19
ENDBRANCH  14  16
ENDBRANCH  10  12
ENDBRANCH   9  10
ENDBRANCH   5   9
ENDBRANCH   4   7
ENDBRANCH   1   4
BRANCH   1  23
ATOM     23  C   UNL     1       5.509   4.198  34.334  0.00  0.00    +0.175 C 
BRANCH  23  24
ATOM     24  C   UNL     1       5.884   5.287  35.350  0.00  0.00    +0.176 C 
ATOM     25  O   UNL     1       7.277   5.092  35.720  0.00  0.00    -0.332 OA
ATOM     26  C   UNL     1       7.845   6.110  36.609  0.00  0.00    +0.277 C 
ATOM     27  C   UNL     1       6.980   6.257  37.885  0.00  0.00    +0.110 C 
ATOM     28  C   UNL     1       5.486   6.434  37.543  0.00  0.00    +0.143 C 
ATOM     29  C   UNL     1       5.001   5.323  36.611  0.00  0.00    +0.133 C 
BRANCH  29  30
ATOM     30  N   UNL     1       3.600   5.551  36.223  0.00  0.00    -0.308 N 
ATOM     31  H   UNL     1       3.406   6.305  35.579  0.00  0.00    +0.149 HD
ATOM     32  C   UNL     1       2.569   4.827  36.667  0.00  0.00    +0.210 C 
ATOM     33  C   UNL     1       2.895   3.703  37.667  0.00  0.00    +0.109 C 
ATOM     34  O   UNL     1       1.407   5.032  36.313  0.00  0.00    -0.276 OA
ENDBRANCH  29  30
BRANCH  26  35
ATOM     35  C   UNL     1       7.940   7.472  35.891  0.00  0.00    +0.414 C 
ATOM     36  O   UNL     1       7.815   7.539  34.669  0.00  0.00    -0.240 OA
ATOM     37  O   UNL     1       8.141   8.504  36.533  0.00  0.00    -0.240 OA
ENDBRANCH  26  35
BRANCH  26  38
ATOM     38  O   UNL     1       9.171   5.672  37.003  0.00  0.00    -0.343 OA
ATOM     39  C   UNL     1       9.409   4.248  36.877  0.00  0.00    +0.198 C 
ENDBRANCH  26  38
BRANCH  28  40
ATOM     40  O   UNL     1       4.712   6.413  38.743  0.00  0.00    -0.390 OA
ATOM     41  H   UNL     1       5.048   7.074  39.353  0.00  0.00    +0.210 HD
ENDBRANCH  28  40
ENDBRANCH  23  24
BRANCH  23  42
ATOM     42  O   UNL     1       4.924   3.067  35.011  0.00  0.00    -0.387 OA
ATOM     43  H   UNL     1       3.982   3.215  35.125  0.00  0.00    +0.210 HD
ENDBRANCH  23  42
ENDBRANCH   1  23
TORSDOF 16
