REMARK VINA RESULT:    -5.599     12.360     14.533
REMARK INTER + INTRA:         -12.666
REMARK INTER:                 -10.486
REMARK INTRA:                  -2.180
REMARK UNBOUND:                -1.667
REMARK  Name = lig_assembled_43.pdb
REMARK  20 active torsions:
REMARK  status: ('A' for Active; 'I' for Inactive)
REMARK    1  A    between atoms: _2  and  _9
REMARK    2  A    between atoms: _4  and  _18
REMARK    3  A    between atoms: _6  and  _7
REMARK    4  A    between atoms: _6  and  _18
REMARK    5  A    between atoms: _9  and  _10
REMARK    6  A    between atoms: _10  and  _11
REMARK    7  A    between atoms: _11  and  _12
REMARK    8  A    between atoms: _12  and  _13
REMARK    9  A    between atoms: _14  and  _34
REMARK   10  A    between atoms: _16  and  _22
REMARK   11  A    between atoms: _17  and  _21
REMARK   12  A    between atoms: _21  and  _22
REMARK   13  A    between atoms: _24  and  _25
REMARK   14  A    between atoms: _26  and  _27
REMARK   15  A    between atoms: _28  and  _30
REMARK   16  A    between atoms: _30  and  _31
REMARK   17  A    between atoms: _30  and  _32
REMARK   18  A    between atoms: _32  and  _33
REMARK   19  A    between atoms: _32  and  _34
REMARK   20  A    between atoms: _35  and  _37
REMARK                            x       y       z     vdW  Elec       q    Type
REMARK                         _______ _______ _______ _____ _____    ______ ____
ROOT
ATOM      1  C   UNL     1      19.841   5.957  31.791  0.00  0.00    +0.163 C 
ENDROOT
BRANCH   1   2
ATOM      2  O   UNL     1      20.605   6.979  31.129  0.00  0.00    -0.388 OA
ATOM      3  H   UNL     1      20.126   7.287  30.356  0.00  0.00    +0.210 HD
ENDBRANCH   1   2
BRANCH   1   4
ATOM      4  C   UNL     1      18.888   6.570  32.832  0.00  0.00    +0.175 C 
BRANCH   4   5
ATOM      5  C   UNL     1      18.067   7.730  32.252  0.00  0.00    +0.176 C 
ATOM      6  O   UNL     1      18.899   8.922  32.274  0.00  0.00    -0.332 OA
ATOM      7  C   UNL     1      18.313  10.116  31.656  0.00  0.00    +0.277 C 
ATOM      8  C   UNL     1      16.933  10.429  32.285  0.00  0.00    +0.110 C 
ATOM      9  C   UNL     1      16.024   9.183  32.313  0.00  0.00    +0.143 C 
ATOM     10  C   UNL     1      16.734   8.000  32.974  0.00  0.00    +0.133 C 
BRANCH  10  11
ATOM     11  N   UNL     1      15.890   6.796  32.916  0.00  0.00    -0.308 N 
ATOM     12  H   UNL     1      15.601   6.466  32.006  0.00  0.00    +0.149 HD
ATOM     13  C   UNL     1      15.483   6.110  33.988  0.00  0.00    +0.210 C 
ATOM     14  C   UNL     1      15.919   6.654  35.361  0.00  0.00    +0.109 C 
ATOM     15  O   UNL     1      14.789   5.096  33.909  0.00  0.00    -0.276 OA
ENDBRANCH  10  11
BRANCH   7  16
ATOM     16  C   UNL     1      18.154   9.922  30.134  0.00  0.00    +0.414 C 
ATOM     17  O   UNL     1      17.415  10.664  29.488  0.00  0.00    -0.240 OA
ATOM     18  O   UNL     1      18.763   9.023  29.552  0.00  0.00    -0.240 OA
ENDBRANCH   7  16
BRANCH   9  19
ATOM     19  O   UNL     1      14.827   9.476  33.034  0.00  0.00    -0.390 OA
ATOM     20  H   UNL     1      14.425  10.272  32.678  0.00  0.00    +0.210 HD
ENDBRANCH   9  19
BRANCH   7  21
ATOM     21  O   UNL     1      19.199  11.236  31.915  0.00  0.00    -0.343 OA
ATOM     22  C   UNL     1      18.816  12.072  33.036  0.00  0.00    +0.198 C 
ENDBRANCH   7  21
ENDBRANCH   4   5
BRANCH   4  23
ATOM     23  O   UNL     1      19.632   7.015  33.984  0.00  0.00    -0.387 OA
ATOM     24  H   UNL     1      19.757   7.966  33.937  0.00  0.00    +0.210 HD
ENDBRANCH   4  23
ENDBRANCH   1   4
BRANCH   1  25
ATOM     25  C   UNL     1      19.035   5.163  30.768  0.00  0.00    +0.141 C 
BRANCH  25  28
ATOM     26  C   UNL     1      19.163   5.320  28.305  0.00  0.00    +0.401 C 
ATOM     27  O   UNL     1      19.526   4.151  28.156  0.00  0.00    -0.226 OA
ATOM     28  N   UNL     1      18.916   5.878  29.491  0.00  0.00    -0.279 N 
ATOM     29  H   UNL     1      18.632   6.847  29.512  0.00  0.00    +0.152 HD
BRANCH  26  30
ATOM     30  O   UNL     1      18.993   6.147  27.151  0.00  0.00    -0.444 OA
BRANCH  30  31
ATOM     31  C   UNL     1      19.774   5.628  26.072  0.00  0.00    +0.292 C 
BRANCH  31  33
ATOM     32  N   UNL     1      18.547   6.747  24.235  0.00  0.00    -0.131 NA
ATOM     33  C   UNL     1      18.977   5.590  24.832  0.00  0.00    +0.120 A 
ATOM     34  C   UNL     1      18.537   4.514  24.095  0.00  0.00    +0.137 A 
ATOM     35  N   UNL     1      17.844   5.083  23.069  0.00  0.00    -0.251 N 
ATOM     36  N   UNL     1      17.852   6.422  23.154  0.00  0.00    -0.065 NA
BRANCH  35  37
ATOM     37  C   UNL     1      17.126   4.419  22.001  0.00  0.00    +0.145 C 
BRANCH  37  38
ATOM     38  C   UNL     1      16.719   3.003  22.396  0.00  0.00    +0.024 C 
BRANCH  38  39
ATOM     39  C   UNL     1      17.451   1.943  21.572  0.00  0.00    +0.006 C 
BRANCH  39  40
ATOM     40  C   UNL     1      18.321   1.065  22.476  0.00  0.00    +0.026 C 
BRANCH  40  41
ATOM     41  C   UNL     1      17.542  -0.066  23.079  0.00  0.00    -0.034 C 
ATOM     42  C   UNL     1      17.101  -0.079  24.343  0.00  0.00    +0.004 C 
ENDBRANCH  40  41
ENDBRANCH  39  40
ENDBRANCH  38  39
ENDBRANCH  37  38
ENDBRANCH  35  37
ENDBRANCH  31  33
ENDBRANCH  30  31
ENDBRANCH  26  30
ENDBRANCH  25  28
ENDBRANCH   1  25
TORSDOF 18
