REMARK VINA RESULT:    -6.251     11.295     17.137
REMARK INTER + INTRA:         -13.793
REMARK INTER:                 -11.174
REMARK INTRA:                  -2.618
REMARK UNBOUND:                -2.608
REMARK  Name = lig_assembled_4.pdb
REMARK  19 active torsions:
REMARK  status: ('A' for Active; 'I' for Inactive)
REMARK    1  A    between atoms: _2  and  _9
REMARK    2  A    between atoms: _4  and  _21
REMARK    3  A    between atoms: _6  and  _7
REMARK    4  A    between atoms: _6  and  _21
REMARK    5  A    between atoms: _10  and  _11
REMARK    6  A    between atoms: _11  and  _12
REMARK    7  A    between atoms: _11  and  _13
REMARK    8  A    between atoms: _17  and  _37
REMARK    9  A    between atoms: _19  and  _25
REMARK   10  A    between atoms: _20  and  _24
REMARK   11  A    between atoms: _24  and  _25
REMARK   12  A    between atoms: _27  and  _28
REMARK   13  A    between atoms: _29  and  _30
REMARK   14  A    between atoms: _31  and  _33
REMARK   15  A    between atoms: _33  and  _34
REMARK   16  A    between atoms: _33  and  _35
REMARK   17  A    between atoms: _35  and  _36
REMARK   18  A    between atoms: _35  and  _37
REMARK   19  A    between atoms: _38  and  _40
REMARK                            x       y       z     vdW  Elec       q    Type
REMARK                         _______ _______ _______ _____ _____    ______ ____
ROOT
ATOM      1  C   UNL     1      -5.026   6.739  17.360  0.00  0.00    +0.163 C 
ENDROOT
BRANCH   1   2
ATOM      2  O   UNL     1      -5.165   5.791  16.289  0.00  0.00    -0.388 OA
ATOM      3  H   UNL     1      -4.792   6.159  15.484  0.00  0.00    +0.210 HD
ENDBRANCH   1   2
BRANCH   1   4
ATOM      4  C   UNL     1      -6.155   6.556  18.368  0.00  0.00    +0.141 C 
BRANCH   4   7
ATOM      5  C   UNL     1      -5.773   5.691  20.651  0.00  0.00    +0.401 C 
ATOM      6  O   UNL     1      -5.922   6.789  21.194  0.00  0.00    -0.226 OA
ATOM      7  N   UNL     1      -5.858   5.492  19.335  0.00  0.00    -0.279 N 
ATOM      8  H   UNL     1      -5.710   4.557  18.984  0.00  0.00    +0.152 HD
BRANCH   5   9
ATOM      9  O   UNL     1      -5.485   4.549  21.462  0.00  0.00    -0.444 OA
BRANCH   9  10
ATOM     10  C   UNL     1      -4.736   4.956  22.611  0.00  0.00    +0.292 C 
BRANCH  10  12
ATOM     11  N   UNL     1      -2.566   6.129  22.564  0.00  0.00    -0.131 NA
ATOM     12  C   UNL     1      -3.296   5.012  22.302  0.00  0.00    +0.121 A 
ATOM     13  C   UNL     1      -2.484   4.071  21.710  0.00  0.00    +0.143 A 
ATOM     14  N   UNL     1      -1.279   4.717  21.511  0.00  0.00    -0.219 N 
ATOM     15  N   UNL     1      -1.337   5.929  22.104  0.00  0.00    -0.060 NA
BRANCH  14  16
ATOM     16  C   UNL     1      -0.146   4.239  20.785  0.00  0.00    +0.070 A 
ATOM     17  C   UNL     1       1.024   3.732  21.412  0.00  0.00    -0.019 A 
ATOM     18  C   UNL     1       2.086   3.321  20.574  0.00  0.00    +0.006 A 
ATOM     19  C   UNL     1       2.012   3.413  19.184  0.00  0.00    +0.000 A 
ATOM     20  C   UNL     1       0.862   3.903  18.583  0.00  0.00    +0.002 A 
ATOM     21  C   UNL     1      -0.208   4.314  19.376  0.00  0.00    +0.028 A 
BRANCH  17  22
ATOM     22  C   UNL     1       1.210   3.615  22.926  0.00  0.00    +0.015 C 
ATOM     23  C   UNL     1       1.761   4.874  23.615  0.00  0.00    +0.012 C 
ATOM     24  C   UNL     1       2.102   2.414  23.251  0.00  0.00    +0.012 C 
ENDBRANCH  17  22
ENDBRANCH  14  16
ENDBRANCH  10  12
ENDBRANCH   9  10
ENDBRANCH   5   9
ENDBRANCH   4   7
ENDBRANCH   1   4
BRANCH   1  25
ATOM     25  C   UNL     1      -5.045   8.181  16.823  0.00  0.00    +0.175 C 
BRANCH  25  26
ATOM     26  C   UNL     1      -4.179   8.341  15.565  0.00  0.00    +0.176 C 
ATOM     27  O   UNL     1      -2.971   7.554  15.751  0.00  0.00    -0.332 OA
ATOM     28  C   UNL     1      -2.065   7.501  14.599  0.00  0.00    +0.277 C 
ATOM     29  C   UNL     1      -1.692   8.932  14.139  0.00  0.00    +0.110 C 
ATOM     30  C   UNL     1      -2.943   9.816  13.958  0.00  0.00    +0.143 C 
ATOM     31  C   UNL     1      -3.816   9.796  15.214  0.00  0.00    +0.133 C 
BRANCH  31  32
ATOM     32  N   UNL     1      -5.047  10.572  14.999  0.00  0.00    -0.308 N 
ATOM     33  H   UNL     1      -5.745  10.187  14.379  0.00  0.00    +0.149 HD
ATOM     34  C   UNL     1      -5.302  11.753  15.570  0.00  0.00    +0.210 C 
ATOM     35  C   UNL     1      -4.207  12.325  16.489  0.00  0.00    +0.109 C 
ATOM     36  O   UNL     1      -6.349  12.374  15.383  0.00  0.00    -0.276 OA
ENDBRANCH  31  32
BRANCH  28  37
ATOM     37  C   UNL     1      -2.714   6.735  13.428  0.00  0.00    +0.414 C 
ATOM     38  O   UNL     1      -3.655   5.969  13.633  0.00  0.00    -0.240 OA
ATOM     39  O   UNL     1      -2.297   6.883  12.278  0.00  0.00    -0.240 OA
ENDBRANCH  28  37
BRANCH  30  40
ATOM     40  O   UNL     1      -2.547  11.160  13.682  0.00  0.00    -0.390 OA
ATOM     41  H   UNL     1      -3.085  11.766  14.199  0.00  0.00    +0.210 HD
ENDBRANCH  30  40
BRANCH  28  42
ATOM     42  O   UNL     1      -0.852   6.823  15.014  0.00  0.00    -0.343 OA
ATOM     43  C   UNL     1      -0.842   6.371  16.391  0.00  0.00    +0.198 C 
ENDBRANCH  28  42
ENDBRANCH  25  26
BRANCH  25  44
ATOM     44  O   UNL     1      -4.609   9.098  17.847  0.00  0.00    -0.387 OA
ATOM     45  H   UNL     1      -5.296   9.748  18.009  0.00  0.00    +0.210 HD
ENDBRANCH  25  44
ENDBRANCH   1  25
TORSDOF 15
