REMARK VINA RESULT:    -6.964      0.000      0.000
REMARK INTER + INTRA:         -14.516
REMARK INTER:                 -13.003
REMARK INTRA:                  -1.513
REMARK UNBOUND:                -1.444
REMARK  Name = lig_assembled_16.pdb
REMARK  19 active torsions:
REMARK  status: ('A' for Active; 'I' for Inactive)
REMARK    1  A    between atoms: _2  and  _9
REMARK    2  A    between atoms: _4  and  _22
REMARK    3  A    between atoms: _6  and  _7
REMARK    4  A    between atoms: _6  and  _22
REMARK    5  A    between atoms: _9  and  _10
REMARK    6  A    between atoms: _13  and  _14
REMARK    7  A    between atoms: _14  and  _16
REMARK    8  A    between atoms: _18  and  _38
REMARK    9  A    between atoms: _20  and  _26
REMARK   10  A    between atoms: _21  and  _25
REMARK   11  A    between atoms: _25  and  _26
REMARK   12  A    between atoms: _28  and  _29
REMARK   13  A    between atoms: _30  and  _31
REMARK   14  A    between atoms: _32  and  _34
REMARK   15  A    between atoms: _34  and  _35
REMARK   16  A    between atoms: _34  and  _36
REMARK   17  A    between atoms: _36  and  _37
REMARK   18  A    between atoms: _36  and  _38
REMARK   19  A    between atoms: _39  and  _41
REMARK                            x       y       z     vdW  Elec       q    Type
REMARK                         _______ _______ _______ _____ _____    ______ ____
ROOT
ATOM      1  C   UNL     1       7.278   2.473  34.373  0.00  0.00    +0.163 C 
ENDROOT
BRANCH   1   2
ATOM      2  O   UNL     1       7.293   2.484  35.809  0.00  0.00    -0.388 OA
ATOM      3  H   UNL     1       6.391   2.473  36.139  0.00  0.00    +0.210 HD
ENDBRANCH   1   2
BRANCH   1   4
ATOM      4  C   UNL     1       7.739   3.828  33.808  0.00  0.00    +0.175 C 
BRANCH   4   5
ATOM      5  C   UNL     1       7.121   5.011  34.568  0.00  0.00    +0.176 C 
ATOM      6  O   UNL     1       7.824   5.145  35.834  0.00  0.00    -0.332 OA
ATOM      7  C   UNL     1       7.438   6.297  36.654  0.00  0.00    +0.277 C 
ATOM      8  C   UNL     1       5.910   6.297  36.902  0.00  0.00    +0.110 C 
ATOM      9  C   UNL     1       5.120   6.124  35.588  0.00  0.00    +0.143 C 
ATOM     10  C   UNL     1       5.605   4.899  34.813  0.00  0.00    +0.133 C 
BRANCH  10  11
ATOM     11  N   UNL     1       4.905   4.795  33.522  0.00  0.00    -0.308 N 
ATOM     12  H   UNL     1       5.114   5.486  32.815  0.00  0.00    +0.149 HD
ATOM     13  C   UNL     1       4.012   3.848  33.225  0.00  0.00    +0.210 C 
ATOM     14  C   UNL     1       3.696   2.825  34.332  0.00  0.00    +0.109 C 
ATOM     15  O   UNL     1       3.452   3.777  32.130  0.00  0.00    -0.276 OA
ENDBRANCH  10  11
BRANCH   7  16
ATOM     16  C   UNL     1       7.850   7.618  35.971  0.00  0.00    +0.414 C 
ATOM     17  O   UNL     1       7.850   7.707  34.744  0.00  0.00    -0.240 OA
ATOM     18  O   UNL     1       8.181   8.593  36.647  0.00  0.00    -0.240 OA
ENDBRANCH   7  16
BRANCH   7  19
ATOM     19  O   UNL     1       8.109   6.180  37.936  0.00  0.00    -0.343 OA
ATOM     20  C   UNL     1       7.229   6.153  39.087  0.00  0.00    +0.198 C 
ENDBRANCH   7  19
BRANCH   9  21
ATOM     21  O   UNL     1       3.729   5.978  35.877  0.00  0.00    -0.390 OA
ATOM     22  H   UNL     1       3.622   5.562  36.736  0.00  0.00    +0.210 HD
ENDBRANCH   9  21
ENDBRANCH   4   5
BRANCH   4  23
ATOM     23  O   UNL     1       7.417   3.916  32.405  0.00  0.00    -0.387 OA
ATOM     24  H   UNL     1       6.851   4.677  32.254  0.00  0.00    +0.210 HD
ENDBRANCH   4  23
ENDBRANCH   1   4
BRANCH   1  25
ATOM     25  C   UNL     1       8.189   1.367  33.850  0.00  0.00    +0.141 C 
BRANCH  25  28
ATOM     26  C   UNL     1      10.414   1.619  34.895  0.00  0.00    +0.401 C 
ATOM     27  O   UNL     1      10.067   1.130  35.972  0.00  0.00    -0.226 OA
ATOM     28  N   UNL     1       9.600   1.774  33.850  0.00  0.00    -0.279 N 
ATOM     29  H   UNL     1       9.974   2.194  33.011  0.00  0.00    +0.152 HD
BRANCH  26  30
ATOM     30  O   UNL     1      11.765   2.058  34.734  0.00  0.00    -0.444 OA
BRANCH  30  31
ATOM     31  C   UNL     1      12.205   2.702  35.933  0.00  0.00    +0.292 C 
BRANCH  31  33
ATOM     32  N   UNL     1      13.762   3.815  34.360  0.00  0.00    -0.131 NA
ATOM     33  C   UNL     1      13.244   3.700  35.625  0.00  0.00    +0.120 A 
ATOM     34  C   UNL     1      13.831   4.642  36.440  0.00  0.00    +0.137 A 
ATOM     35  N   UNL     1      14.621   5.357  35.591  0.00  0.00    -0.247 N 
ATOM     36  N   UNL     1      14.620   4.827  34.354  0.00  0.00    -0.065 NA
BRANCH  35  37
ATOM     37  C   UNL     1      15.379   6.558  35.878  0.00  0.00    +0.180 C 
BRANCH  37  38
ATOM     38  C   UNL     1      16.030   7.110  34.629  0.00  0.00    -0.026 A 
ATOM     39  C   UNL     1      17.377   6.841  34.347  0.00  0.00    +0.006 A 
ATOM     40  C   UNL     1      17.964   7.322  33.172  0.00  0.00    +0.015 A 
ATOM     41  C   UNL     1      17.218   8.086  32.272  0.00  0.00    +0.059 A 
ATOM     42  C   UNL     1      15.876   8.380  32.555  0.00  0.00    +0.015 A 
ATOM     43  C   UNL     1      15.294   7.903  33.734  0.00  0.00    +0.006 A 
BRANCH  41  44
ATOM     44  C   UNL     1      17.870   8.510  31.004  0.00  0.00    +0.337 C 
ATOM     45  O   UNL     1      18.650   7.795  30.397  0.00  0.00    -0.245 OA
BRANCH  44  46
ATOM     46  O   UNL     1      17.551   9.757  30.609  0.00  0.00    -0.477 OA
ATOM     47  H   UNL     1      17.772   9.969  29.685  0.00  0.00    +0.295 HD
ENDBRANCH  44  46
ENDBRANCH  41  44
ENDBRANCH  37  38
ENDBRANCH  35  37
ENDBRANCH  31  33
ENDBRANCH  30  31
ENDBRANCH  26  30
ENDBRANCH  25  28
ENDBRANCH   1  25
TORSDOF 17
