REMARK VINA RESULT:    -6.766      2.097      3.103
REMARK INTER + INTRA:         -13.539
REMARK INTER:                 -12.296
REMARK INTRA:                  -1.243
REMARK UNBOUND:                -1.828
REMARK  Name = lig_assembled_70.pdb
REMARK  16 active torsions:
REMARK  status: ('A' for Active; 'I' for Inactive)
REMARK    1  A    between atoms: _2  and  _10
REMARK    2  A    between atoms: _5  and  _22
REMARK    3  A    between atoms: _7  and  _8
REMARK    4  A    between atoms: _7  and  _22
REMARK    5  A    between atoms: _18  and  _38
REMARK    6  A    between atoms: _20  and  _26
REMARK    7  A    between atoms: _21  and  _25
REMARK    8  A    between atoms: _25  and  _26
REMARK    9  A    between atoms: _28  and  _29
REMARK   10  A    between atoms: _30  and  _31
REMARK   11  A    between atoms: _32  and  _34
REMARK   12  A    between atoms: _34  and  _35
REMARK   13  A    between atoms: _34  and  _36
REMARK   14  A    between atoms: _36  and  _37
REMARK   15  A    between atoms: _36  and  _38
REMARK   16  A    between atoms: _39  and  _41
REMARK                            x       y       z     vdW  Elec       q    Type
REMARK                         _______ _______ _______ _____ _____    ______ ____
ROOT
ATOM      1  C   UNL     1       3.332   3.731  32.719  0.00  0.00    +0.163 C 
ENDROOT
BRANCH   1   2
ATOM      2  O   UNL     1       1.989   3.884  33.206  0.00  0.00    -0.388 OA
ATOM      3  H   UNL     1       1.856   4.789  33.500  0.00  0.00    +0.210 HD
ENDBRANCH   1   2
BRANCH   1   4
ATOM      4  C   UNL     1       3.377   2.650  31.644  0.00  0.00    +0.141 C 
BRANCH   4   7
ATOM      5  C   UNL     1       1.618   3.148  29.981  0.00  0.00    +0.401 C 
ATOM      6  O   UNL     1       0.699   2.722  30.686  0.00  0.00    -0.226 OA
ATOM      7  N   UNL     1       2.900   3.147  30.347  0.00  0.00    -0.279 N 
ATOM      8  H   UNL     1       3.582   3.509  29.696  0.00  0.00    +0.152 HD
BRANCH   5   9
ATOM      9  O   UNL     1       1.313   3.676  28.688  0.00  0.00    -0.444 OA
BRANCH   9  10
ATOM     10  C   UNL     1       1.432   2.640  27.709  0.00  0.00    +0.292 C 
BRANCH  10  12
ATOM     11  N   UNL     1       2.589   4.033  26.016  0.00  0.00    -0.131 NA
ATOM     12  C   UNL     1       1.548   3.218  26.357  0.00  0.00    +0.121 A 
ATOM     13  C   UNL     1       0.720   3.070  25.269  0.00  0.00    +0.143 A 
ATOM     14  N   UNL     1       1.308   3.812  24.271  0.00  0.00    -0.218 N 
ATOM     15  N   UNL     1       2.431   4.396  24.749  0.00  0.00    -0.060 NA
BRANCH  14  16
ATOM     16  C   UNL     1       0.888   3.969  22.934  0.00  0.00    +0.086 A 
ATOM     17  C   UNL     1      -0.339   4.543  22.645  0.00  0.00    +0.139 A 
ATOM     18  N   UNL     1      -0.786   4.766  21.382  0.00  0.00    -0.253 NA
ATOM     19  C   UNL     1       0.009   4.418  20.354  0.00  0.00    +0.071 A 
ATOM     20  C   UNL     1       1.267   3.813  20.551  0.00  0.00    +0.002 A 
ATOM     21  C   UNL     1       2.072   3.463  19.451  0.00  0.00    +0.010 A 
ATOM     22  C   UNL     1       1.642   3.731  18.154  0.00  0.00    +0.001 A 
ATOM     23  C   UNL     1       0.407   4.335  17.954  0.00  0.00    +0.002 A 
ATOM     24  C   UNL     1      -0.397   4.665  19.049  0.00  0.00    +0.028 A 
ATOM     25  C   UNL     1       1.696   3.582  21.864  0.00  0.00    +0.039 A 
ENDBRANCH  14  16
ENDBRANCH  10  12
ENDBRANCH   9  10
ENDBRANCH   5   9
ENDBRANCH   4   7
ENDBRANCH   1   4
BRANCH   1  26
ATOM     26  C   UNL     1       4.293   3.359  33.861  0.00  0.00    +0.175 C 
BRANCH  26  27
ATOM     27  C   UNL     1       4.669   4.577  34.719  0.00  0.00    +0.176 C 
ATOM     28  O   UNL     1       6.119   4.683  34.733  0.00  0.00    -0.332 OA
ATOM     29  C   UNL     1       6.662   5.858  35.421  0.00  0.00    +0.277 C 
ATOM     30  C   UNL     1       6.118   5.936  36.869  0.00  0.00    +0.110 C 
ATOM     31  C   UNL     1       4.581   5.796  36.907  0.00  0.00    +0.143 C 
ATOM     32  C   UNL     1       4.125   4.543  36.159  0.00  0.00    +0.133 C 
BRANCH  32  33
ATOM     33  N   UNL     1       2.656   4.467  36.129  0.00  0.00    -0.308 N 
ATOM     34  H   UNL     1       2.156   5.196  35.639  0.00  0.00    +0.149 HD
ATOM     35  C   UNL     1       1.941   3.498  36.706  0.00  0.00    +0.210 C 
ATOM     36  C   UNL     1       2.731   2.416  37.466  0.00  0.00    +0.109 C 
ATOM     37  O   UNL     1       0.711   3.452  36.651  0.00  0.00    -0.276 OA
ENDBRANCH  32  33
BRANCH  29  38
ATOM     38  C   UNL     1       6.300   7.152  34.663  0.00  0.00    +0.414 C 
ATOM     39  O   UNL     1       7.028   8.141  34.742  0.00  0.00    -0.240 OA
ATOM     40  O   UNL     1       5.281   7.207  33.974  0.00  0.00    -0.240 OA
ENDBRANCH  29  38
BRANCH  31  41
ATOM     41  O   UNL     1       4.138   5.722  38.263  0.00  0.00    -0.390 OA
ATOM     42  H   UNL     1       3.941   4.810  38.487  0.00  0.00    +0.210 HD
ENDBRANCH  31  41
BRANCH  29  43
ATOM     43  O   UNL     1       8.105   5.715  35.483  0.00  0.00    -0.343 OA
ATOM     44  C   UNL     1       8.573   4.463  36.045  0.00  0.00    +0.198 C 
ENDBRANCH  29  43
ENDBRANCH  26  27
BRANCH  26  45
ATOM     45  O   UNL     1       5.481   2.740  33.330  0.00  0.00    -0.387 OA
ATOM     46  H   UNL     1       5.619   3.034  32.426  0.00  0.00    +0.210 HD
ENDBRANCH  26  45
ENDBRANCH   1  26
TORSDOF 14
