REMARK VINA RESULT:    -5.795      4.699     10.631
REMARK INTER + INTRA:         -14.576
REMARK INTER:                 -12.207
REMARK INTRA:                  -2.369
REMARK UNBOUND:                -2.852
REMARK  Name = lig_assembled_11.pdb
REMARK  22 active torsions:
REMARK  status: ('A' for Active; 'I' for Inactive)
REMARK    1  A    between atoms: _2  and  _9
REMARK    2  A    between atoms: _4  and  _21
REMARK    3  A    between atoms: _5  and  _9
REMARK    4  A    between atoms: _5  and  _13
REMARK    5  A    between atoms: _6  and  _7
REMARK    6  A    between atoms: _6  and  _21
REMARK    7  A    between atoms: _9  and  _10
REMARK    8  A    between atoms: _10  and  _11
REMARK    9  A    between atoms: _11  and  _12
REMARK   10  A    between atoms: _12  and  _15
REMARK   11  A    between atoms: _17  and  _37
REMARK   12  A    between atoms: _19  and  _25
REMARK   13  A    between atoms: _20  and  _24
REMARK   14  A    between atoms: _24  and  _25
REMARK   15  A    between atoms: _27  and  _28
REMARK   16  A    between atoms: _29  and  _30
REMARK   17  A    between atoms: _31  and  _33
REMARK   18  A    between atoms: _33  and  _34
REMARK   19  A    between atoms: _33  and  _35
REMARK   20  A    between atoms: _35  and  _36
REMARK   21  A    between atoms: _35  and  _37
REMARK   22  A    between atoms: _38  and  _40
REMARK                            x       y       z     vdW  Elec       q    Type
REMARK                         _______ _______ _______ _____ _____    ______ ____
ROOT
ATOM      1  C   UNL     1      17.113   2.541  27.027  0.00  0.00    +0.163 C 
ENDROOT
BRANCH   1   2
ATOM      2  O   UNL     1      17.559   3.435  25.994  0.00  0.00    -0.388 OA
ATOM      3  H   UNL     1      17.964   4.209  26.393  0.00  0.00    +0.210 HD
ENDBRANCH   1   2
BRANCH   1   4
ATOM      4  C   UNL     1      16.767   1.159  26.446  0.00  0.00    +0.175 C 
BRANCH   4   5
ATOM      5  C   UNL     1      17.568   0.850  25.173  0.00  0.00    +0.176 C 
ATOM      6  O   UNL     1      17.037   1.675  24.100  0.00  0.00    -0.332 OA
ATOM      7  C   UNL     1      17.752   1.592  22.823  0.00  0.00    +0.277 C 
ATOM      8  C   UNL     1      17.850   0.120  22.352  0.00  0.00    +0.110 C 
ATOM      9  C   UNL     1      18.380  -0.802  23.471  0.00  0.00    +0.143 C 
ATOM     10  C   UNL     1      17.565  -0.632  24.754  0.00  0.00    +0.133 C 
BRANCH  10  11
ATOM     11  N   UNL     1      18.133  -1.450  25.837  0.00  0.00    -0.308 N 
ATOM     12  H   UNL     1      19.079  -1.250  26.132  0.00  0.00    +0.149 HD
ATOM     13  C   UNL     1      17.481  -2.438  26.455  0.00  0.00    +0.210 C 
ATOM     14  C   UNL     1      16.052  -2.734  25.964  0.00  0.00    +0.109 C 
ATOM     15  O   UNL     1      17.977  -3.097  27.369  0.00  0.00    -0.276 OA
ENDBRANCH  10  11
BRANCH   7  16
ATOM     16  C   UNL     1      19.170   2.187  22.950  0.00  0.00    +0.414 C 
ATOM     17  O   UNL     1      20.085   1.769  22.242  0.00  0.00    -0.240 OA
ATOM     18  O   UNL     1      19.399   3.086  23.761  0.00  0.00    -0.240 OA
ENDBRANCH   7  16
BRANCH   7  19
ATOM     19  O   UNL     1      16.996   2.339  21.835  0.00  0.00    -0.343 OA
ATOM     20  C   UNL     1      17.045   1.799  20.490  0.00  0.00    +0.198 C 
ENDBRANCH   7  19
BRANCH   9  21
ATOM     21  O   UNL     1      18.310  -2.163  23.046  0.00  0.00    -0.390 OA
ATOM     22  H   UNL     1      18.567  -2.225  22.124  0.00  0.00    +0.210 HD
ENDBRANCH   9  21
ENDBRANCH   4   5
BRANCH   4  23
ATOM     23  O   UNL     1      15.353   1.073  26.177  0.00  0.00    -0.387 OA
ATOM     24  H   UNL     1      14.946   0.462  26.795  0.00  0.00    +0.210 HD
ENDBRANCH   4  23
ENDBRANCH   1   4
BRANCH   1  25
ATOM     25  C   UNL     1      18.196   2.391  28.090  0.00  0.00    +0.141 C 
BRANCH  25  28
ATOM     26  C   UNL     1      18.929   4.626  28.845  0.00  0.00    +0.401 C 
ATOM     27  O   UNL     1      19.675   4.811  27.881  0.00  0.00    -0.226 OA
ATOM     28  N   UNL     1      18.205   3.521  29.027  0.00  0.00    -0.279 N 
ATOM     29  H   UNL     1      17.630   3.459  29.855  0.00  0.00    +0.152 HD
BRANCH  26  30
ATOM     30  O   UNL     1      18.822   5.643  29.845  0.00  0.00    -0.444 OA
BRANCH  30  31
ATOM     31  C   UNL     1      18.989   6.928  29.239  0.00  0.00    +0.292 C 
BRANCH  31  33
ATOM     32  N   UNL     1      18.396   9.288  29.693  0.00  0.00    -0.131 NA
ATOM     33  C   UNL     1      18.388   7.977  30.083  0.00  0.00    +0.120 A 
ATOM     34  C   UNL     1      17.754   7.876  31.301  0.00  0.00    +0.138 A 
ATOM     35  N   UNL     1      17.437   9.164  31.624  0.00  0.00    -0.238 N 
ATOM     36  N   UNL     1      17.800  10.005  30.637  0.00  0.00    -0.065 NA
BRANCH  35  37
ATOM     37  C   UNL     1      16.678   9.697  32.750  0.00  0.00    +0.217 C 
BRANCH  37  38
ATOM     38  C   UNL     1      16.443  11.198  32.678  0.00  0.00    +0.330 C 
ATOM     39  O   UNL     1      17.045  12.048  33.316  0.00  0.00    -0.249 OA
BRANCH  38  40
ATOM     40  O   UNL     1      15.459  11.561  31.817  0.00  0.00    -0.479 OA
ATOM     41  H   UNL     1      14.691  10.964  31.739  0.00  0.00    +0.295 HD
ENDBRANCH  38  40
ENDBRANCH  37  38
BRANCH  37  42
ATOM     42  C   UNL     1      17.269   9.254  34.101  0.00  0.00    +0.049 C 
BRANCH  42  43
ATOM     43  C   UNL     1      16.268   8.596  35.060  0.00  0.00    +0.123 C 
BRANCH  43  44
ATOM     44  C   UNL     1      16.021   7.154  34.680  0.00  0.00    +0.305 C 
ATOM     45  O   UNL     1      16.884   6.373  34.317  0.00  0.00    -0.251 OA
BRANCH  44  46
ATOM     46  O   UNL     1      14.716   6.811  34.761  0.00  0.00    -0.481 OA
ATOM     47  H   UNL     1      14.336   6.464  33.932  0.00  0.00    +0.295 HD
ENDBRANCH  44  46
ENDBRANCH  43  44
ENDBRANCH  42  43
ENDBRANCH  37  42
ENDBRANCH  35  37
ENDBRANCH  31  33
ENDBRANCH  30  31
ENDBRANCH  26  30
ENDBRANCH  25  28
ENDBRANCH   1  25
TORSDOF 20
