REMARK VINA RESULT:    -5.376     12.877     15.866
REMARK INTER + INTRA:         -12.447
REMARK INTER:                 -10.601
REMARK INTRA:                  -1.846
REMARK UNBOUND:                -2.671
REMARK  Name = lig_assembled_1.pdb
REMARK  18 active torsions:
REMARK  status: ('A' for Active; 'I' for Inactive)
REMARK    1  A    between atoms: _2  and  _9
REMARK    2  A    between atoms: _4  and  _15
REMARK    3  A    between atoms: _5  and  _9
REMARK    4  A    between atoms: _5  and  _10
REMARK    5  A    between atoms: _6  and  _7
REMARK    6  A    between atoms: _6  and  _15
REMARK    7  A    between atoms: _11  and  _31
REMARK    8  A    between atoms: _13  and  _19
REMARK    9  A    between atoms: _14  and  _18
REMARK   10  A    between atoms: _18  and  _19
REMARK   11  A    between atoms: _21  and  _22
REMARK   12  A    between atoms: _23  and  _24
REMARK   13  A    between atoms: _25  and  _27
REMARK   14  A    between atoms: _27  and  _28
REMARK   15  A    between atoms: _27  and  _29
REMARK   16  A    between atoms: _29  and  _30
REMARK   17  A    between atoms: _29  and  _31
REMARK   18  A    between atoms: _32  and  _34
REMARK                            x       y       z     vdW  Elec       q    Type
REMARK                         _______ _______ _______ _____ _____    ______ ____
ROOT
ATOM      1  C   UNL     1       7.630   3.637  33.619  0.00  0.00    +0.175 C 
ENDROOT
BRANCH   1   2
ATOM      2  C   UNL     1       7.030   4.846  34.351  0.00  0.00    +0.176 C 
ATOM      3  O   UNL     1       7.774   5.036  35.586  0.00  0.00    -0.332 OA
ATOM      4  C   UNL     1       7.407   6.218  36.371  0.00  0.00    +0.277 C 
ATOM      5  C   UNL     1       5.888   6.220  36.670  0.00  0.00    +0.110 C 
ATOM      6  C   UNL     1       5.056   5.989  35.391  0.00  0.00    +0.143 C 
ATOM      7  C   UNL     1       5.523   4.736  34.650  0.00  0.00    +0.133 C 
BRANCH   7   8
ATOM      8  N   UNL     1       4.782   4.575  33.390  0.00  0.00    -0.308 N 
ATOM      9  H   UNL     1       4.975   5.228  32.643  0.00  0.00    +0.149 HD
ATOM     10  C   UNL     1       3.871   3.624  33.168  0.00  0.00    +0.210 C 
ATOM     11  C   UNL     1       3.581   2.661  34.335  0.00  0.00    +0.109 C 
ATOM     12  O   UNL     1       3.276   3.504  32.096  0.00  0.00    -0.276 OA
ENDBRANCH   7   8
BRANCH   4  13
ATOM     13  C   UNL     1       7.786   7.512  35.621  0.00  0.00    +0.414 C 
ATOM     14  O   UNL     1       8.940   7.937  35.662  0.00  0.00    -0.240 OA
ATOM     15  O   UNL     1       6.939   8.131  34.976  0.00  0.00    -0.240 OA
ENDBRANCH   4  13
BRANCH   4  16
ATOM     16  O   UNL     1       8.121   6.158  37.633  0.00  0.00    -0.343 OA
ATOM     17  C   UNL     1       7.513   6.905  38.717  0.00  0.00    +0.198 C 
ENDBRANCH   4  16
BRANCH   6  18
ATOM     18  O   UNL     1       3.676   5.847  35.732  0.00  0.00    -0.390 OA
ATOM     19  H   UNL     1       3.135   6.029  34.961  0.00  0.00    +0.210 HD
ENDBRANCH   6  18
ENDBRANCH   1   2
BRANCH   1  20
ATOM     20  O   UNL     1       7.277   3.676  32.222  0.00  0.00    -0.387 OA
ATOM     21  H   UNL     1       7.959   4.141  31.732  0.00  0.00    +0.210 HD
ENDBRANCH   1  20
BRANCH   1  22
ATOM     22  C   UNL     1       7.182   2.303  34.241  0.00  0.00    +0.163 C 
BRANCH  22  23
ATOM     23  O   UNL     1       7.157   2.388  35.676  0.00  0.00    -0.388 OA
ATOM     24  H   UNL     1       6.645   3.155  35.942  0.00  0.00    +0.210 HD
ENDBRANCH  22  23
BRANCH  22  25
ATOM     25  C   UNL     1       8.129   1.191  33.801  0.00  0.00    +0.141 C 
BRANCH  25  28
ATOM     26  C   UNL     1      10.336   1.573  34.845  0.00  0.00    +0.401 C 
ATOM     27  O   UNL     1       9.993   1.143  35.949  0.00  0.00    -0.226 OA
ATOM     28  N   UNL     1       9.527   1.638  33.786  0.00  0.00    -0.279 N 
ATOM     29  H   UNL     1       9.898   2.015  32.925  0.00  0.00    +0.152 HD
BRANCH  26  30
ATOM     30  O   UNL     1      11.676   2.039  34.667  0.00  0.00    -0.444 OA
BRANCH  30  31
ATOM     31  C   UNL     1      12.133   2.650  35.876  0.00  0.00    +0.292 C 
BRANCH  31  33
ATOM     32  N   UNL     1      13.676   3.814  34.327  0.00  0.00    -0.131 NA
ATOM     33  C   UNL     1      13.136   3.691  35.580  0.00  0.00    +0.120 A 
ATOM     34  C   UNL     1      13.682   4.651  36.402  0.00  0.00    +0.137 A 
ATOM     35  N   UNL     1      14.550   5.319  35.592  0.00  0.00    -0.249 N 
ATOM     36  N   UNL     1      14.549   4.812  34.348  0.00  0.00    -0.065 NA
BRANCH  35  37
ATOM     37  C   UNL     1      15.396   6.442  35.929  0.00  0.00    +0.173 C 
BRANCH  37  38
ATOM     38  C   UNL     1      16.635   6.531  35.046  0.00  0.00    +0.179 C 
BRANCH  38  39
ATOM     39  O   UNL     1      17.368   5.307  35.062  0.00  0.00    -0.393 OA
ATOM     40  H   UNL     1      18.260   5.515  35.401  0.00  0.00    +0.209 HD
ENDBRANCH  38  39
ENDBRANCH  37  38
ENDBRANCH  35  37
ENDBRANCH  31  33
ENDBRANCH  30  31
ENDBRANCH  26  30
ENDBRANCH  25  28
ENDBRANCH  22  25
ENDBRANCH   1  22
TORSDOF 16
