REMARK VINA RESULT:    -6.084      2.697      4.876
REMARK INTER + INTRA:         -13.482
REMARK INTER:                 -10.886
REMARK INTRA:                  -2.597
REMARK UNBOUND:                -2.597
REMARK  Name = lig_assembled_89.pdb
REMARK  19 active torsions:
REMARK  status: ('A' for Active; 'I' for Inactive)
REMARK    1  A    between atoms: _2  and  _12
REMARK    2  A    between atoms: _5  and  _20
REMARK    3  A    between atoms: _7  and  _29
REMARK    4  A    between atoms: _9  and  _10
REMARK    5  A    between atoms: _9  and  _29
REMARK    6  A    between atoms: _20  and  _21
REMARK    7  A    between atoms: _20  and  _22
REMARK    8  A    between atoms: _25  and  _45
REMARK    9  A    between atoms: _27  and  _33
REMARK   10  A    between atoms: _28  and  _32
REMARK   11  A    between atoms: _32  and  _33
REMARK   12  A    between atoms: _35  and  _36
REMARK   13  A    between atoms: _37  and  _38
REMARK   14  A    between atoms: _39  and  _41
REMARK   15  A    between atoms: _41  and  _42
REMARK   16  A    between atoms: _41  and  _43
REMARK   17  A    between atoms: _43  and  _44
REMARK   18  A    between atoms: _43  and  _45
REMARK   19  A    between atoms: _46  and  _48
REMARK                            x       y       z     vdW  Elec       q    Type
REMARK                         _______ _______ _______ _____ _____    ______ ____
ROOT
ATOM      1  C   UNL     1      -0.204   3.021  34.299  0.00  0.00    +0.401 C 
ATOM      2  O   UNL     1      -0.352   3.786  35.255  0.00  0.00    -0.226 OA
ATOM      3  N   UNL     1       0.981   2.710  33.771  0.00  0.00    -0.279 N 
ATOM      4  H   UNL     1       1.002   2.065  32.993  0.00  0.00    +0.152 HD
ENDROOT
BRANCH   3   5
ATOM      5  C   UNL     1       2.256   3.253  34.254  0.00  0.00    +0.141 C 
BRANCH   5   6
ATOM      6  C   UNL     1       3.247   3.478  33.117  0.00  0.00    +0.163 C 
BRANCH   6   7
ATOM      7  O   UNL     1       2.569   4.032  31.977  0.00  0.00    -0.388 OA
ATOM      8  H   UNL     1       3.216   4.360  31.348  0.00  0.00    +0.210 HD
ENDBRANCH   6   7
BRANCH   6   9
ATOM      9  C   UNL     1       4.374   4.410  33.593  0.00  0.00    +0.175 C 
BRANCH   9  10
ATOM     10  C   UNL     1       5.714   3.672  33.731  0.00  0.00    +0.176 C 
ATOM     11  O   UNL     1       5.438   2.330  34.219  0.00  0.00    -0.332 OA
ATOM     12  C   UNL     1       6.598   1.439  34.312  0.00  0.00    +0.277 C 
ATOM     13  C   UNL     1       7.712   2.088  35.168  0.00  0.00    +0.110 C 
ATOM     14  C   UNL     1       8.019   3.529  34.707  0.00  0.00    +0.143 C 
ATOM     15  C   UNL     1       6.742   4.367  34.643  0.00  0.00    +0.133 C 
BRANCH  15  16
ATOM     16  N   UNL     1       7.034   5.711  34.119  0.00  0.00    -0.308 N 
ATOM     17  H   UNL     1       7.290   5.792  33.145  0.00  0.00    +0.149 HD
ATOM     18  C   UNL     1       6.982   6.830  34.846  0.00  0.00    +0.210 C 
ATOM     19  C   UNL     1       6.614   6.670  36.333  0.00  0.00    +0.109 C 
ATOM     20  O   UNL     1       7.218   7.944  34.377  0.00  0.00    -0.276 OA
ENDBRANCH  15  16
BRANCH  12  21
ATOM     21  C   UNL     1       7.151   1.111  32.909  0.00  0.00    +0.414 C 
ATOM     22  O   UNL     1       8.349   1.248  32.667  0.00  0.00    -0.240 OA
ATOM     23  O   UNL     1       6.399   0.711  32.020  0.00  0.00    -0.240 OA
ENDBRANCH  12  21
BRANCH  14  24
ATOM     24  O   UNL     1       8.938   4.140  35.613  0.00  0.00    -0.390 OA
ATOM     25  H   UNL     1       9.822   3.804  35.448  0.00  0.00    +0.210 HD
ENDBRANCH  14  24
BRANCH  12  26
ATOM     26  O   UNL     1       6.173   0.216  34.967  0.00  0.00    -0.343 OA
ATOM     27  C   UNL     1       4.790   0.204  35.403  0.00  0.00    +0.198 C 
ENDBRANCH  12  26
ENDBRANCH   9  10
BRANCH   9  28
ATOM     28  O   UNL     1       4.014   5.024  34.847  0.00  0.00    -0.387 OA
ATOM     29  H   UNL     1       4.197   5.965  34.806  0.00  0.00    +0.210 HD
ENDBRANCH   9  28
ENDBRANCH   6   9
ENDBRANCH   5   6
ENDBRANCH   3   5
BRANCH   1  30
ATOM     30  O   UNL     1      -1.356   2.415  33.709  0.00  0.00    -0.444 OA
BRANCH  30  31
ATOM     31  C   UNL     1      -2.035   3.374  32.893  0.00  0.00    +0.292 C 
BRANCH  31  33
ATOM     32  N   UNL     1      -0.450   4.809  31.666  0.00  0.00    -0.131 NA
ATOM     33  C   UNL     1      -1.229   3.691  31.702  0.00  0.00    +0.121 A 
ATOM     34  C   UNL     1      -1.083   3.005  30.520  0.00  0.00    +0.145 A 
ATOM     35  N   UNL     1      -0.168   3.737  29.787  0.00  0.00    -0.199 N 
ATOM     36  N   UNL     1       0.194   4.824  30.507  0.00  0.00    -0.059 NA
BRANCH  35  37
ATOM     37  C   UNL     1       0.381   3.360  28.526  0.00  0.00    +0.186 A 
ATOM     38  C   UNL     1       1.246   2.333  28.212  0.00  0.00    +0.158 A 
ATOM     39  C   UNL     1       1.981   1.394  29.004  0.00  0.00    +0.280 A 
ATOM     40  O   UNL     1       2.217   1.580  30.190  0.00  0.00    -0.265 OA
ATOM     41  N   UNL     1       2.442   0.256  28.312  0.00  0.00    -0.302 N 
ATOM     42  C   UNL     1       2.568   0.282  26.872  0.00  0.00    +0.069 A 
ATOM     43  C   UNL     1       3.269  -0.697  26.154  0.00  0.00    +0.028 A 
ATOM     44  C   UNL     1       3.414  -0.613  24.763  0.00  0.00    +0.002 A 
ATOM     45  C   UNL     1       2.853   0.445  24.056  0.00  0.00    +0.002 A 
ATOM     46  C   UNL     1       2.139   1.427  24.735  0.00  0.00    +0.028 A 
ATOM     47  C   UNL     1       2.009   1.345  26.129  0.00  0.00    +0.072 A 
ATOM     48  N   UNL     1       1.302   2.325  26.844  0.00  0.00    -0.291 N 
ATOM     49  C   UNL     1       0.573   3.398  26.399  0.00  0.00    +0.207 A 
ATOM     50  N   UNL     1      -0.009   4.041  27.388  0.00  0.00    -0.216 NA
BRANCH  41  51
ATOM     51  C   UNL     1       2.982  -0.869  29.111  0.00  0.00    +0.085 C 
ATOM     52  C   UNL     1       4.501  -1.075  28.945  0.00  0.00    +0.030 C 
ATOM     53  C   UNL     1       2.233  -2.173  28.837  0.00  0.00    +0.030 C 
ENDBRANCH  41  51
ENDBRANCH  35  37
ENDBRANCH  31  33
ENDBRANCH  30  31
ENDBRANCH   1  30
TORSDOF 15
