REMARK VINA RESULT:    -5.592      5.804     10.670
REMARK INTER + INTRA:         -12.822
REMARK INTER:                 -11.118
REMARK INTRA:                  -1.704
REMARK UNBOUND:                -2.326
REMARK  Name = lig_assembled_32.pdb
REMARK  19 active torsions:
REMARK  status: ('A' for Active; 'I' for Inactive)
REMARK    1  A    between atoms: _2  and  _9
REMARK    2  A    between atoms: _4  and  _17
REMARK    3  A    between atoms: _5  and  _10
REMARK    4  A    between atoms: _5  and  _11
REMARK    5  A    between atoms: _6  and  _7
REMARK    6  A    between atoms: _6  and  _17
REMARK    7  A    between atoms: _9  and  _10
REMARK    8  A    between atoms: _13  and  _33
REMARK    9  A    between atoms: _15  and  _21
REMARK   10  A    between atoms: _16  and  _20
REMARK   11  A    between atoms: _20  and  _21
REMARK   12  A    between atoms: _23  and  _24
REMARK   13  A    between atoms: _25  and  _26
REMARK   14  A    between atoms: _27  and  _29
REMARK   15  A    between atoms: _29  and  _30
REMARK   16  A    between atoms: _29  and  _31
REMARK   17  A    between atoms: _31  and  _32
REMARK   18  A    between atoms: _31  and  _33
REMARK   19  A    between atoms: _34  and  _36
REMARK                            x       y       z     vdW  Elec       q    Type
REMARK                         _______ _______ _______ _____ _____    ______ ____
ROOT
ATOM      1  C   UNL     1       4.275   3.501  32.202  0.00  0.00    +0.163 C 
ENDROOT
BRANCH   1   2
ATOM      2  O   UNL     1       3.535   4.065  33.297  0.00  0.00    -0.388 OA
ATOM      3  H   UNL     1       3.258   3.364  33.892  0.00  0.00    +0.210 HD
ENDBRANCH   1   2
BRANCH   1   4
ATOM      4  C   UNL     1       5.602   2.894  32.691  0.00  0.00    +0.175 C 
BRANCH   4   5
ATOM      5  C   UNL     1       5.973   3.375  34.101  0.00  0.00    +0.176 C 
ATOM      6  O   UNL     1       6.548   4.705  33.983  0.00  0.00    -0.332 OA
ATOM      7  C   UNL     1       6.868   5.373  35.248  0.00  0.00    +0.277 C 
ATOM      8  C   UNL     1       7.790   4.478  36.113  0.00  0.00    +0.110 C 
ATOM      9  C   UNL     1       7.236   3.044  36.241  0.00  0.00    +0.143 C 
ATOM     10  C   UNL     1       6.935   2.447  34.866  0.00  0.00    +0.133 C 
BRANCH  10  11
ATOM     11  N   UNL     1       6.326   1.115  35.005  0.00  0.00    -0.308 N 
ATOM     12  H   UNL     1       5.503   1.030  35.584  0.00  0.00    +0.149 HD
ATOM     13  C   UNL     1       6.790   0.010  34.415  0.00  0.00    +0.210 C 
ATOM     14  C   UNL     1       8.061   0.167  33.559  0.00  0.00    +0.109 C 
ATOM     15  O   UNL     1       6.251  -1.090  34.537  0.00  0.00    -0.276 OA
ENDBRANCH  10  11
BRANCH   7  16
ATOM     16  C   UNL     1       5.582   5.700  36.035  0.00  0.00    +0.414 C 
ATOM     17  O   UNL     1       5.646   6.038  37.216  0.00  0.00    -0.240 OA
ATOM     18  O   UNL     1       4.480   5.625  35.489  0.00  0.00    -0.240 OA
ENDBRANCH   7  16
BRANCH   7  19
ATOM     19  O   UNL     1       7.578   6.600  34.942  0.00  0.00    -0.343 OA
ATOM     20  C   UNL     1       6.784   7.620  34.285  0.00  0.00    +0.198 C 
ENDBRANCH   7  19
BRANCH   9  21
ATOM     21  O   UNL     1       8.186   2.218  36.915  0.00  0.00    -0.390 OA
ATOM     22  H   UNL     1       9.059   2.363  36.542  0.00  0.00    +0.210 HD
ENDBRANCH   9  21
ENDBRANCH   4   5
BRANCH   4  23
ATOM     23  O   UNL     1       6.662   3.207  31.764  0.00  0.00    -0.387 OA
ATOM     24  H   UNL     1       6.285   3.556  30.953  0.00  0.00    +0.210 HD
ENDBRANCH   4  23
ENDBRANCH   1   4
BRANCH   1  25
ATOM     25  C   UNL     1       3.446   2.423  31.512  0.00  0.00    +0.141 C 
BRANCH  25  28
ATOM     26  C   UNL     1       1.626   3.350  30.121  0.00  0.00    +0.401 C 
ATOM     27  O   UNL     1       0.817   3.405  31.050  0.00  0.00    -0.226 OA
ATOM     28  N   UNL     1       2.875   2.899  30.246  0.00  0.00    -0.279 N 
ATOM     29  H   UNL     1       3.461   2.884  29.423  0.00  0.00    +0.152 HD
BRANCH  26  30
ATOM     30  O   UNL     1       1.222   3.788  28.821  0.00  0.00    -0.444 OA
BRANCH  30  31
ATOM     31  C   UNL     1       1.775   2.918  27.830  0.00  0.00    +0.292 C 
BRANCH  31  33
ATOM     32  N   UNL     1       0.768   4.571  26.288  0.00  0.00    -0.131 NA
ATOM     33  C   UNL     1       1.584   3.487  26.483  0.00  0.00    +0.120 A 
ATOM     34  C   UNL     1       2.114   3.099  25.273  0.00  0.00    +0.137 A 
ATOM     35  N   UNL     1       1.573   3.976  24.384  0.00  0.00    -0.251 N 
ATOM     36  N   UNL     1       0.767   4.861  24.994  0.00  0.00    -0.065 NA
BRANCH  35  37
ATOM     37  C   UNL     1       1.777   4.042  22.954  0.00  0.00    +0.156 C 
BRANCH  37  38
ATOM     38  C   UNL     1       1.371   5.393  22.382  0.00  0.00    +0.143 C 
BRANCH  38  39
ATOM     39  C   UNL     1       0.052   5.280  21.672  0.00  0.00    +0.306 C 
ATOM     40  O   UNL     1      -0.089   4.914  20.516  0.00  0.00    -0.251 OA
BRANCH  39  41
ATOM     41  O   UNL     1      -0.992   5.646  22.449  0.00  0.00    -0.481 OA
ATOM     42  H   UNL     1      -1.443   4.901  22.893  0.00  0.00    +0.295 HD
ENDBRANCH  39  41
ENDBRANCH  38  39
ENDBRANCH  37  38
ENDBRANCH  35  37
ENDBRANCH  31  33
ENDBRANCH  30  31
ENDBRANCH  26  30
ENDBRANCH  25  28
ENDBRANCH   1  25
TORSDOF 17
