REMARK VINA RESULT:    -6.142     14.728     16.915
REMARK INTER + INTRA:         -13.285
REMARK INTER:                 -11.485
REMARK INTRA:                  -1.800
REMARK UNBOUND:                -2.296
REMARK  Name = lig_assembled_63.pdb
REMARK  17 active torsions:
REMARK  status: ('A' for Active; 'I' for Inactive)
REMARK    1  A    between atoms: _2  and  _11
REMARK    2  A    between atoms: _6  and  _20
REMARK    3  A    between atoms: _7  and  _15
REMARK    4  A    between atoms: _8  and  _9
REMARK    5  A    between atoms: _8  and  _20
REMARK    6  A    between atoms: _16  and  _36
REMARK    7  A    between atoms: _18  and  _24
REMARK    8  A    between atoms: _19  and  _23
REMARK    9  A    between atoms: _23  and  _24
REMARK   10  A    between atoms: _26  and  _27
REMARK   11  A    between atoms: _28  and  _29
REMARK   12  A    between atoms: _30  and  _32
REMARK   13  A    between atoms: _32  and  _33
REMARK   14  A    between atoms: _32  and  _34
REMARK   15  A    between atoms: _34  and  _35
REMARK   16  A    between atoms: _34  and  _36
REMARK   17  A    between atoms: _37  and  _39
REMARK                            x       y       z     vdW  Elec       q    Type
REMARK                         _______ _______ _______ _____ _____    ______ ____
ROOT
ATOM      1  C   UNL     1       3.245   3.678  32.428  0.00  0.00    +0.163 C 
ENDROOT
BRANCH   1   2
ATOM      2  O   UNL     1       2.422   3.959  33.572  0.00  0.00    -0.388 OA
ATOM      3  H   UNL     1       2.586   4.856  33.872  0.00  0.00    +0.210 HD
ENDBRANCH   1   2
BRANCH   1   4
ATOM      4  C   UNL     1       2.503   2.759  31.463  0.00  0.00    +0.141 C 
BRANCH   4   7
ATOM      5  C   UNL     1       2.125   2.831  29.023  0.00  0.00    +0.401 C 
ATOM      6  O   UNL     1       2.377   1.636  28.854  0.00  0.00    -0.226 OA
ATOM      7  N   UNL     1       2.165   3.441  30.208  0.00  0.00    -0.279 N 
ATOM      8  H   UNL     1       1.951   4.428  30.244  0.00  0.00    +0.152 HD
BRANCH   5   9
ATOM      9  O   UNL     1       1.769   3.632  27.893  0.00  0.00    -0.444 OA
BRANCH   9  10
ATOM     10  C   UNL     1       0.995   2.852  26.978  0.00  0.00    +0.292 C 
BRANCH  10  12
ATOM     11  N   UNL     1       1.972   4.392  25.311  0.00  0.00    -0.131 NA
ATOM     12  C   UNL     1       1.296   3.239  25.588  0.00  0.00    +0.121 A 
ATOM     13  C   UNL     1       0.986   2.609  24.406  0.00  0.00    +0.145 A 
ATOM     14  N   UNL     1       1.467   3.446  23.419  0.00  0.00    -0.200 N 
ATOM     15  N   UNL     1       2.077   4.505  23.994  0.00  0.00    -0.059 NA
BRANCH  14  16
ATOM     16  C   UNL     1       1.305   3.278  22.011  0.00  0.00    +0.173 A 
ATOM     17  C   UNL     1       0.324   3.957  21.284  0.00  0.00    +0.096 A 
ATOM     18  C   UNL     1       0.189   3.643  19.921  0.00  0.00    +0.024 A 
ATOM     19  C   UNL     1       1.027   2.706  19.324  0.00  0.00    +0.021 A 
ATOM     20  C   UNL     1       1.995   2.110  20.108  0.00  0.00    +0.113 A 
ATOM     21  N   UNL     1       2.148   2.370  21.424  0.00  0.00    -0.235 NA
BRANCH  17  22
ATOM     22  C   UNL     1      -0.550   4.966  21.806  0.00  0.00    +0.103 C 
ATOM     23  N   UNL     1      -1.318   5.770  22.141  0.00  0.00    -0.191 NA
ENDBRANCH  17  22
ENDBRANCH  14  16
ENDBRANCH  10  12
ENDBRANCH   9  10
ENDBRANCH   5   9
ENDBRANCH   4   7
ENDBRANCH   1   4
BRANCH   1  24
ATOM     24  C   UNL     1       4.569   3.018  32.851  0.00  0.00    +0.175 C 
BRANCH  24  25
ATOM     25  C   UNL     1       5.154   3.656  34.119  0.00  0.00    +0.176 C 
ATOM     26  O   UNL     1       5.183   5.097  33.922  0.00  0.00    -0.332 OA
ATOM     27  C   UNL     1       5.616   5.886  35.079  0.00  0.00    +0.277 C 
ATOM     28  C   UNL     1       6.998   5.399  35.579  0.00  0.00    +0.110 C 
ATOM     29  C   UNL     1       7.026   3.868  35.773  0.00  0.00    +0.143 C 
ATOM     30  C   UNL     1       6.553   3.146  34.511  0.00  0.00    +0.133 C 
BRANCH  30  31
ATOM     31  N   UNL     1       6.501   1.693  34.737  0.00  0.00    -0.308 N 
ATOM     32  H   UNL     1       5.815   1.342  35.389  0.00  0.00    +0.149 HD
ATOM     33  C   UNL     1       7.302   0.809  34.136  0.00  0.00    +0.210 C 
ATOM     34  C   UNL     1       8.356   1.379  33.167  0.00  0.00    +0.109 C 
ATOM     35  O   UNL     1       7.226  -0.404  34.334  0.00  0.00    -0.276 OA
ENDBRANCH  30  31
BRANCH  27  36
ATOM     36  C   UNL     1       4.588   5.787  36.225  0.00  0.00    +0.414 C 
ATOM     37  O   UNL     1       3.420   5.484  35.986  0.00  0.00    -0.240 OA
ATOM     38  O   UNL     1       4.927   6.010  37.388  0.00  0.00    -0.240 OA
ENDBRANCH  27  36
BRANCH  27  39
ATOM     39  O   UNL     1       5.744   7.268  34.656  0.00  0.00    -0.343 OA
ATOM     40  C   UNL     1       7.108   7.747  34.534  0.00  0.00    +0.198 C 
ENDBRANCH  27  39
BRANCH  29  41
ATOM     41  O   UNL     1       8.354   3.446  36.087  0.00  0.00    -0.390 OA
ATOM     42  H   UNL     1       8.906   4.216  36.242  0.00  0.00    +0.210 HD
ENDBRANCH  29  41
ENDBRANCH  24  25
BRANCH  24  43
ATOM     43  O   UNL     1       5.525   3.086  31.774  0.00  0.00    -0.387 OA
ATOM     44  H   UNL     1       6.412   2.989  32.127  0.00  0.00    +0.210 HD
ENDBRANCH  24  43
ENDBRANCH   1  24
TORSDOF 15
