REMARK VINA RESULT:    -6.020     22.031     24.164
REMARK INTER + INTRA:         -12.788
REMARK INTER:                 -10.320
REMARK INTRA:                  -2.468
REMARK UNBOUND:                -2.370
REMARK  Name = lig_assembled_87.pdb
REMARK  17 active torsions:
REMARK  status: ('A' for Active; 'I' for Inactive)
REMARK    1  A    between atoms: _2  and  _10
REMARK    2  A    between atoms: _3  and  _13
REMARK    3  A    between atoms: _5  and  _21
REMARK    4  A    between atoms: _7  and  _8
REMARK    5  A    between atoms: _7  and  _21
REMARK    6  A    between atoms: _17  and  _37
REMARK    7  A    between atoms: _19  and  _25
REMARK    8  A    between atoms: _20  and  _24
REMARK    9  A    between atoms: _24  and  _25
REMARK   10  A    between atoms: _27  and  _28
REMARK   11  A    between atoms: _29  and  _30
REMARK   12  A    between atoms: _31  and  _33
REMARK   13  A    between atoms: _33  and  _34
REMARK   14  A    between atoms: _33  and  _35
REMARK   15  A    between atoms: _35  and  _36
REMARK   16  A    between atoms: _35  and  _37
REMARK   17  A    between atoms: _38  and  _40
REMARK                            x       y       z     vdW  Elec       q    Type
REMARK                         _______ _______ _______ _____ _____    ______ ____
ROOT
ATOM      1  C   UNL     1      12.483  25.199  25.700  0.00  0.00    +0.163 C 
ENDROOT
BRANCH   1   2
ATOM      2  O   UNL     1      12.415  25.894  24.444  0.00  0.00    -0.388 OA
ATOM      3  H   UNL     1      12.171  25.277  23.750  0.00  0.00    +0.210 HD
ENDBRANCH   1   2
BRANCH   1   4
ATOM      4  C   UNL     1      13.938  24.920  26.064  0.00  0.00    +0.141 C 
BRANCH   4   7
ATOM      5  C   UNL     1      15.474  23.034  25.629  0.00  0.00    +0.401 C 
ATOM      6  O   UNL     1      15.969  23.054  26.758  0.00  0.00    -0.226 OA
ATOM      7  N   UNL     1      14.523  23.874  25.217  0.00  0.00    -0.279 N 
ATOM      8  H   UNL     1      14.186  23.785  24.268  0.00  0.00    +0.152 HD
BRANCH   5   9
ATOM      9  O   UNL     1      15.934  22.063  24.685  0.00  0.00    -0.444 OA
BRANCH   9  10
ATOM     10  C   UNL     1      16.805  22.690  23.741  0.00  0.00    +0.292 C 
BRANCH  10  12
ATOM     11  N   UNL     1      15.958  21.156  21.999  0.00  0.00    -0.131 NA
ATOM     12  C   UNL     1      16.347  22.414  22.367  0.00  0.00    +0.120 A 
ATOM     13  C   UNL     1      16.208  23.261  21.292  0.00  0.00    +0.137 A 
ATOM     14  N   UNL     1      15.613  22.491  20.328  0.00  0.00    -0.248 N 
ATOM     15  N   UNL     1      15.580  21.204  20.734  0.00  0.00    -0.065 NA
BRANCH  14  16
ATOM     16  C   UNL     1      15.060  22.846  19.008  0.00  0.00    +0.112 C 
ATOM     17  C   UNL     1      15.338  24.306  18.557  0.00  0.00    +0.045 C 
ATOM     18  C   UNL     1      14.093  25.169  18.288  0.00  0.00    +0.059 C 
ATOM     19  C   UNL     1      13.460  24.858  16.924  0.00  0.00    +0.020 C 
ATOM     20  C   UNL     1      12.346  23.860  17.234  0.00  0.00    +0.020 C 
ATOM     21  C   UNL     1      12.541  23.539  18.717  0.00  0.00    +0.059 C 
ATOM     22  N   UNL     1      12.986  24.850  19.179  0.00  0.00    -0.299 NA
ATOM     23  C   UNL     1      13.198  25.024  20.600  0.00  0.00    +0.105 C 
ATOM     24  C   UNL     1      13.566  22.416  18.892  0.00  0.00    +0.045 C 
ENDBRANCH  14  16
ENDBRANCH  10  12
ENDBRANCH   9  10
ENDBRANCH   5   9
ENDBRANCH   4   7
ENDBRANCH   1   4
BRANCH   1  25
ATOM     25  C   UNL     1      11.705  23.874  25.639  0.00  0.00    +0.175 C 
BRANCH  25  26
ATOM     26  C   UNL     1      10.200  24.096  25.431  0.00  0.00    +0.176 C 
ATOM     27  O   UNL     1       9.998  24.539  24.061  0.00  0.00    -0.332 OA
ATOM     28  C   UNL     1       8.602  24.701  23.646  0.00  0.00    +0.277 C 
ATOM     29  C   UNL     1       7.856  25.649  24.618  0.00  0.00    +0.110 C 
ATOM     30  C   UNL     1       8.067  25.236  26.090  0.00  0.00    +0.143 C 
ATOM     31  C   UNL     1       9.554  25.093  26.411  0.00  0.00    +0.133 C 
BRANCH  31  32
ATOM     32  N   UNL     1       9.740  24.616  27.791  0.00  0.00    -0.308 N 
ATOM     33  H   UNL     1       9.485  23.660  27.998  0.00  0.00    +0.149 HD
ATOM     34  C   UNL     1      10.222  25.363  28.788  0.00  0.00    +0.210 C 
ATOM     35  C   UNL     1      10.575  26.823  28.446  0.00  0.00    +0.109 C 
ATOM     36  O   UNL     1      10.380  24.933  29.930  0.00  0.00    -0.276 OA
ENDBRANCH  31  32
BRANCH  28  37
ATOM     37  C   UNL     1       7.882  23.337  23.602  0.00  0.00    +0.414 C 
ATOM     38  O   UNL     1       7.011  23.069  24.428  0.00  0.00    -0.240 OA
ATOM     39  O   UNL     1       8.172  22.506  22.741  0.00  0.00    -0.240 OA
ENDBRANCH  28  37
BRANCH  30  40
ATOM     40  O   UNL     1       7.491  26.218  26.952  0.00  0.00    -0.390 OA
ATOM     41  H   UNL     1       7.670  27.095  26.605  0.00  0.00    +0.210 HD
ENDBRANCH  30  40
BRANCH  28  42
ATOM     42  O   UNL     1       8.593  25.301  22.325  0.00  0.00    -0.343 OA
ATOM     43  C   UNL     1       9.830  25.953  21.940  0.00  0.00    +0.198 C 
ENDBRANCH  28  42
ENDBRANCH  25  26
BRANCH  25  44
ATOM     44  O   UNL     1      11.933  23.108  26.839  0.00  0.00    -0.387 OA
ATOM     45  H   UNL     1      12.766  22.636  26.765  0.00  0.00    +0.210 HD
ENDBRANCH  25  44
ENDBRANCH   1  25
TORSDOF 14
