REMARK VINA RESULT:    -5.853      6.385      7.771
REMARK INTER + INTRA:         -13.009
REMARK INTER:                 -11.302
REMARK INTRA:                  -1.707
REMARK UNBOUND:                -2.536
REMARK  Name = lig_assembled_44.pdb
REMARK  17 active torsions:
REMARK  status: ('A' for Active; 'I' for Inactive)
REMARK    1  A    between atoms: _2  and  _9
REMARK    2  A    between atoms: _4  and  _19
REMARK    3  A    between atoms: _6  and  _7
REMARK    4  A    between atoms: _6  and  _19
REMARK    5  A    between atoms: _9  and  _10
REMARK    6  A    between atoms: _15  and  _35
REMARK    7  A    between atoms: _17  and  _23
REMARK    8  A    between atoms: _18  and  _22
REMARK    9  A    between atoms: _22  and  _23
REMARK   10  A    between atoms: _25  and  _26
REMARK   11  A    between atoms: _27  and  _28
REMARK   12  A    between atoms: _29  and  _31
REMARK   13  A    between atoms: _31  and  _32
REMARK   14  A    between atoms: _31  and  _33
REMARK   15  A    between atoms: _33  and  _34
REMARK   16  A    between atoms: _33  and  _35
REMARK   17  A    between atoms: _36  and  _38
REMARK                            x       y       z     vdW  Elec       q    Type
REMARK                         _______ _______ _______ _____ _____    ______ ____
ROOT
ATOM      1  C   UNL     1       6.861   6.874  34.773  0.00  0.00    +0.163 C 
ENDROOT
BRANCH   1   2
ATOM      2  O   UNL     1       5.971   7.996  34.657  0.00  0.00    -0.388 OA
ATOM      3  H   UNL     1       6.480   8.811  34.659  0.00  0.00    +0.210 HD
ENDBRANCH   1   2
BRANCH   1   4
ATOM      4  C   UNL     1       6.069   5.611  35.094  0.00  0.00    +0.141 C 
BRANCH   4   7
ATOM      5  C   UNL     1       7.057   3.989  33.512  0.00  0.00    +0.401 C 
ATOM      6  O   UNL     1       8.181   4.040  34.017  0.00  0.00    -0.226 OA
ATOM      7  N   UNL     1       6.012   4.695  33.948  0.00  0.00    -0.279 N 
ATOM      8  H   UNL     1       5.132   4.593  33.463  0.00  0.00    +0.152 HD
BRANCH   5   9
ATOM      9  O   UNL     1       6.837   3.133  32.389  0.00  0.00    -0.444 OA
BRANCH   9  10
ATOM     10  C   UNL     1       5.846   2.156  32.719  0.00  0.00    +0.292 C 
BRANCH  10  12
ATOM     11  N   UNL     1       7.456   0.313  32.325  0.00  0.00    -0.131 NA
ATOM     12  C   UNL     1       6.206   0.844  32.148  0.00  0.00    +0.120 A 
ATOM     13  C   UNL     1       5.443  -0.035  31.416  0.00  0.00    +0.137 A 
ATOM     14  N   UNL     1       6.259  -1.114  31.245  0.00  0.00    -0.247 N 
ATOM     15  N   UNL     1       7.482  -0.886  31.757  0.00  0.00    -0.065 NA
BRANCH  14  16
ATOM     16  C   UNL     1       5.950  -2.383  30.614  0.00  0.00    +0.180 C 
BRANCH  16  17
ATOM     17  C   UNL     1       6.275  -2.361  29.140  0.00  0.00    -0.026 A 
ATOM     18  C   UNL     1       7.542  -2.751  28.680  0.00  0.00    +0.006 A 
ATOM     19  C   UNL     1       7.845  -2.714  27.317  0.00  0.00    +0.015 A 
ATOM     20  C   UNL     1       6.881  -2.287  26.406  0.00  0.00    +0.018 A 
ATOM     21 BR   UNL     1       7.288  -2.254  24.560  0.00  0.00    -0.050 Br
ATOM     22  C   UNL     1       5.623  -1.884  26.845  0.00  0.00    +0.015 A 
ATOM     23  C   UNL     1       5.321  -1.916  28.210  0.00  0.00    +0.006 A 
ENDBRANCH  16  17
ENDBRANCH  14  16
ENDBRANCH  10  12
ENDBRANCH   9  10
ENDBRANCH   5   9
ENDBRANCH   4   7
ENDBRANCH   1   4
BRANCH   1  24
ATOM     24  C   UNL     1       7.911   7.115  35.872  0.00  0.00    +0.175 C 
BRANCH  24  25
ATOM     25  C   UNL     1       7.481   6.522  37.221  0.00  0.00    +0.176 C 
ATOM     26  O   UNL     1       7.036   7.616  38.070  0.00  0.00    -0.332 OA
ATOM     27  C   UNL     1       6.486   7.226  39.371  0.00  0.00    +0.277 C 
ATOM     28  C   UNL     1       7.497   6.343  40.143  0.00  0.00    +0.110 C 
ATOM     29  C   UNL     1       8.023   5.184  39.271  0.00  0.00    +0.143 C 
ATOM     30  C   UNL     1       8.569   5.702  37.940  0.00  0.00    +0.133 C 
BRANCH  30  31
ATOM     31  N   UNL     1       8.987   4.582  37.083  0.00  0.00    -0.308 N 
ATOM     32  H   UNL     1       8.264   4.018  36.658  0.00  0.00    +0.149 HD
ATOM     33  C   UNL     1      10.259   4.261  36.831  0.00  0.00    +0.210 C 
ATOM     34  C   UNL     1      11.336   5.123  37.514  0.00  0.00    +0.109 C 
ATOM     35  O   UNL     1      10.579   3.325  36.096  0.00  0.00    -0.276 OA
ENDBRANCH  30  31
BRANCH  27  36
ATOM     36  C   UNL     1       5.160   6.458  39.196  0.00  0.00    +0.414 C 
ATOM     37  O   UNL     1       4.753   5.711  40.086  0.00  0.00    -0.240 OA
ATOM     38  O   UNL     1       4.496   6.585  38.167  0.00  0.00    -0.240 OA
ENDBRANCH  27  36
BRANCH  27  39
ATOM     39  O   UNL     1       6.253   8.434  40.140  0.00  0.00    -0.343 OA
ATOM     40  C   UNL     1       6.946   8.493  41.413  0.00  0.00    +0.198 C 
ENDBRANCH  27  39
BRANCH  29  41
ATOM     41  O   UNL     1       9.059   4.490  39.967  0.00  0.00    -0.390 OA
ATOM     42  H   UNL     1       9.882   4.570  39.479  0.00  0.00    +0.210 HD
ENDBRANCH  29  41
ENDBRANCH  24  25
BRANCH  24  43
ATOM     43  O   UNL     1       8.170   8.527  36.009  0.00  0.00    -0.387 OA
ATOM     44  H   UNL     1       7.525   8.914  36.605  0.00  0.00    +0.210 HD
ENDBRANCH  24  43
ENDBRANCH   1  24
TORSDOF 15
