REMARK VINA RESULT:    -5.966      1.836      3.448
REMARK INTER + INTRA:         -14.989
REMARK INTER:                 -12.652
REMARK INTRA:                  -2.337
REMARK UNBOUND:                -3.269
REMARK  Name = lig_assembled_84.pdb
REMARK  21 active torsions:
REMARK  status: ('A' for Active; 'I' for Inactive)
REMARK    1  A    between atoms: _2  and  _11
REMARK    2  A    between atoms: _3  and  _14
REMARK    3  A    between atoms: _4  and  _17
REMARK    4  A    between atoms: _6  and  _28
REMARK    5  A    between atoms: _8  and  _9
REMARK    6  A    between atoms: _8  and  _28
REMARK    7  A    between atoms: _11  and  _12
REMARK    8  A    between atoms: _12  and  _13
REMARK    9  A    between atoms: _12  and  _14
REMARK   10  A    between atoms: _24  and  _44
REMARK   11  A    between atoms: _26  and  _32
REMARK   12  A    between atoms: _27  and  _31
REMARK   13  A    between atoms: _31  and  _32
REMARK   14  A    between atoms: _34  and  _35
REMARK   15  A    between atoms: _36  and  _37
REMARK   16  A    between atoms: _38  and  _40
REMARK   17  A    between atoms: _40  and  _41
REMARK   18  A    between atoms: _40  and  _42
REMARK   19  A    between atoms: _42  and  _43
REMARK   20  A    between atoms: _42  and  _44
REMARK   21  A    between atoms: _45  and  _47
REMARK                            x       y       z     vdW  Elec       q    Type
REMARK                         _______ _______ _______ _____ _____    ______ ____
ROOT
ATOM      1  C   UNL     1       4.257   0.008  31.175  0.00  0.00    +0.401 C 
ATOM      2  O   UNL     1       5.461  -0.206  31.016  0.00  0.00    -0.226 OA
ATOM      3  N   UNL     1       3.762   0.821  32.109  0.00  0.00    -0.279 N 
ATOM      4  H   UNL     1       2.760   0.940  32.155  0.00  0.00    +0.152 HD
ENDROOT
BRANCH   1   5
ATOM      5  O   UNL     1       3.316  -0.642  30.316  0.00  0.00    -0.444 OA
BRANCH   5   6
ATOM      6  C   UNL     1       2.969   0.234  29.240  0.00  0.00    +0.292 C 
BRANCH   6   8
ATOM      7  N   UNL     1       0.587  -0.226  28.726  0.00  0.00    -0.131 NA
ATOM      8  C   UNL     1       1.537   0.584  29.293  0.00  0.00    +0.120 A 
ATOM      9  C   UNL     1       0.920   1.693  29.828  0.00  0.00    +0.137 A 
ATOM     10  N   UNL     1      -0.392   1.531  29.495  0.00  0.00    -0.251 N 
ATOM     11  N   UNL     1      -0.593   0.367  28.854  0.00  0.00    -0.065 NA
BRANCH  10  12
ATOM     12  C   UNL     1      -1.467   2.495  29.632  0.00  0.00    +0.149 C 
BRANCH  12  13
ATOM     13  C   UNL     1      -1.903   3.151  28.311  0.00  0.00    +0.021 C 
ATOM     14  C   UNL     1      -3.056   4.140  28.534  0.00  0.00    +0.010 C 
BRANCH  13  15
ATOM     15  C   UNL     1      -0.725   3.901  27.642  0.00  0.00    +0.089 C 
BRANCH  15  16
ATOM     16  N   UNL     1       0.044   3.127  26.658  0.00  0.00    -0.299 NA
ATOM     17  C   UNL     1       1.109   3.977  26.062  0.00  0.00    +0.103 C 
ATOM     18  C   UNL     1       1.998   3.179  25.085  0.00  0.00    +0.120 C 
ATOM     19  N   UNL     1       1.167   2.606  24.019  0.00  0.00    -0.327 N 
ATOM     20  C   UNL     1       0.044   1.790  24.500  0.00  0.00    +0.120 C 
ATOM     21  C   UNL     1      -0.784   2.585  25.551  0.00  0.00    +0.103 C 
BRANCH  19  22
ATOM     22  C   UNL     1       1.453   2.776  22.684  0.00  0.00    +0.030 A 
ATOM     23  C   UNL     1       1.596   4.059  22.124  0.00  0.00    +0.024 A 
ATOM     24  C   UNL     1       1.862   4.251  20.763  0.00  0.00    +0.022 A 
ATOM     25  C   UNL     1       1.997   3.154  19.930  0.00  0.00    +0.041 A 
ATOM     26 CL   UNL     1       2.317   3.382  18.255  0.00  0.00    -0.084 Cl
ATOM     27  C   UNL     1       1.866   1.869  20.444  0.00  0.00    +0.022 A 
ATOM     28  C   UNL     1       1.594   1.690  21.808  0.00  0.00    +0.024 A 
ENDBRANCH  19  22
ENDBRANCH  15  16
ENDBRANCH  13  15
ENDBRANCH  12  13
ENDBRANCH  10  12
ENDBRANCH   6   8
ENDBRANCH   5   6
ENDBRANCH   1   5
BRANCH   3  29
ATOM     29  C   UNL     1       4.591   1.554  33.073  0.00  0.00    +0.141 C 
BRANCH  29  30
ATOM     30  C   UNL     1       5.165   2.834  32.473  0.00  0.00    +0.163 C 
BRANCH  30  31
ATOM     31  O   UNL     1       4.319   3.950  32.795  0.00  0.00    -0.388 OA
ATOM     32  H   UNL     1       4.837   4.758  32.789  0.00  0.00    +0.210 HD
ENDBRANCH  30  31
BRANCH  30  33
ATOM     33  C   UNL     1       6.592   3.055  33.003  0.00  0.00    +0.175 C 
BRANCH  33  34
ATOM     34  C   UNL     1       6.605   3.860  34.311  0.00  0.00    +0.176 C 
ATOM     35  O   UNL     1       6.432   5.264  33.973  0.00  0.00    -0.332 OA
ATOM     36  C   UNL     1       6.313   6.180  35.112  0.00  0.00    +0.277 C 
ATOM     37  C   UNL     1       7.521   6.016  36.067  0.00  0.00    +0.110 C 
ATOM     38  C   UNL     1       7.763   4.536  36.429  0.00  0.00    +0.143 C 
ATOM     39  C   UNL     1       7.868   3.673  35.171  0.00  0.00    +0.133 C 
BRANCH  39  40
ATOM     40  N   UNL     1       8.012   2.253  35.530  0.00  0.00    -0.308 N 
ATOM     41  H   UNL     1       7.227   1.797  35.973  0.00  0.00    +0.149 HD
ATOM     42  C   UNL     1       9.112   1.529  35.309  0.00  0.00    +0.210 C 
ATOM     43  C   UNL     1      10.300   2.260  34.657  0.00  0.00    +0.109 C 
ATOM     44  O   UNL     1       9.199   0.337  35.608  0.00  0.00    -0.276 OA
ENDBRANCH  39  40
BRANCH  36  45
ATOM     45  C   UNL     1       5.004   5.922  35.887  0.00  0.00    +0.414 C 
ATOM     46  O   UNL     1       4.053   5.373  35.332  0.00  0.00    -0.240 OA
ATOM     47  O   UNL     1       4.900   6.263  37.066  0.00  0.00    -0.240 OA
ENDBRANCH  36  45
BRANCH  36  48
ATOM     48  O   UNL     1       6.317   7.537  34.598  0.00  0.00    -0.343 OA
ATOM     49  C   UNL     1       7.602   8.208  34.650  0.00  0.00    +0.198 C 
ENDBRANCH  36  48
BRANCH  38  50
ATOM     50  O   UNL     1       8.970   4.416  37.184  0.00  0.00    -0.390 OA
ATOM     51  H   UNL     1       8.892   4.921  37.996  0.00  0.00    +0.210 HD
ENDBRANCH  38  50
ENDBRANCH  33  34
BRANCH  33  52
ATOM     52  O   UNL     1       7.395   3.716  32.005  0.00  0.00    -0.387 OA
ATOM     53  H   UNL     1       7.682   3.076  31.349  0.00  0.00    +0.210 HD
ENDBRANCH  33  52
ENDBRANCH  30  33
ENDBRANCH  29  30
ENDBRANCH   3  29
TORSDOF 18
