REMARK VINA RESULT:    -5.194      2.357      4.816
REMARK INTER + INTRA:         -12.751
REMARK INTER:                 -10.710
REMARK INTRA:                  -2.040
REMARK UNBOUND:                -3.154
REMARK  Name = lig_assembled_67.pdb
REMARK  18 active torsions:
REMARK  status: ('A' for Active; 'I' for Inactive)
REMARK    1  A    between atoms: _2  and  _9
REMARK    2  A    between atoms: _4  and  _19
REMARK    3  A    between atoms: _6  and  _7
REMARK    4  A    between atoms: _6  and  _19
REMARK    5  A    between atoms: _9  and  _10
REMARK    6  A    between atoms: _10  and  _11
REMARK    7  A    between atoms: _15  and  _35
REMARK    8  A    between atoms: _17  and  _23
REMARK    9  A    between atoms: _18  and  _22
REMARK   10  A    between atoms: _22  and  _23
REMARK   11  A    between atoms: _25  and  _26
REMARK   12  A    between atoms: _27  and  _28
REMARK   13  A    between atoms: _29  and  _31
REMARK   14  A    between atoms: _31  and  _32
REMARK   15  A    between atoms: _31  and  _33
REMARK   16  A    between atoms: _33  and  _34
REMARK   17  A    between atoms: _33  and  _35
REMARK   18  A    between atoms: _36  and  _38
REMARK                            x       y       z     vdW  Elec       q    Type
REMARK                         _______ _______ _______ _____ _____    ______ ____
ROOT
ATOM      1  C   UNL     1       4.587   3.227  32.485  0.00  0.00    +0.163 C 
ENDROOT
BRANCH   1   2
ATOM      2  O   UNL     1       4.058   4.535  32.761  0.00  0.00    -0.388 OA
ATOM      3  H   UNL     1       3.409   4.766  32.092  0.00  0.00    +0.210 HD
ENDBRANCH   1   2
BRANCH   1   4
ATOM      4  C   UNL     1       6.015   3.084  33.039  0.00  0.00    +0.175 C 
BRANCH   4   5
ATOM      5  C   UNL     1       6.199   3.834  34.366  0.00  0.00    +0.176 C 
ATOM      6  O   UNL     1       6.149   5.260  34.084  0.00  0.00    -0.332 OA
ATOM      7  C   UNL     1       6.202   6.140  35.255  0.00  0.00    +0.277 C 
ATOM      8  C   UNL     1       7.449   5.820  36.116  0.00  0.00    +0.110 C 
ATOM      9  C   UNL     1       7.562   4.310  36.415  0.00  0.00    +0.143 C 
ATOM     10  C   UNL     1       7.492   3.489  35.127  0.00  0.00    +0.133 C 
BRANCH  10  11
ATOM     11  N   UNL     1       7.514   2.050  35.432  0.00  0.00    -0.308 N 
ATOM     12  H   UNL     1       6.728   1.663  35.936  0.00  0.00    +0.149 HD
ATOM     13  C   UNL     1       8.503   1.222  35.087  0.00  0.00    +0.210 C 
ATOM     14  C   UNL     1       9.698   1.847  34.343  0.00  0.00    +0.109 C 
ATOM     15  O   UNL     1       8.487   0.017  35.343  0.00  0.00    -0.276 OA
ENDBRANCH  10  11
BRANCH   7  16
ATOM     16  C   UNL     1       4.930   5.986  36.113  0.00  0.00    +0.414 C 
ATOM     17  O   UNL     1       4.943   6.298  37.304  0.00  0.00    -0.240 OA
ATOM     18  O   UNL     1       3.890   5.550  35.616  0.00  0.00    -0.240 OA
ENDBRANCH   7  16
BRANCH   9  19
ATOM     19  O   UNL     1       8.799   4.042  37.078  0.00  0.00    -0.390 OA
ATOM     20  H   UNL     1       9.323   4.845  37.115  0.00  0.00    +0.210 HD
ENDBRANCH   9  19
BRANCH   7  21
ATOM     21  O   UNL     1       6.311   7.508  34.784  0.00  0.00    -0.343 OA
ATOM     22  C   UNL     1       7.655   8.052  34.786  0.00  0.00    +0.198 C 
ENDBRANCH   7  21
ENDBRANCH   4   5
BRANCH   4  23
ATOM     23  O   UNL     1       6.973   3.550  32.067  0.00  0.00    -0.387 OA
ATOM     24  H   UNL     1       6.826   3.100  31.232  0.00  0.00    +0.210 HD
ENDBRANCH   4  23
ENDBRANCH   1   4
BRANCH   1  25
ATOM     25  C   UNL     1       3.690   2.161  33.106  0.00  0.00    +0.141 C 
BRANCH  25  28
ATOM     26  C   UNL     1       1.346   2.940  33.045  0.00  0.00    +0.401 C 
ATOM     27  O   UNL     1       1.465   3.670  34.032  0.00  0.00    -0.226 OA
ATOM     28  N   UNL     1       2.333   2.194  32.547  0.00  0.00    -0.279 N 
ATOM     29  H   UNL     1       2.136   1.619  31.740  0.00  0.00    +0.152 HD
BRANCH  26  30
ATOM     30  O   UNL     1       0.082   2.869  32.382  0.00  0.00    -0.444 OA
BRANCH  30  31
ATOM     31  C   UNL     1      -0.139   4.074  31.644  0.00  0.00    +0.292 C 
BRANCH  31  33
ATOM     32  N   UNL     1       1.453   3.909  29.756  0.00  0.00    -0.131 NA
ATOM     33  C   UNL     1       0.161   3.866  30.215  0.00  0.00    +0.120 A 
ATOM     34  C   UNL     1      -0.682   3.614  29.157  0.00  0.00    +0.137 A 
ATOM     35  N   UNL     1       0.153   3.518  28.086  0.00  0.00    -0.251 N 
ATOM     36  N   UNL     1       1.434   3.698  28.447  0.00  0.00    -0.065 NA
BRANCH  35  37
ATOM     37  C   UNL     1      -0.187   3.248  26.707  0.00  0.00    +0.150 C 
BRANCH  37  38
ATOM     38  C   UNL     1      -0.992   4.364  26.046  0.00  0.00    +0.084 C 
BRANCH  38  39
ATOM     39  C   UNL     1      -0.147   5.216  25.110  0.00  0.00    +0.252 C 
ATOM     40  O   UNL     1       1.214   4.773  25.132  0.00  0.00    -0.349 OA
ATOM     41  C   UNL     1       1.686   5.106  23.828  0.00  0.00    +0.191 C 
ATOM     42  C   UNL     1       0.488   4.850  22.951  0.00  0.00    +0.191 C 
ATOM     43  O   UNL     1      -0.646   5.134  23.771  0.00  0.00    -0.349 OA
ENDBRANCH  38  39
ENDBRANCH  37  38
ENDBRANCH  35  37
ENDBRANCH  31  33
ENDBRANCH  30  31
ENDBRANCH  26  30
ENDBRANCH  25  28
ENDBRANCH   1  25
TORSDOF 16
