REMARK VINA RESULT:    -6.457     13.632     15.562
REMARK INTER + INTRA:         -13.023
REMARK INTER:                 -10.607
REMARK INTRA:                  -2.416
REMARK UNBOUND:                -1.847
REMARK  Name = lig_assembled_2.pdb
REMARK  16 active torsions:
REMARK  status: ('A' for Active; 'I' for Inactive)
REMARK    1  A    between atoms: _2  and  _9
REMARK    2  A    between atoms: _4  and  _18
REMARK    3  A    between atoms: _6  and  _7
REMARK    4  A    between atoms: _6  and  _18
REMARK    5  A    between atoms: _14  and  _34
REMARK    6  A    between atoms: _16  and  _22
REMARK    7  A    between atoms: _17  and  _21
REMARK    8  A    between atoms: _21  and  _22
REMARK    9  A    between atoms: _24  and  _25
REMARK   10  A    between atoms: _26  and  _27
REMARK   11  A    between atoms: _28  and  _30
REMARK   12  A    between atoms: _30  and  _31
REMARK   13  A    between atoms: _30  and  _32
REMARK   14  A    between atoms: _32  and  _33
REMARK   15  A    between atoms: _32  and  _34
REMARK   16  A    between atoms: _35  and  _37
REMARK                            x       y       z     vdW  Elec       q    Type
REMARK                         _______ _______ _______ _____ _____    ______ ____
ROOT
ATOM      1  C   UNL     1      18.481  10.441  29.800  0.00  0.00    +0.163 C 
ENDROOT
BRANCH   1   2
ATOM      2  O   UNL     1      17.157  10.709  30.292  0.00  0.00    -0.388 OA
ATOM      3  H   UNL     1      17.168  11.511  30.820  0.00  0.00    +0.210 HD
ENDBRANCH   1   2
BRANCH   1   4
ATOM      4  C   UNL     1      18.574  10.815  28.325  0.00  0.00    +0.141 C 
BRANCH   4   7
ATOM      5  C   UNL     1      19.758   9.693  26.468  0.00  0.00    +0.401 C 
ATOM      6  O   UNL     1      20.366  10.707  26.119  0.00  0.00    -0.226 OA
ATOM      7  N   UNL     1      18.896   9.655  27.485  0.00  0.00    -0.279 N 
ATOM      8  H   UNL     1      18.438   8.777  27.689  0.00  0.00    +0.152 HD
BRANCH   5   9
ATOM      9  O   UNL     1      19.970   8.474  25.752  0.00  0.00    -0.444 OA
BRANCH   9  10
ATOM     10  C   UNL     1      19.048   7.483  26.212  0.00  0.00    +0.292 C 
BRANCH  10  12
ATOM     11  N   UNL     1      18.099   7.027  23.972  0.00  0.00    -0.131 NA
ATOM     12  C   UNL     1      18.691   6.566  25.112  0.00  0.00    +0.121 A 
ATOM     13  C   UNL     1      18.868   5.205  25.008  0.00  0.00    +0.143 A 
ATOM     14  N   UNL     1      18.389   4.879  23.760  0.00  0.00    -0.220 N 
ATOM     15  N   UNL     1      17.913   5.996  23.159  0.00  0.00    -0.060 NA
BRANCH  14  16
ATOM     16  C   UNL     1      18.384   3.616  23.113  0.00  0.00    +0.067 A 
ATOM     17  C   UNL     1      17.375   3.277  22.201  0.00  0.00    +0.029 A 
ATOM     18  C   UNL     1      17.368   2.012  21.603  0.00  0.00    +0.022 A 
ATOM     19  C   UNL     1      18.364   1.088  21.911  0.00  0.00    +0.041 A 
ATOM     20 CL   UNL     1      18.333  -0.472  21.188  0.00  0.00    -0.084 Cl
ATOM     21  C   UNL     1      19.379   1.420  22.804  0.00  0.00    +0.022 A 
ATOM     22  C   UNL     1      19.394   2.682  23.405  0.00  0.00    +0.029 A 
ENDBRANCH  14  16
ENDBRANCH  10  12
ENDBRANCH   9  10
ENDBRANCH   5   9
ENDBRANCH   4   7
ENDBRANCH   1   4
BRANCH   1  23
ATOM     23  C   UNL     1      18.843   8.957  29.978  0.00  0.00    +0.175 C 
BRANCH  23  24
ATOM     24  C   UNL     1      18.064   8.305  31.129  0.00  0.00    +0.176 C 
ATOM     25  O   UNL     1      18.153   9.184  32.284  0.00  0.00    -0.332 OA
ATOM     26  C   UNL     1      17.374   8.773  33.456  0.00  0.00    +0.277 C 
ATOM     27  C   UNL     1      17.742   7.327  33.870  0.00  0.00    +0.110 C 
ATOM     28  C   UNL     1      17.692   6.360  32.668  0.00  0.00    +0.143 C 
ATOM     29  C   UNL     1      18.533   6.887  31.505  0.00  0.00    +0.133 C 
BRANCH  29  30
ATOM     30  N   UNL     1      18.408   6.002  30.336  0.00  0.00    -0.308 N 
ATOM     31  H   UNL     1      17.505   5.939  29.887  0.00  0.00    +0.149 HD
ATOM     32  C   UNL     1      19.410   5.278  29.829  0.00  0.00    +0.210 C 
ATOM     33  C   UNL     1      20.766   5.377  30.552  0.00  0.00    +0.109 C 
ATOM     34  O   UNL     1      19.279   4.557  28.840  0.00  0.00    -0.276 OA
ENDBRANCH  29  30
BRANCH  26  35
ATOM     35  C   UNL     1      15.861   8.857  33.164  0.00  0.00    +0.414 C 
ATOM     36  O   UNL     1      15.410   9.782  32.490  0.00  0.00    -0.240 OA
ATOM     37  O   UNL     1      15.093   8.000  33.602  0.00  0.00    -0.240 OA
ENDBRANCH  26  35
BRANCH  28  38
ATOM     38  O   UNL     1      18.182   5.078  33.060  0.00  0.00    -0.390 OA
ATOM     39  H   UNL     1      18.310   4.531  32.281  0.00  0.00    +0.210 HD
ENDBRANCH  28  38
BRANCH  26  40
ATOM     40  O   UNL     1      17.710   9.662  34.553  0.00  0.00    -0.343 OA
ATOM     41  C   UNL     1      18.097  11.002  34.158  0.00  0.00    +0.198 C 
ENDBRANCH  26  40
ENDBRANCH  23  24
BRANCH  23  42
ATOM     42  O   UNL     1      20.261   8.815  30.196  0.00  0.00    -0.387 OA
ATOM     43  H   UNL     1      20.485   7.883  30.254  0.00  0.00    +0.210 HD
ENDBRANCH  23  42
ENDBRANCH   1  23
TORSDOF 14
