REMARK VINA RESULT:    -6.125      1.939      3.182
REMARK INTER + INTRA:         -12.935
REMARK INTER:                 -11.013
REMARK INTRA:                  -1.922
REMARK UNBOUND:                -2.334
REMARK  Name = lig_assembled_15.pdb
REMARK  16 active torsions:
REMARK  status: ('A' for Active; 'I' for Inactive)
REMARK    1  A    between atoms: _2  and  _9
REMARK    2  A    between atoms: _4  and  _18
REMARK    3  A    between atoms: _6  and  _7
REMARK    4  A    between atoms: _6  and  _18
REMARK    5  A    between atoms: _14  and  _34
REMARK    6  A    between atoms: _16  and  _22
REMARK    7  A    between atoms: _17  and  _21
REMARK    8  A    between atoms: _21  and  _22
REMARK    9  A    between atoms: _24  and  _25
REMARK   10  A    between atoms: _26  and  _27
REMARK   11  A    between atoms: _28  and  _30
REMARK   12  A    between atoms: _30  and  _31
REMARK   13  A    between atoms: _30  and  _32
REMARK   14  A    between atoms: _32  and  _33
REMARK   15  A    between atoms: _32  and  _34
REMARK   16  A    between atoms: _35  and  _37
REMARK                            x       y       z     vdW  Elec       q    Type
REMARK                         _______ _______ _______ _____ _____    ______ ____
ROOT
ATOM      1  C   UNL     1       7.042   2.495  33.069  0.00  0.00    +0.163 C 
ENDROOT
BRANCH   1   2
ATOM      2  O   UNL     1       7.004   3.740  32.353  0.00  0.00    -0.388 OA
ATOM      3  H   UNL     1       7.523   4.396  32.824  0.00  0.00    +0.210 HD
ENDBRANCH   1   2
BRANCH   1   4
ATOM      4  C   UNL     1       6.134   1.474  32.390  0.00  0.00    +0.141 C 
BRANCH   4   7
ATOM      5  C   UNL     1       3.850   1.427  31.450  0.00  0.00    +0.401 C 
ATOM      6  O   UNL     1       3.731   0.204  31.552  0.00  0.00    -0.226 OA
ATOM      7  N   UNL     1       4.941   2.103  31.811  0.00  0.00    -0.279 N 
ATOM      8  H   UNL     1       4.946   3.105  31.679  0.00  0.00    +0.152 HD
BRANCH   5   9
ATOM      9  O   UNL     1       2.765   2.186  30.909  0.00  0.00    -0.444 OA
BRANCH   9  10
ATOM     10  C   UNL     1       2.115   1.429  29.885  0.00  0.00    +0.292 C 
BRANCH  10  12
ATOM     11  N   UNL     1       2.108   3.580  28.663  0.00  0.00    -0.131 NA
ATOM     12  C   UNL     1       2.027   2.218  28.642  0.00  0.00    +0.121 A 
ATOM     13  C   UNL     1       1.873   1.798  27.340  0.00  0.00    +0.143 A 
ATOM     14  N   UNL     1       1.895   2.950  26.590  0.00  0.00    -0.220 N 
ATOM     15  N   UNL     1       2.021   4.018  27.414  0.00  0.00    -0.060 NA
BRANCH  14  16
ATOM     16  C   UNL     1       1.835   3.092  25.178  0.00  0.00    +0.067 A 
ATOM     17  C   UNL     1       2.041   1.990  24.334  0.00  0.00    +0.029 A 
ATOM     18  C   UNL     1       2.019   2.158  22.946  0.00  0.00    +0.017 A 
ATOM     19  C   UNL     1       1.788   3.419  22.400  0.00  0.00    +0.018 A 
ATOM     20 BR   UNL     1       1.787   3.641  20.523  0.00  0.00    -0.050 Br
ATOM     21  C   UNL     1       1.568   4.517  23.229  0.00  0.00    +0.017 A 
ATOM     22  C   UNL     1       1.588   4.355  24.617  0.00  0.00    +0.029 A 
ENDBRANCH  14  16
ENDBRANCH  10  12
ENDBRANCH   9  10
ENDBRANCH   5   9
ENDBRANCH   4   7
ENDBRANCH   1   4
BRANCH   1  23
ATOM     23  C   UNL     1       6.596   2.687  34.529  0.00  0.00    +0.175 C 
BRANCH  23  24
ATOM     24  C   UNL     1       6.081   4.109  34.794  0.00  0.00    +0.176 C 
ATOM     25  O   UNL     1       7.112   4.829  35.525  0.00  0.00    -0.332 OA
ATOM     26  C   UNL     1       6.838   6.247  35.776  0.00  0.00    +0.277 C 
ATOM     27  C   UNL     1       5.475   6.416  36.491  0.00  0.00    +0.110 C 
ATOM     28  C   UNL     1       4.353   5.642  35.767  0.00  0.00    +0.143 C 
ATOM     29  C   UNL     1       4.744   4.179  35.555  0.00  0.00    +0.133 C 
BRANCH  29  30
ATOM     30  N   UNL     1       3.705   3.473  34.789  0.00  0.00    -0.308 N 
ATOM     31  H   UNL     1       3.478   3.824  33.869  0.00  0.00    +0.149 HD
ATOM     32  C   UNL     1       3.043   2.400  35.230  0.00  0.00    +0.210 C 
ATOM     33  C   UNL     1       3.395   1.907  36.646  0.00  0.00    +0.109 C 
ATOM     34  O   UNL     1       2.188   1.821  34.560  0.00  0.00    -0.276 OA
ENDBRANCH  29  30
BRANCH  26  35
ATOM     35  C   UNL     1       6.831   7.045  34.456  0.00  0.00    +0.414 C 
ATOM     36  O   UNL     1       7.349   6.575  33.444  0.00  0.00    -0.240 OA
ATOM     37  O   UNL     1       6.306   8.158  34.402  0.00  0.00    -0.240 OA
ENDBRANCH  26  35
BRANCH  28  38
ATOM     38  O   UNL     1       3.153   5.700  36.539  0.00  0.00    -0.390 OA
ATOM     39  H   UNL     1       2.413   5.917  35.966  0.00  0.00    +0.210 HD
ENDBRANCH  28  38
BRANCH  26  40
ATOM     40  O   UNL     1       7.878   6.757  36.649  0.00  0.00    -0.343 OA
ATOM     41  C   UNL     1       8.721   5.744  37.255  0.00  0.00    +0.198 C 
ENDBRANCH  26  40
ENDBRANCH  23  24
BRANCH  23  42
ATOM     42  O   UNL     1       7.683   2.377  35.424  0.00  0.00    -0.387 OA
ATOM     43  H   UNL     1       8.326   1.828  34.970  0.00  0.00    +0.210 HD
ENDBRANCH  23  42
ENDBRANCH   1  23
TORSDOF 14
