REMARK VINA RESULT:    -5.631      4.442      7.910
REMARK INTER + INTRA:         -14.244
REMARK INTER:                 -11.625
REMARK INTRA:                  -2.619
REMARK UNBOUND:                -2.852
REMARK  Name = lig_assembled_11.pdb
REMARK  22 active torsions:
REMARK  status: ('A' for Active; 'I' for Inactive)
REMARK    1  A    between atoms: _2  and  _9
REMARK    2  A    between atoms: _4  and  _21
REMARK    3  A    between atoms: _5  and  _9
REMARK    4  A    between atoms: _5  and  _13
REMARK    5  A    between atoms: _6  and  _7
REMARK    6  A    between atoms: _6  and  _21
REMARK    7  A    between atoms: _9  and  _10
REMARK    8  A    between atoms: _10  and  _11
REMARK    9  A    between atoms: _11  and  _12
REMARK   10  A    between atoms: _12  and  _15
REMARK   11  A    between atoms: _17  and  _37
REMARK   12  A    between atoms: _19  and  _25
REMARK   13  A    between atoms: _20  and  _24
REMARK   14  A    between atoms: _24  and  _25
REMARK   15  A    between atoms: _27  and  _28
REMARK   16  A    between atoms: _29  and  _30
REMARK   17  A    between atoms: _31  and  _33
REMARK   18  A    between atoms: _33  and  _34
REMARK   19  A    between atoms: _33  and  _35
REMARK   20  A    between atoms: _35  and  _36
REMARK   21  A    between atoms: _35  and  _37
REMARK   22  A    between atoms: _38  and  _40
REMARK                            x       y       z     vdW  Elec       q    Type
REMARK                         _______ _______ _______ _____ _____    ______ ____
ROOT
ATOM      1  C   UNL     1      18.680   6.506  29.149  0.00  0.00    +0.163 C 
ENDROOT
BRANCH   1   2
ATOM      2  O   UNL     1      18.749   5.665  30.313  0.00  0.00    -0.388 OA
ATOM      3  H   UNL     1      19.045   6.183  31.066  0.00  0.00    +0.210 HD
ENDBRANCH   1   2
BRANCH   1   4
ATOM      4  C   UNL     1      19.412   7.837  29.389  0.00  0.00    +0.175 C 
BRANCH   4   5
ATOM      5  C   UNL     1      18.993   8.498  30.711  0.00  0.00    +0.176 C 
ATOM      6  O   UNL     1      17.594   8.179  30.946  0.00  0.00    -0.332 OA
ATOM      7  C   UNL     1      17.044   8.641  32.224  0.00  0.00    +0.277 C 
ATOM      8  C   UNL     1      17.270  10.164  32.391  0.00  0.00    +0.110 C 
ATOM      9  C   UNL     1      18.738  10.555  32.120  0.00  0.00    +0.143 C 
ATOM     10  C   UNL     1      19.207  10.022  30.766  0.00  0.00    +0.133 C 
BRANCH  10  11
ATOM     11  N   UNL     1      20.631  10.326  30.557  0.00  0.00    -0.308 N 
ATOM     12  H   UNL     1      21.305   9.852  31.142  0.00  0.00    +0.149 HD
ATOM     13  C   UNL     1      21.092  11.187  29.646  0.00  0.00    +0.210 C 
ATOM     14  C   UNL     1      20.038  11.913  28.789  0.00  0.00    +0.109 C 
ATOM     15  O   UNL     1      22.292  11.411  29.484  0.00  0.00    -0.276 OA
ENDBRANCH  10  11
BRANCH   7  16
ATOM     16  C   UNL     1      17.698   7.891  33.403  0.00  0.00    +0.414 C 
ATOM     17  O   UNL     1      17.897   6.679  33.332  0.00  0.00    -0.240 OA
ATOM     18  O   UNL     1      18.025   8.497  34.424  0.00  0.00    -0.240 OA
ENDBRANCH   7  16
BRANCH   7  19
ATOM     19  O   UNL     1      15.616   8.389  32.216  0.00  0.00    -0.343 OA
ATOM     20  C   UNL     1      14.867   9.076  33.250  0.00  0.00    +0.198 C 
ENDBRANCH   7  19
BRANCH   9  21
ATOM     21  O   UNL     1      18.868  11.977  32.136  0.00  0.00    -0.390 OA
ATOM     22  H   UNL     1      19.797  12.214  32.204  0.00  0.00    +0.210 HD
ENDBRANCH   9  21
ENDBRANCH   4   5
BRANCH   4  23
ATOM     23  O   UNL     1      19.177   8.738  28.288  0.00  0.00    -0.387 OA
ATOM     24  H   UNL     1      19.810   8.559  27.588  0.00  0.00    +0.210 HD
ENDBRANCH   4  23
ENDBRANCH   1   4
BRANCH   1  25
ATOM     25  C   UNL     1      19.300   5.792  27.953  0.00  0.00    +0.141 C 
BRANCH  25  28
ATOM     26  C   UNL     1      18.717   6.770  25.760  0.00  0.00    +0.401 C 
ATOM     27  O   UNL     1      19.667   7.556  25.752  0.00  0.00    -0.226 OA
ATOM     28  N   UNL     1      18.466   5.914  26.751  0.00  0.00    -0.279 N 
ATOM     29  H   UNL     1      17.656   5.315  26.670  0.00  0.00    +0.152 HD
BRANCH  26  30
ATOM     30  O   UNL     1      17.814   6.761  24.651  0.00  0.00    -0.444 OA
BRANCH  30  31
ATOM     31  C   UNL     1      18.520   6.390  23.463  0.00  0.00    +0.292 C 
BRANCH  31  33
ATOM     32  N   UNL     1      16.977   4.809  22.346  0.00  0.00    -0.131 NA
ATOM     33  C   UNL     1      18.135   5.031  23.039  0.00  0.00    +0.120 A 
ATOM     34  C   UNL     1      18.786   3.832  23.219  0.00  0.00    +0.138 A 
ATOM     35  N   UNL     1      17.955   2.909  22.653  0.00  0.00    -0.238 N 
ATOM     36  N   UNL     1      16.883   3.509  22.103  0.00  0.00    -0.065 NA
BRANCH  35  37
ATOM     37  C   UNL     1      18.134   1.475  22.449  0.00  0.00    +0.217 C 
BRANCH  37  38
ATOM     38  C   UNL     1      18.298   1.078  20.989  0.00  0.00    +0.330 C 
ATOM     39  O   UNL     1      18.404  -0.063  20.566  0.00  0.00    -0.249 OA
BRANCH  38  40
ATOM     40  O   UNL     1      18.329   2.129  20.132  0.00  0.00    -0.479 OA
ATOM     41  H   UNL     1      17.482   2.579  19.947  0.00  0.00    +0.295 HD
ENDBRANCH  38  40
ENDBRANCH  37  38
BRANCH  37  42
ATOM     42  C   UNL     1      17.048   0.654  23.168  0.00  0.00    +0.049 C 
BRANCH  42  43
ATOM     43  C   UNL     1      17.568  -0.561  23.947  0.00  0.00    +0.123 C 
BRANCH  43  44
ATOM     44  C   UNL     1      17.057  -0.551  25.370  0.00  0.00    +0.305 C 
ATOM     45  O   UNL     1      17.763  -0.509  26.363  0.00  0.00    -0.251 OA
BRANCH  44  46
ATOM     46  O   UNL     1      15.708  -0.619  25.438  0.00  0.00    -0.481 OA
ATOM     47  H   UNL     1      15.319  -1.402  25.006  0.00  0.00    +0.295 HD
ENDBRANCH  44  46
ENDBRANCH  43  44
ENDBRANCH  42  43
ENDBRANCH  37  42
ENDBRANCH  35  37
ENDBRANCH  31  33
ENDBRANCH  30  31
ENDBRANCH  26  30
ENDBRANCH  25  28
ENDBRANCH   1  25
TORSDOF 20
