REMARK VINA RESULT:    -5.694     24.644     27.575
REMARK INTER + INTRA:         -14.109
REMARK INTER:                 -10.696
REMARK INTRA:                  -3.413
REMARK UNBOUND:                -3.588
REMARK  Name = lig_assembled_58.pdb
REMARK  18 active torsions:
REMARK  status: ('A' for Active; 'I' for Inactive)
REMARK    1  A    between atoms: _2  and  _9
REMARK    2  A    between atoms: _4  and  _25
REMARK    3  A    between atoms: _6  and  _7
REMARK    4  A    between atoms: _6  and  _25
REMARK    5  A    between atoms: _9  and  _10
REMARK    6  A    between atoms: _9  and  _16
REMARK    7  A    between atoms: _21  and  _41
REMARK    8  A    between atoms: _23  and  _29
REMARK    9  A    between atoms: _24  and  _28
REMARK   10  A    between atoms: _28  and  _29
REMARK   11  A    between atoms: _31  and  _32
REMARK   12  A    between atoms: _33  and  _34
REMARK   13  A    between atoms: _35  and  _37
REMARK   14  A    between atoms: _37  and  _38
REMARK   15  A    between atoms: _37  and  _39
REMARK   16  A    between atoms: _39  and  _40
REMARK   17  A    between atoms: _39  and  _41
REMARK   18  A    between atoms: _42  and  _44
REMARK                            x       y       z     vdW  Elec       q    Type
REMARK                         _______ _______ _______ _____ _____    ______ ____
ROOT
ATOM      1  C   UNL     1      -3.817  24.169  27.128  0.00  0.00    +0.141 C 
ENDROOT
BRANCH   1   4
ATOM      2  C   UNL     1      -4.283  24.922  24.821  0.00  0.00    +0.401 C 
ATOM      3  O   UNL     1      -4.975  25.881  25.174  0.00  0.00    -0.226 OA
ATOM      4  N   UNL     1      -3.708  24.067  25.667  0.00  0.00    -0.279 N 
ATOM      5  H   UNL     1      -3.167  23.306  25.282  0.00  0.00    +0.152 HD
BRANCH   2   6
ATOM      6  O   UNL     1      -4.075  24.692  23.425  0.00  0.00    -0.444 OA
BRANCH   6   7
ATOM      7  C   UNL     1      -4.838  23.557  23.009  0.00  0.00    +0.292 C 
BRANCH   7   9
ATOM      8  N   UNL     1      -3.103  21.779  23.093  0.00  0.00    -0.131 NA
ATOM      9  C   UNL     1      -3.962  22.560  22.367  0.00  0.00    +0.120 A 
ATOM     10  C   UNL     1      -3.864  22.215  21.039  0.00  0.00    +0.138 A 
ATOM     11  N   UNL     1      -3.049  21.115  21.035  0.00  0.00    -0.240 N 
ATOM     12  N   UNL     1      -2.532  20.911  22.268  0.00  0.00    -0.064 NA
BRANCH  11  13
ATOM     13  C   UNL     1      -2.736  20.187  19.933  0.00  0.00    +0.169 C 
BRANCH  13  14
ATOM     14  C   UNL     1      -2.189  18.868  20.499  0.00  0.00    -0.019 A 
ATOM     15  C   UNL     1      -0.842  18.520  20.301  0.00  0.00    +0.006 A 
ATOM     16  C   UNL     1      -0.349  17.296  20.762  0.00  0.00    +0.000 A 
ATOM     17  C   UNL     1      -1.186  16.408  21.436  0.00  0.00    +0.000 A 
ATOM     18  C   UNL     1      -2.522  16.734  21.639  0.00  0.00    +0.000 A 
ATOM     19  C   UNL     1      -3.021  17.946  21.164  0.00  0.00    +0.006 A 
ENDBRANCH  13  14
BRANCH  13  20
ATOM     20  C   UNL     1      -3.895  20.033  18.939  0.00  0.00    -0.019 A 
ATOM     21  C   UNL     1      -5.104  19.421  19.318  0.00  0.00    +0.006 A 
ATOM     22  C   UNL     1      -6.155  19.282  18.407  0.00  0.00    +0.000 A 
ATOM     23  C   UNL     1      -6.028  19.771  17.110  0.00  0.00    +0.000 A 
ATOM     24  C   UNL     1      -4.865  20.428  16.731  0.00  0.00    +0.000 A 
ATOM     25  C   UNL     1      -3.819  20.574  17.640  0.00  0.00    +0.006 A 
ENDBRANCH  13  20
ENDBRANCH  11  13
ENDBRANCH   7   9
ENDBRANCH   6   7
ENDBRANCH   2   6
ENDBRANCH   1   4
BRANCH   1  26
ATOM     26  C   UNL     1      -3.763  22.801  27.799  0.00  0.00    +0.163 C 
BRANCH  26  27
ATOM     27  O   UNL     1      -4.585  22.799  28.978  0.00  0.00    -0.388 OA
ATOM     28  H   UNL     1      -4.970  23.670  29.102  0.00  0.00    +0.210 HD
ENDBRANCH  26  27
BRANCH  26  29
ATOM     29  C   UNL     1      -4.226  21.722  26.805  0.00  0.00    +0.175 C 
BRANCH  29  30
ATOM     30  C   UNL     1      -5.199  20.722  27.448  0.00  0.00    +0.176 C 
ATOM     31  O   UNL     1      -4.528  20.115  28.586  0.00  0.00    -0.332 OA
ATOM     32  C   UNL     1      -5.347  19.204  29.392  0.00  0.00    +0.277 C 
ATOM     33  C   UNL     1      -5.967  18.101  28.499  0.00  0.00    +0.110 C 
ATOM     34  C   UNL     1      -6.664  18.697  27.259  0.00  0.00    +0.143 C 
ATOM     35  C   UNL     1      -5.724  19.631  26.496  0.00  0.00    +0.133 C 
BRANCH  35  36
ATOM     36  N   UNL     1      -6.426  20.260  25.367  0.00  0.00    -0.308 N 
ATOM     37  H   UNL     1      -7.143  20.940  25.577  0.00  0.00    +0.149 HD
ATOM     38  C   UNL     1      -6.178  19.990  24.082  0.00  0.00    +0.210 C 
ATOM     39  C   UNL     1      -5.099  18.929  23.796  0.00  0.00    +0.109 C 
ATOM     40  O   UNL     1      -6.773  20.543  23.156  0.00  0.00    -0.276 OA
ENDBRANCH  35  36
BRANCH  32  41
ATOM     41  C   UNL     1      -6.471  19.974  30.115  0.00  0.00    +0.414 C 
ATOM     42  O   UNL     1      -6.225  21.030  30.696  0.00  0.00    -0.240 OA
ATOM     43  O   UNL     1      -7.623  19.539  30.119  0.00  0.00    -0.240 OA
ENDBRANCH  32  41
BRANCH  34  44
ATOM     44  O   UNL     1      -7.087  17.644  26.391  0.00  0.00    -0.390 OA
ATOM     45  H   UNL     1      -7.129  16.821  26.883  0.00  0.00    +0.210 HD
ENDBRANCH  34  44
BRANCH  32  46
ATOM     46  O   UNL     1      -4.482  18.569  30.369  0.00  0.00    -0.343 OA
ATOM     47  C   UNL     1      -5.075  17.452  31.077  0.00  0.00    +0.198 C 
ENDBRANCH  32  46
ENDBRANCH  29  30
BRANCH  29  48
ATOM     48  O   UNL     1      -3.087  21.026  26.261  0.00  0.00    -0.387 OA
ATOM     49  H   UNL     1      -2.292  21.301  26.725  0.00  0.00    +0.210 HD
ENDBRANCH  29  48
ENDBRANCH  26  29
ENDBRANCH   1  26
TORSDOF 16
