REMARK VINA RESULT:    -6.278     13.714     15.458
REMARK INTER + INTRA:         -13.166
REMARK INTER:                 -11.222
REMARK INTRA:                  -1.944
REMARK UNBOUND:                -1.933
REMARK  Name = lig_assembled_39.pdb
REMARK  17 active torsions:
REMARK  status: ('A' for Active; 'I' for Inactive)
REMARK    1  A    between atoms: _2  and  _9
REMARK    2  A    between atoms: _4  and  _19
REMARK    3  A    between atoms: _6  and  _7
REMARK    4  A    between atoms: _6  and  _19
REMARK    5  A    between atoms: _9  and  _10
REMARK    6  A    between atoms: _15  and  _35
REMARK    7  A    between atoms: _17  and  _23
REMARK    8  A    between atoms: _18  and  _22
REMARK    9  A    between atoms: _22  and  _23
REMARK   10  A    between atoms: _25  and  _26
REMARK   11  A    between atoms: _27  and  _28
REMARK   12  A    between atoms: _29  and  _31
REMARK   13  A    between atoms: _31  and  _32
REMARK   14  A    between atoms: _31  and  _33
REMARK   15  A    between atoms: _33  and  _34
REMARK   16  A    between atoms: _33  and  _35
REMARK   17  A    between atoms: _36  and  _38
REMARK                            x       y       z     vdW  Elec       q    Type
REMARK                         _______ _______ _______ _____ _____    ______ ____
ROOT
ATOM      1  C   UNL     1       7.619   2.570  34.506  0.00  0.00    +0.163 C 
ENDROOT
BRANCH   1   2
ATOM      2  O   UNL     1       8.307   2.487  35.765  0.00  0.00    -0.388 OA
ATOM      3  H   UNL     1       8.931   3.212  35.838  0.00  0.00    +0.210 HD
ENDBRANCH   1   2
BRANCH   1   4
ATOM      4  C   UNL     1       8.069   1.435  33.591  0.00  0.00    +0.141 C 
BRANCH   4   7
ATOM      5  C   UNL     1       6.059   0.434  32.559  0.00  0.00    +0.401 C 
ATOM      6  O   UNL     1       5.905   1.349  31.746  0.00  0.00    -0.226 OA
ATOM      7  N   UNL     1       7.040   0.396  33.462  0.00  0.00    -0.279 N 
ATOM      8  H   UNL     1       7.077  -0.393  34.092  0.00  0.00    +0.152 HD
BRANCH   5   9
ATOM      9  O   UNL     1       5.139  -0.660  32.554  0.00  0.00    -0.444 OA
BRANCH   9  10
ATOM     10  C   UNL     1       4.139  -0.440  31.555  0.00  0.00    +0.292 C 
BRANCH  10  12
ATOM     11  N   UNL     1       4.447  -2.762  30.753  0.00  0.00    -0.131 NA
ATOM     12  C   UNL     1       4.267  -1.432  30.472  0.00  0.00    +0.120 A 
ATOM     13  C   UNL     1       4.216  -1.262  29.107  0.00  0.00    +0.137 A 
ATOM     14  N   UNL     1       4.287  -2.533  28.618  0.00  0.00    -0.247 N 
ATOM     15  N   UNL     1       4.488  -3.425  29.606  0.00  0.00    -0.065 NA
BRANCH  14  16
ATOM     16  C   UNL     1       4.104  -2.975  27.243  0.00  0.00    +0.181 C 
BRANCH  16  17
ATOM     17  C   UNL     1       5.284  -2.644  26.345  0.00  0.00    -0.012 A 
ATOM     18  C   UNL     1       6.606  -2.903  26.758  0.00  0.00    +0.006 A 
ATOM     19  C   UNL     1       7.700  -2.599  25.945  0.00  0.00    +0.000 A 
ATOM     20  C   UNL     1       7.501  -2.005  24.706  0.00  0.00    +0.001 A 
ATOM     21  C   UNL     1       6.208  -1.698  24.289  0.00  0.00    +0.015 A 
ATOM     22  C   UNL     1       5.108  -2.003  25.104  0.00  0.00    +0.023 A 
ATOM     23 BR   UNL     1       3.397  -1.485  24.455  0.00  0.00    -0.050 Br
ENDBRANCH  16  17
ENDBRANCH  14  16
ENDBRANCH  10  12
ENDBRANCH   9  10
ENDBRANCH   5   9
ENDBRANCH   4   7
ENDBRANCH   1   4
BRANCH   1  24
ATOM     24  C   UNL     1       7.888   3.920  33.820  0.00  0.00    +0.175 C 
BRANCH  24  25
ATOM     25  C   UNL     1       7.247   5.091  34.579  0.00  0.00    +0.176 C 
ATOM     26  O   UNL     1       7.976   5.270  35.825  0.00  0.00    -0.332 OA
ATOM     27  C   UNL     1       7.568   6.419  36.639  0.00  0.00    +0.277 C 
ATOM     28  C   UNL     1       6.047   6.367  36.925  0.00  0.00    +0.110 C 
ATOM     29  C   UNL     1       5.232   6.147  35.633  0.00  0.00    +0.143 C 
ATOM     30  C   UNL     1       5.742   4.928  34.863  0.00  0.00    +0.133 C 
BRANCH  30  31
ATOM     31  N   UNL     1       5.016   4.780  33.593  0.00  0.00    -0.308 N 
ATOM     32  H   UNL     1       5.189   5.462  32.868  0.00  0.00    +0.149 HD
ATOM     33  C   UNL     1       4.141   3.804  33.335  0.00  0.00    +0.210 C 
ATOM     34  C   UNL     1       3.879   2.796  34.470  0.00  0.00    +0.109 C 
ATOM     35  O   UNL     1       3.558   3.696  32.256  0.00  0.00    -0.276 OA
ENDBRANCH  30  31
BRANCH  27  36
ATOM     36  C   UNL     1       7.914   7.743  35.927  0.00  0.00    +0.414 C 
ATOM     37  O   UNL     1       8.226   8.737  36.583  0.00  0.00    -0.240 OA
ATOM     38  O   UNL     1       7.882   7.819  34.698  0.00  0.00    -0.240 OA
ENDBRANCH  27  36
BRANCH  27  39
ATOM     39  O   UNL     1       8.274   6.346  37.904  0.00  0.00    -0.343 OA
ATOM     40  C   UNL     1       7.424   6.304  39.078  0.00  0.00    +0.198 C 
ENDBRANCH  27  39
BRANCH  29  41
ATOM     41  O   UNL     1       3.855   5.955  35.959  0.00  0.00    -0.390 OA
ATOM     42  H   UNL     1       3.706   5.035  36.191  0.00  0.00    +0.210 HD
ENDBRANCH  29  41
ENDBRANCH  24  25
BRANCH  24  43
ATOM     43  O   UNL     1       7.413   3.890  32.460  0.00  0.00    -0.387 OA
ATOM     44  H   UNL     1       7.779   4.634  31.976  0.00  0.00    +0.210 HD
ENDBRANCH  24  43
ENDBRANCH   1  24
TORSDOF 15
