REMARK VINA RESULT:    -5.765      2.816      4.940
REMARK INTER + INTRA:         -16.242
REMARK INTER:                 -12.762
REMARK INTRA:                  -3.481
REMARK UNBOUND:                -2.725
REMARK  Name = lig_assembled_30.pdb
REMARK  27 active torsions:
REMARK  status: ('A' for Active; 'I' for Inactive)
REMARK    1  A    between atoms: _2  and  _9
REMARK    2  A    between atoms: _4  and  _25
REMARK    3  A    between atoms: _5  and  _18
REMARK    4  A    between atoms: _5  and  _19
REMARK    5  A    between atoms: _6  and  _7
REMARK    6  A    between atoms: _6  and  _25
REMARK    7  A    between atoms: _9  and  _10
REMARK    8  A    between atoms: _10  and  _11
REMARK    9  A    between atoms: _11  and  _12
REMARK   10  A    between atoms: _12  and  _13
REMARK   11  A    between atoms: _13  and  _14
REMARK   12  A    between atoms: _14  and  _15
REMARK   13  A    between atoms: _15  and  _16
REMARK   14  A    between atoms: _16  and  _17
REMARK   15  A    between atoms: _17  and  _18
REMARK   16  A    between atoms: _21  and  _41
REMARK   17  A    between atoms: _23  and  _29
REMARK   18  A    between atoms: _24  and  _28
REMARK   19  A    between atoms: _28  and  _29
REMARK   20  A    between atoms: _31  and  _32
REMARK   21  A    between atoms: _33  and  _34
REMARK   22  A    between atoms: _35  and  _37
REMARK   23  A    between atoms: _37  and  _38
REMARK   24  A    between atoms: _37  and  _39
REMARK   25  A    between atoms: _39  and  _40
REMARK   26  A    between atoms: _39  and  _41
REMARK   27  A    between atoms: _42  and  _44
REMARK                            x       y       z     vdW  Elec       q    Type
REMARK                         _______ _______ _______ _____ _____    ______ ____
ROOT
ATOM      1  C   UNL     1      18.030   4.314  23.468  0.00  0.00    +0.401 C 
ATOM      2  O   UNL     1      19.078   3.782  23.843  0.00  0.00    -0.226 OA
ATOM      3  N   UNL     1      17.850   5.633  23.393  0.00  0.00    -0.279 N 
ATOM      4  H   UNL     1      16.958   5.975  23.064  0.00  0.00    +0.152 HD
ENDROOT
BRANCH   1   5
ATOM      5  O   UNL     1      16.930   3.487  23.082  0.00  0.00    -0.444 OA
BRANCH   5   6
ATOM      6  C   UNL     1      17.034   3.172  21.691  0.00  0.00    +0.292 C 
BRANCH   6   8
ATOM      7  N   UNL     1      18.290   1.519  20.344  0.00  0.00    -0.131 NA
ATOM      8  C   UNL     1      17.651   1.845  21.511  0.00  0.00    +0.120 A 
ATOM      9  C   UNL     1      17.710   0.773  22.373  0.00  0.00    +0.137 A 
ATOM     10  N   UNL     1      18.395  -0.171  21.670  0.00  0.00    -0.251 N 
ATOM     11  N   UNL     1      18.742   0.276  20.453  0.00  0.00    -0.065 NA
BRANCH  10  12
ATOM     12  C   UNL     1      18.715  -1.522  22.076  0.00  0.00    +0.145 C 
BRANCH  12  13
ATOM     13  C   UNL     1      17.987  -1.901  23.360  0.00  0.00    +0.023 C 
BRANCH  13  14
ATOM     14  C   UNL     1      16.976  -3.023  23.136  0.00  0.00    +0.002 C 
BRANCH  14  15
ATOM     15  C   UNL     1      15.708  -2.761  23.947  0.00  0.00    +0.000 C 
BRANCH  15  16
ATOM     16  C   UNL     1      15.489  -3.827  25.017  0.00  0.00    +0.000 C 
BRANCH  16  17
ATOM     17  C   UNL     1      16.487  -3.659  26.163  0.00  0.00    +0.000 C 
BRANCH  17  18
ATOM     18  C   UNL     1      16.332  -2.292  26.824  0.00  0.00    +0.000 C 
BRANCH  18  19
ATOM     19  C   UNL     1      17.558  -1.928  27.662  0.00  0.00    +0.001 C 
BRANCH  19  20
ATOM     20  C   UNL     1      17.820  -0.424  27.599  0.00  0.00    +0.011 C 
BRANCH  20  21
ATOM     21  C   UNL     1      16.858   0.283  26.649  0.00  0.00    +0.120 C 
BRANCH  21  22
ATOM     22  C   UNL     1      17.125   1.770  26.596  0.00  0.00    +0.305 C 
ATOM     23  O   UNL     1      18.219   2.288  26.433  0.00  0.00    -0.251 OA
BRANCH  22  24
ATOM     24  O   UNL     1      15.998   2.502  26.751  0.00  0.00    -0.481 OA
ATOM     25  H   UNL     1      15.895   3.208  26.087  0.00  0.00    +0.295 HD
ENDBRANCH  22  24
ENDBRANCH  21  22
ENDBRANCH  20  21
ENDBRANCH  19  20
ENDBRANCH  18  19
ENDBRANCH  17  18
ENDBRANCH  16  17
ENDBRANCH  15  16
ENDBRANCH  14  15
ENDBRANCH  13  14
ENDBRANCH  12  13
ENDBRANCH  10  12
ENDBRANCH   6   8
ENDBRANCH   5   6
ENDBRANCH   1   5
BRANCH   3  26
ATOM     26  C   UNL     1      18.875   6.618  23.761  0.00  0.00    +0.141 C 
BRANCH  26  27
ATOM     27  C   UNL     1      18.492   7.397  25.014  0.00  0.00    +0.163 C 
BRANCH  27  28
ATOM     28  O   UNL     1      17.093   7.726  24.979  0.00  0.00    -0.388 OA
ATOM     29  H   UNL     1      16.595   7.058  25.457  0.00  0.00    +0.210 HD
ENDBRANCH  27  28
BRANCH  27  30
ATOM     30  C   UNL     1      18.830   6.563  26.262  0.00  0.00    +0.175 C 
BRANCH  30  31
ATOM     31  C   UNL     1      19.013   7.439  27.510  0.00  0.00    +0.176 C 
ATOM     32  O   UNL     1      19.878   8.552  27.153  0.00  0.00    -0.332 OA
ATOM     33  C   UNL     1      20.082   9.558  28.199  0.00  0.00    +0.277 C 
ATOM     34  C   UNL     1      20.597   8.891  29.498  0.00  0.00    +0.110 C 
ATOM     35  C   UNL     1      19.727   7.682  29.901  0.00  0.00    +0.143 C 
ATOM     36  C   UNL     1      19.578   6.701  28.738  0.00  0.00    +0.133 C 
BRANCH  36  37
ATOM     37  N   UNL     1      18.677   5.598  29.106  0.00  0.00    -0.308 N 
ATOM     38  H   UNL     1      17.704   5.817  29.266  0.00  0.00    +0.149 HD
ATOM     39  C   UNL     1      19.061   4.325  29.242  0.00  0.00    +0.210 C 
ATOM     40  C   UNL     1      20.555   4.028  29.016  0.00  0.00    +0.109 C 
ATOM     41  O   UNL     1      18.280   3.420  29.537  0.00  0.00    -0.276 OA
ENDBRANCH  36  37
BRANCH  33  42
ATOM     42  C   UNL     1      18.770  10.315  28.493  0.00  0.00    +0.414 C 
ATOM     43  O   UNL     1      17.921  10.449  27.613  0.00  0.00    -0.240 OA
ATOM     44  O   UNL     1      18.560  10.790  29.610  0.00  0.00    -0.240 OA
ENDBRANCH  33  42
BRANCH  35  45
ATOM     45  O   UNL     1      20.322   7.009  31.011  0.00  0.00    -0.390 OA
ATOM     46  H   UNL     1      20.783   6.226  30.702  0.00  0.00    +0.210 HD
ENDBRANCH  35  45
BRANCH  33  47
ATOM     47  O   UNL     1      21.090  10.492  27.734  0.00  0.00    -0.343 OA
ATOM     48  C   UNL     1      22.225  10.660  28.621  0.00  0.00    +0.198 C 
ENDBRANCH  33  47
ENDBRANCH  30  31
BRANCH  30  49
ATOM     49  O   UNL     1      20.016   5.778  26.028  0.00  0.00    -0.387 OA
ATOM     50  H   UNL     1      20.779   6.236  26.387  0.00  0.00    +0.210 HD
ENDBRANCH  30  49
ENDBRANCH  27  30
ENDBRANCH  26  27
ENDBRANCH   3  26
TORSDOF 25
