REMARK VINA RESULT:    -6.714      1.797      3.771
REMARK INTER + INTRA:         -14.361
REMARK INTER:                 -13.065
REMARK INTRA:                  -1.297
REMARK UNBOUND:                -1.955
REMARK  Name = lig_assembled_78.pdb
REMARK  18 active torsions:
REMARK  status: ('A' for Active; 'I' for Inactive)
REMARK    1  A    between atoms: _2  and  _9
REMARK    2  A    between atoms: _4  and  _21
REMARK    3  A    between atoms: _6  and  _7
REMARK    4  A    between atoms: _6  and  _21
REMARK    5  A    between atoms: _9  and  _41
REMARK    6  A    between atoms: _10  and  _41
REMARK    7  A    between atoms: _17  and  _37
REMARK    8  A    between atoms: _19  and  _25
REMARK    9  A    between atoms: _20  and  _24
REMARK   10  A    between atoms: _24  and  _25
REMARK   11  A    between atoms: _27  and  _28
REMARK   12  A    between atoms: _29  and  _30
REMARK   13  A    between atoms: _31  and  _33
REMARK   14  A    between atoms: _33  and  _34
REMARK   15  A    between atoms: _33  and  _35
REMARK   16  A    between atoms: _35  and  _36
REMARK   17  A    between atoms: _35  and  _37
REMARK   18  A    between atoms: _38  and  _40
REMARK                            x       y       z     vdW  Elec       q    Type
REMARK                         _______ _______ _______ _____ _____    ______ ____
ROOT
ATOM      1  C   UNL     1       6.466   2.684  33.001  0.00  0.00    +0.163 C 
ENDROOT
BRANCH   1   2
ATOM      2  O   UNL     1       6.092   2.972  31.644  0.00  0.00    -0.388 OA
ATOM      3  H   UNL     1       5.378   2.388  31.378  0.00  0.00    +0.210 HD
ENDBRANCH   1   2
BRANCH   1   4
ATOM      4  C   UNL     1       7.610   3.603  33.463  0.00  0.00    +0.175 C 
BRANCH   4   5
ATOM      5  C   UNL     1       7.366   4.168  34.870  0.00  0.00    +0.176 C 
ATOM      6  O   UNL     1       7.428   5.618  34.787  0.00  0.00    -0.332 OA
ATOM      7  C   UNL     1       7.112   6.338  36.024  0.00  0.00    +0.277 C 
ATOM      8  C   UNL     1       8.010   5.842  37.184  0.00  0.00    +0.110 C 
ATOM      9  C   UNL     1       8.001   4.302  37.292  0.00  0.00    +0.143 C 
ATOM     10  C   UNL     1       8.340   3.656  35.948  0.00  0.00    +0.133 C 
BRANCH  10  11
ATOM     11  N   UNL     1       8.243   2.191  36.042  0.00  0.00    -0.308 N 
ATOM     12  H   UNL     1       7.376   1.796  36.378  0.00  0.00    +0.149 HD
ATOM     13  C   UNL     1       9.226   1.349  35.713  0.00  0.00    +0.210 C 
ATOM     14  C   UNL     1      10.544   1.983  35.229  0.00  0.00    +0.109 C 
ATOM     15  O   UNL     1       9.112   0.125  35.788  0.00  0.00    -0.276 OA
ENDBRANCH  10  11
BRANCH   7  16
ATOM     16  C   UNL     1       5.628   6.149  36.403  0.00  0.00    +0.414 C 
ATOM     17  O   UNL     1       4.774   6.035  35.526  0.00  0.00    -0.240 OA
ATOM     18  O   UNL     1       5.286   6.110  37.586  0.00  0.00    -0.240 OA
ENDBRANCH   7  16
BRANCH   7  19
ATOM     19  O   UNL     1       7.384   7.747  35.806  0.00  0.00    -0.343 OA
ATOM     20  C   UNL     1       7.513   8.137  34.415  0.00  0.00    +0.198 C 
ENDBRANCH   7  19
BRANCH   9  21
ATOM     21  O   UNL     1       8.954   3.882  38.269  0.00  0.00    -0.390 OA
ATOM     22  H   UNL     1       9.820   3.807  37.862  0.00  0.00    +0.210 HD
ENDBRANCH   9  21
ENDBRANCH   4   5
BRANCH   4  23
ATOM     23  O   UNL     1       7.794   4.679  32.521  0.00  0.00    -0.387 OA
ATOM     24  H   UNL     1       8.296   4.362  31.767  0.00  0.00    +0.210 HD
ENDBRANCH   4  23
ENDBRANCH   1   4
BRANCH   1  25
ATOM     25  C   UNL     1       5.264   2.865  33.923  0.00  0.00    +0.141 C 
BRANCH  25  28
ATOM     26  C   UNL     1       2.847   3.263  33.600  0.00  0.00    +0.401 C 
ATOM     27  O   UNL     1       2.728   3.949  34.618  0.00  0.00    -0.226 OA
ATOM     28  N   UNL     1       3.994   2.712  33.202  0.00  0.00    -0.279 N 
ATOM     29  H   UNL     1       3.989   2.157  32.358  0.00  0.00    +0.152 HD
BRANCH  26  30
ATOM     30  O   UNL     1       1.697   3.028  32.783  0.00  0.00    -0.444 OA
BRANCH  30  31
ATOM     31  C   UNL     1       2.025   2.088  31.756  0.00  0.00    +0.292 C 
BRANCH  31  33
ATOM     32  N   UNL     1       0.893   3.703  30.255  0.00  0.00    -0.131 NA
ATOM     33  C   UNL     1       1.786   2.679  30.426  0.00  0.00    +0.120 A 
ATOM     34  C   UNL     1       2.347   2.364  29.208  0.00  0.00    +0.139 A 
ATOM     35  N   UNL     1       1.800   3.272  28.350  0.00  0.00    -0.230 N 
ATOM     36  N   UNL     1       0.892   4.044  28.973  0.00  0.00    -0.064 NA
BRANCH  35  37
ATOM     37  C   UNL     1       2.019   3.418  26.932  0.00  0.00    +0.316 C 
BRANCH  37  38
ATOM     38  S   UNL     1       0.523   3.636  26.003  0.00  0.00    +0.017 S 
ATOM     39  O   UNL     1      -0.222   2.394  25.967  0.00  0.00    -0.168 OA
ATOM     40  O   UNL     1      -0.104   4.869  26.447  0.00  0.00    -0.168 OA
BRANCH  38  41
ATOM     41  C   UNL     1       1.085   3.913  24.336  0.00  0.00    +0.090 A 
ATOM     42  C   UNL     1       1.315   2.814  23.501  0.00  0.00    +0.027 A 
ATOM     43  C   UNL     1       1.731   3.027  22.188  0.00  0.00    +0.002 A 
ATOM     44  C   UNL     1       1.896   4.328  21.709  0.00  0.00    +0.000 A 
ATOM     45  C   UNL     1       1.646   5.421  22.540  0.00  0.00    +0.002 A 
ATOM     46  C   UNL     1       1.239   5.218  23.859  0.00  0.00    +0.027 A 
ENDBRANCH  38  41
ENDBRANCH  37  38
ENDBRANCH  35  37
ENDBRANCH  31  33
ENDBRANCH  30  31
ENDBRANCH  26  30
ENDBRANCH  25  28
ENDBRANCH   1  25
TORSDOF 16
