REMARK VINA RESULT:    -6.735      4.896      8.503
REMARK INTER + INTRA:         -13.292
REMARK INTER:                 -11.661
REMARK INTRA:                  -1.631
REMARK UNBOUND:                -1.636
REMARK  Name = lig_assembled_52.pdb
REMARK  16 active torsions:
REMARK  status: ('A' for Active; 'I' for Inactive)
REMARK    1  A    between atoms: _2  and  _10
REMARK    2  A    between atoms: _5  and  _18
REMARK    3  A    between atoms: _7  and  _8
REMARK    4  A    between atoms: _7  and  _18
REMARK    5  A    between atoms: _14  and  _34
REMARK    6  A    between atoms: _16  and  _22
REMARK    7  A    between atoms: _17  and  _21
REMARK    8  A    between atoms: _21  and  _22
REMARK    9  A    between atoms: _24  and  _25
REMARK   10  A    between atoms: _26  and  _27
REMARK   11  A    between atoms: _28  and  _30
REMARK   12  A    between atoms: _30  and  _31
REMARK   13  A    between atoms: _30  and  _32
REMARK   14  A    between atoms: _32  and  _33
REMARK   15  A    between atoms: _32  and  _34
REMARK   16  A    between atoms: _35  and  _37
REMARK                            x       y       z     vdW  Elec       q    Type
REMARK                         _______ _______ _______ _____ _____    ______ ____
ROOT
ATOM      1  C   UNL     1       7.229   2.428  34.344  0.00  0.00    +0.163 C 
ENDROOT
BRANCH   1   2
ATOM      2  O   UNL     1       7.208   2.430  35.780  0.00  0.00    -0.388 OA
ATOM      3  H   UNL     1       6.477   1.891  36.091  0.00  0.00    +0.210 HD
ENDBRANCH   1   2
BRANCH   1   4
ATOM      4  C   UNL     1       8.138   1.313  33.836  0.00  0.00    +0.141 C 
BRANCH   4   7
ATOM      5  C   UNL     1      10.370   1.669  34.835  0.00  0.00    +0.401 C 
ATOM      6  O   UNL     1      10.039   1.264  35.952  0.00  0.00    -0.226 OA
ATOM      7  N   UNL     1       9.544   1.732  33.790  0.00  0.00    -0.279 N 
ATOM      8  H   UNL     1       9.907   2.089  32.917  0.00  0.00    +0.152 HD
BRANCH   5   9
ATOM      9  O   UNL     1      11.715   2.107  34.626  0.00  0.00    -0.444 OA
BRANCH   9  10
ATOM     10  C   UNL     1      12.243   2.631  35.848  0.00  0.00    +0.292 C 
BRANCH  10  12
ATOM     11  N   UNL     1      13.756   3.865  34.330  0.00  0.00    -0.131 NA
ATOM     12  C   UNL     1      13.200   3.716  35.568  0.00  0.00    +0.121 A 
ATOM     13  C   UNL     1      13.681   4.704  36.396  0.00  0.00    +0.143 A 
ATOM     14  N   UNL     1      14.522   5.454  35.606  0.00  0.00    -0.218 N 
ATOM     15  N   UNL     1      14.560   4.920  34.362  0.00  0.00    -0.060 NA
BRANCH  14  16
ATOM     16  C   UNL     1      15.252   6.613  35.946  0.00  0.00    +0.085 A 
ATOM     17  C   UNL     1      15.432   7.012  37.273  0.00  0.00    +0.031 A 
ATOM     18  C   UNL     1      16.145   8.179  37.542  0.00  0.00    +0.022 A 
ATOM     19  C   UNL     1      16.655   8.902  36.477  0.00  0.00    +0.111 A 
ATOM     20  N   UNL     1      16.505   8.539  35.186  0.00  0.00    -0.261 NA
ATOM     21  C   UNL     1      15.807   7.402  34.944  0.00  0.00    +0.138 A 
ENDBRANCH  14  16
ENDBRANCH  10  12
ENDBRANCH   9  10
ENDBRANCH   5   9
ENDBRANCH   4   7
ENDBRANCH   1   4
BRANCH   1  22
ATOM     22  C   UNL     1       7.721   3.780  33.798  0.00  0.00    +0.175 C 
BRANCH  22  23
ATOM     23  C   UNL     1       7.102   4.967  34.552  0.00  0.00    +0.176 C 
ATOM     24  O   UNL     1       7.809   5.111  35.815  0.00  0.00    -0.332 OA
ATOM     25  C   UNL     1       7.422   6.267  36.629  0.00  0.00    +0.277 C 
ATOM     26  C   UNL     1       5.894   6.265  36.881  0.00  0.00    +0.110 C 
ATOM     27  C   UNL     1       5.101   6.082  35.570  0.00  0.00    +0.143 C 
ATOM     28  C   UNL     1       5.587   4.852  34.802  0.00  0.00    +0.133 C 
BRANCH  28  29
ATOM     29  N   UNL     1       4.884   4.738  33.515  0.00  0.00    -0.308 N 
ATOM     30  H   UNL     1       5.098   5.418  32.798  0.00  0.00    +0.149 HD
ATOM     31  C   UNL     1       3.982   3.795  33.230  0.00  0.00    +0.210 C 
ATOM     32  C   UNL     1       3.659   2.789  34.352  0.00  0.00    +0.109 C 
ATOM     33  O   UNL     1       3.420   3.715  32.138  0.00  0.00    -0.276 OA
ENDBRANCH  28  29
BRANCH  25  34
ATOM     34  C   UNL     1       7.828   7.584  35.936  0.00  0.00    +0.414 C 
ATOM     35  O   UNL     1       8.131   8.570  36.607  0.00  0.00    -0.240 OA
ATOM     36  O   UNL     1       7.853   7.661  34.707  0.00  0.00    -0.240 OA
ENDBRANCH  25  34
BRANCH  27  37
ATOM     37  O   UNL     1       3.711   5.934  35.865  0.00  0.00    -0.390 OA
ATOM     38  H   UNL     1       3.416   6.675  36.398  0.00  0.00    +0.210 HD
ENDBRANCH  27  37
BRANCH  25  39
ATOM     39  O   UNL     1       8.097   6.161  37.909  0.00  0.00    -0.343 OA
ATOM     40  C   UNL     1       9.473   5.710  37.840  0.00  0.00    +0.198 C 
ENDBRANCH  25  39
ENDBRANCH  22  23
BRANCH  22  41
ATOM     41  O   UNL     1       7.432   3.882  32.390  0.00  0.00    -0.387 OA
ATOM     42  H   UNL     1       7.621   3.043  31.962  0.00  0.00    +0.210 HD
ENDBRANCH  22  41
ENDBRANCH   1  22
TORSDOF 14
