REMARK VINA RESULT:    -5.564     12.249     15.297
REMARK INTER + INTRA:         -12.927
REMARK INTER:                 -11.044
REMARK INTRA:                  -1.883
REMARK UNBOUND:                -2.810
REMARK  Name = lig_assembled_53.pdb
REMARK  18 active torsions:
REMARK  status: ('A' for Active; 'I' for Inactive)
REMARK    1  A    between atoms: _2  and  _9
REMARK    2  A    between atoms: _4  and  _16
REMARK    3  A    between atoms: _5  and  _9
REMARK    4  A    between atoms: _5  and  _10
REMARK    5  A    between atoms: _6  and  _7
REMARK    6  A    between atoms: _6  and  _16
REMARK    7  A    between atoms: _12  and  _32
REMARK    8  A    between atoms: _14  and  _20
REMARK    9  A    between atoms: _15  and  _19
REMARK   10  A    between atoms: _19  and  _20
REMARK   11  A    between atoms: _22  and  _23
REMARK   12  A    between atoms: _24  and  _25
REMARK   13  A    between atoms: _26  and  _28
REMARK   14  A    between atoms: _28  and  _29
REMARK   15  A    between atoms: _28  and  _30
REMARK   16  A    between atoms: _30  and  _31
REMARK   17  A    between atoms: _30  and  _32
REMARK   18  A    between atoms: _33  and  _35
REMARK                            x       y       z     vdW  Elec       q    Type
REMARK                         _______ _______ _______ _____ _____    ______ ____
ROOT
ATOM      1  C   UNL     1       7.680   3.847  33.887  0.00  0.00    +0.175 C 
ENDROOT
BRANCH   1   2
ATOM      2  C   UNL     1       7.112   5.031  34.684  0.00  0.00    +0.176 C 
ATOM      3  O   UNL     1       7.842   5.118  35.938  0.00  0.00    -0.332 OA
ATOM      4  C   UNL     1       7.506   6.263  36.789  0.00  0.00    +0.277 C 
ATOM      5  C   UNL     1       5.983   6.301  37.067  0.00  0.00    +0.110 C 
ATOM      6  C   UNL     1       5.163   6.179  35.765  0.00  0.00    +0.143 C 
ATOM      7  C   UNL     1       5.598   4.957  34.956  0.00  0.00    +0.133 C 
BRANCH   7   8
ATOM      8  N   UNL     1       4.871   4.900  33.678  0.00  0.00    -0.308 N 
ATOM      9  H   UNL     1       5.110   5.579  32.968  0.00  0.00    +0.149 HD
ATOM     10  C   UNL     1       3.915   4.011  33.394  0.00  0.00    +0.210 C 
ATOM     11  C   UNL     1       3.556   3.007  34.505  0.00  0.00    +0.109 C 
ATOM     12  O   UNL     1       3.334   3.978  32.309  0.00  0.00    -0.276 OA
ENDBRANCH   7   8
BRANCH   4  13
ATOM     13  C   UNL     1       7.942   7.585  36.126  0.00  0.00    +0.414 C 
ATOM     14  O   UNL     1       8.064   7.655  34.903  0.00  0.00    -0.240 OA
ATOM     15  O   UNL     1       8.172   8.582  36.812  0.00  0.00    -0.240 OA
ENDBRANCH   4  13
BRANCH   4  16
ATOM     16  O   UNL     1       8.197   6.100  38.054  0.00  0.00    -0.343 OA
ATOM     17  C   UNL     1       9.465   5.401  37.973  0.00  0.00    +0.198 C 
ENDBRANCH   4  16
BRANCH   6  18
ATOM     18  O   UNL     1       3.775   6.067  36.079  0.00  0.00    -0.390 OA
ATOM     19  H   UNL     1       3.647   5.363  36.719  0.00  0.00    +0.210 HD
ENDBRANCH   6  18
ENDBRANCH   1   2
BRANCH   1  20
ATOM     20  O   UNL     1       7.383   4.003  32.485  0.00  0.00    -0.387 OA
ATOM     21  H   UNL     1       7.346   4.937  32.268  0.00  0.00    +0.210 HD
ENDBRANCH   1  20
BRANCH   1  22
ATOM     22  C   UNL     1       7.144   2.497  34.395  0.00  0.00    +0.163 C 
BRANCH  22  23
ATOM     23  O   UNL     1       7.137   2.455  35.832  0.00  0.00    -0.388 OA
ATOM     24  H   UNL     1       7.117   1.541  36.126  0.00  0.00    +0.210 HD
ENDBRANCH  22  23
BRANCH  22  25
ATOM     25  C   UNL     1       8.008   1.367  33.845  0.00  0.00    +0.141 C 
BRANCH  25  28
ATOM     26  C   UNL     1      10.287   1.684  34.745  0.00  0.00    +0.401 C 
ATOM     27  O   UNL     1       9.996   1.289  35.877  0.00  0.00    -0.226 OA
ATOM     28  N   UNL     1       9.418   1.758  33.736  0.00  0.00    -0.279 N 
ATOM     29  H   UNL     1       9.750   2.104  32.846  0.00  0.00    +0.152 HD
BRANCH  26  30
ATOM     30  O   UNL     1      11.630   2.095  34.477  0.00  0.00    -0.444 OA
BRANCH  30  31
ATOM     31  C   UNL     1      12.279   2.439  35.704  0.00  0.00    +0.292 C 
BRANCH  31  33
ATOM     32  N   UNL     1      13.741   3.848  34.285  0.00  0.00    -0.131 NA
ATOM     33  C   UNL     1      13.180   3.589  35.507  0.00  0.00    +0.120 A 
ATOM     34  C   UNL     1      13.604   4.541  36.406  0.00  0.00    +0.137 A 
ATOM     35  N   UNL     1      14.470   5.312  35.691  0.00  0.00    -0.241 N 
ATOM     36  N   UNL     1      14.513   4.918  34.403  0.00  0.00    -0.065 NA
BRANCH  35  37
ATOM     37  C   UNL     1      15.179   6.519  36.066  0.00  0.00    +0.265 C 
BRANCH  37  38
ATOM     38  C   UNL     1      16.165   7.028  35.050  0.00  0.00    +0.326 C 
ATOM     39  O   UNL     1      17.370   6.828  35.037  0.00  0.00    -0.249 OA
BRANCH  38  40
ATOM     40  O   UNL     1      15.576   7.791  34.091  0.00  0.00    -0.479 OA
ATOM     41  H   UNL     1      14.766   8.265  34.361  0.00  0.00    +0.295 HD
ENDBRANCH  38  40
ENDBRANCH  37  38
ENDBRANCH  35  37
ENDBRANCH  31  33
ENDBRANCH  30  31
ENDBRANCH  26  30
ENDBRANCH  25  28
ENDBRANCH  22  25
ENDBRANCH   1  22
TORSDOF 16
