REMARK VINA RESULT:    -6.878      2.641      4.447
REMARK INTER + INTRA:         -15.409
REMARK INTER:                 -13.400
REMARK INTRA:                  -2.008
REMARK UNBOUND:                -2.499
REMARK  Name = lig_assembled_64.pdb
REMARK  19 active torsions:
REMARK  status: ('A' for Active; 'I' for Inactive)
REMARK    1  A    between atoms: _2  and  _10
REMARK    2  A    between atoms: _5  and  _27
REMARK    3  A    between atoms: _7  and  _8
REMARK    4  A    between atoms: _7  and  _27
REMARK    5  A    between atoms: _12  and  _13
REMARK    6  A    between atoms: _13  and  _21
REMARK    7  A    between atoms: _14  and  _15
REMARK    8  A    between atoms: _23  and  _43
REMARK    9  A    between atoms: _25  and  _31
REMARK   10  A    between atoms: _26  and  _30
REMARK   11  A    between atoms: _30  and  _31
REMARK   12  A    between atoms: _33  and  _34
REMARK   13  A    between atoms: _35  and  _36
REMARK   14  A    between atoms: _37  and  _39
REMARK   15  A    between atoms: _39  and  _40
REMARK   16  A    between atoms: _39  and  _41
REMARK   17  A    between atoms: _41  and  _42
REMARK   18  A    between atoms: _41  and  _43
REMARK   19  A    between atoms: _44  and  _46
REMARK                            x       y       z     vdW  Elec       q    Type
REMARK                         _______ _______ _______ _____ _____    ______ ____
ROOT
ATOM      1  C   UNL     1       2.052   1.525  30.161  0.00  0.00    +0.401 C 
ATOM      2  O   UNL     1       1.440   0.794  30.943  0.00  0.00    -0.226 OA
ATOM      3  N   UNL     1       3.169   2.183  30.474  0.00  0.00    -0.279 N 
ATOM      4  H   UNL     1       3.604   2.751  29.761  0.00  0.00    +0.152 HD
ENDROOT
BRANCH   3   5
ATOM      5  C   UNL     1       3.801   2.129  31.798  0.00  0.00    +0.141 C 
BRANCH   5   6
ATOM      6  C   UNL     1       4.657   3.362  32.070  0.00  0.00    +0.163 C 
BRANCH   6   7
ATOM      7  O   UNL     1       3.935   4.288  32.899  0.00  0.00    -0.388 OA
ATOM      8  H   UNL     1       3.830   5.120  32.432  0.00  0.00    +0.210 HD
ENDBRANCH   6   7
BRANCH   6   9
ATOM      9  C   UNL     1       5.974   2.935  32.741  0.00  0.00    +0.175 C 
BRANCH   9  10
ATOM     10  C   UNL     1       6.129   3.535  34.146  0.00  0.00    +0.176 C 
ATOM     11  O   UNL     1       6.629   4.893  34.000  0.00  0.00    -0.332 OA
ATOM     12  C   UNL     1       6.740   5.665  35.241  0.00  0.00    +0.277 C 
ATOM     13  C   UNL     1       7.597   4.900  36.279  0.00  0.00    +0.110 C 
ATOM     14  C   UNL     1       7.122   3.441  36.446  0.00  0.00    +0.143 C 
ATOM     15  C   UNL     1       7.040   2.733  35.093  0.00  0.00    +0.133 C 
BRANCH  15  16
ATOM     16  N   UNL     1       6.504   1.372  35.255  0.00  0.00    -0.308 N 
ATOM     17  H   UNL     1       5.565   1.275  35.615  0.00  0.00    +0.149 HD
ATOM     18  C   UNL     1       7.178   0.258  34.958  0.00  0.00    +0.210 C 
ATOM     19  C   UNL     1       8.615   0.439  34.435  0.00  0.00    +0.109 C 
ATOM     20  O   UNL     1       6.698  -0.869  35.090  0.00  0.00    -0.276 OA
ENDBRANCH  15  16
BRANCH  12  21
ATOM     21  C   UNL     1       5.344   5.950  35.834  0.00  0.00    +0.414 C 
ATOM     22  O   UNL     1       4.338   5.831  35.136  0.00  0.00    -0.240 OA
ATOM     23  O   UNL     1       5.225   6.298  37.010  0.00  0.00    -0.240 OA
ENDBRANCH  12  21
BRANCH  12  24
ATOM     24  O   UNL     1       7.404   6.917  34.933  0.00  0.00    -0.343 OA
ATOM     25  C   UNL     1       8.263   7.430  35.983  0.00  0.00    +0.198 C 
ENDBRANCH  12  24
BRANCH  14  26
ATOM     26  O   UNL     1       8.028   2.733  37.293  0.00  0.00    -0.390 OA
ATOM     27  H   UNL     1       8.590   2.166  36.760  0.00  0.00    +0.210 HD
ENDBRANCH  14  26
ENDBRANCH   9  10
BRANCH   9  28
ATOM     28  O   UNL     1       7.095   3.309  31.915  0.00  0.00    -0.387 OA
ATOM     29  H   UNL     1       7.427   4.166  32.194  0.00  0.00    +0.210 HD
ENDBRANCH   9  28
ENDBRANCH   6   9
ENDBRANCH   5   6
ENDBRANCH   3   5
BRANCH   1  30
ATOM     30  O   UNL     1       1.555   1.689  28.830  0.00  0.00    -0.444 OA
BRANCH  30  31
ATOM     31  C   UNL     1       2.047   2.916  28.284  0.00  0.00    +0.292 C 
BRANCH  31  33
ATOM     32  N   UNL     1      -0.064   4.161  27.900  0.00  0.00    -0.131 NA
ATOM     33  C   UNL     1       1.039   3.530  27.400  0.00  0.00    +0.121 A 
ATOM     34  C   UNL     1       1.003   3.588  26.026  0.00  0.00    +0.143 A 
ATOM     35  N   UNL     1      -0.156   4.265  25.729  0.00  0.00    -0.220 N 
ATOM     36  N   UNL     1      -0.784   4.608  26.878  0.00  0.00    -0.060 NA
BRANCH  35  37
ATOM     37  C   UNL     1      -0.679   4.597  24.455  0.00  0.00    +0.071 A 
ATOM     38  C   UNL     1      -1.932   5.189  24.343  0.00  0.00    +0.063 A 
ATOM     39  CA  UNL     1      -2.384   5.487  23.072  0.00  0.00    +0.150 A 
ATOM     40  N   UNL     1      -1.697   5.238  21.922  0.00  0.00    -0.240 NA
ATOM     41  C   UNL     1      -0.478   4.645  22.039  0.00  0.00    +0.074 A 
ATOM     42  C   UNL     1       0.059   4.327  23.291  0.00  0.00    +0.056 A 
BRANCH  41  43
ATOM     43  C   UNL     1       0.214   4.344  20.762  0.00  0.00    +0.000 A 
ATOM     44  C   UNL     1      -0.403   4.542  19.513  0.00  0.00    +0.010 A 
ATOM     45  C   UNL     1       0.274   4.290  18.313  0.00  0.00    +0.001 A 
ATOM     46  C   UNL     1       1.587   3.833  18.333  0.00  0.00    +0.000 A 
ATOM     47  C   UNL     1       2.221   3.620  19.553  0.00  0.00    +0.001 A 
ATOM     48  C   UNL     1       1.542   3.873  20.751  0.00  0.00    +0.010 A 
ENDBRANCH  41  43
BRANCH  39  49
ATOM     49  C   UNL     1      -3.723   6.122  22.905  0.00  0.00    +0.355 C 
ATOM     50  OXT UNL     1      -4.780   5.517  22.911  0.00  0.00    -0.243 OA
BRANCH  49  51
ATOM     51  O   UNL     1      -3.602   7.459  22.743  0.00  0.00    -0.476 OA
ATOM     52  H   UNL     1      -3.810   7.689  21.807  0.00  0.00    +0.295 HD
ENDBRANCH  49  51
ENDBRANCH  39  49
ENDBRANCH  35  37
ENDBRANCH  31  33
ENDBRANCH  30  31
ENDBRANCH   1  30
TORSDOF 17
