REMARK VINA RESULT:    -6.787      4.579      5.676
REMARK INTER + INTRA:         -12.948
REMARK INTER:                 -10.330
REMARK INTRA:                  -2.618
REMARK UNBOUND:                -1.202
REMARK  Name = lig_assembled_40.pdb
REMARK  17 active torsions:
REMARK  status: ('A' for Active; 'I' for Inactive)
REMARK    1  A    between atoms: _2  and  _9
REMARK    2  A    between atoms: _4  and  _19
REMARK    3  A    between atoms: _6  and  _7
REMARK    4  A    between atoms: _6  and  _19
REMARK    5  A    between atoms: _12  and  _13
REMARK    6  A    between atoms: _15  and  _35
REMARK    7  A    between atoms: _17  and  _23
REMARK    8  A    between atoms: _18  and  _22
REMARK    9  A    between atoms: _22  and  _23
REMARK   10  A    between atoms: _25  and  _26
REMARK   11  A    between atoms: _27  and  _28
REMARK   12  A    between atoms: _29  and  _31
REMARK   13  A    between atoms: _31  and  _32
REMARK   14  A    between atoms: _31  and  _33
REMARK   15  A    between atoms: _33  and  _34
REMARK   16  A    between atoms: _33  and  _35
REMARK   17  A    between atoms: _36  and  _38
REMARK                            x       y       z     vdW  Elec       q    Type
REMARK                         _______ _______ _______ _____ _____    ______ ____
ROOT
ATOM      1  C   UNL     1       8.516   2.848  34.160  0.00  0.00    +0.163 C 
ENDROOT
BRANCH   1   2
ATOM      2  O   UNL     1       8.263   4.021  33.369  0.00  0.00    -0.388 OA
ATOM      3  H   UNL     1       7.498   3.871  32.809  0.00  0.00    +0.210 HD
ENDBRANCH   1   2
BRANCH   1   4
ATOM      4  C   UNL     1       8.204   1.595  33.350  0.00  0.00    +0.141 C 
BRANCH   4   7
ATOM      5  C   UNL     1       5.846   1.775  32.634  0.00  0.00    +0.401 C 
ATOM      6  O   UNL     1       6.074   2.634  31.779  0.00  0.00    -0.226 OA
ATOM      7  N   UNL     1       6.782   1.238  33.418  0.00  0.00    -0.279 N 
ATOM      8  H   UNL     1       6.496   0.547  34.097  0.00  0.00    +0.152 HD
BRANCH   5   9
ATOM      9  O   UNL     1       4.505   1.315  32.817  0.00  0.00    -0.444 OA
BRANCH   9  10
ATOM     10  C   UNL     1       4.461  -0.105  32.658  0.00  0.00    +0.292 C 
BRANCH  10  12
ATOM     11  N   UNL     1       3.462  -0.142  30.394  0.00  0.00    -0.131 NA
ATOM     12  C   UNL     1       4.493  -0.464  31.228  0.00  0.00    +0.121 A 
ATOM     13  C   UNL     1       5.468  -1.112  30.507  0.00  0.00    +0.143 A 
ATOM     14  N   UNL     1       4.999  -1.137  29.213  0.00  0.00    -0.220 N 
ATOM     15  N   UNL     1       3.771  -0.561  29.174  0.00  0.00    -0.060 NA
BRANCH  14  16
ATOM     16  C   UNL     1       5.646  -1.622  28.047  0.00  0.00    +0.067 A 
ATOM     17  C   UNL     1       6.962  -2.093  28.101  0.00  0.00    +0.028 A 
ATOM     18  C   UNL     1       7.611  -2.503  26.932  0.00  0.00    +0.005 A 
ATOM     19  C   UNL     1       6.955  -2.447  25.698  0.00  0.00    -0.050 A 
ATOM     20  C   UNL     1       5.626  -2.010  25.651  0.00  0.00    +0.005 A 
ATOM     21  C   UNL     1       7.662  -2.842  24.435  0.00  0.00    +0.044 C 
ATOM     22  C   UNL     1       4.972  -1.600  26.816  0.00  0.00    +0.028 A 
ENDBRANCH  14  16
ENDBRANCH  10  12
ENDBRANCH   9  10
ENDBRANCH   5   9
ENDBRANCH   4   7
ENDBRANCH   1   4
BRANCH   1  23
ATOM     23  C   UNL     1       7.665   2.856  35.442  0.00  0.00    +0.175 C 
BRANCH  23  24
ATOM     24  C   UNL     1       6.687   4.039  35.479  0.00  0.00    +0.176 C 
ATOM     25  O   UNL     1       7.407   5.200  35.976  0.00  0.00    -0.332 OA
ATOM     26  C   UNL     1       6.655   6.459  35.981  0.00  0.00    +0.277 C 
ATOM     27  C   UNL     1       5.328   6.293  36.761  0.00  0.00    +0.110 C 
ATOM     28  C   UNL     1       4.541   5.052  36.289  0.00  0.00    +0.143 C 
ATOM     29  C   UNL     1       5.419   3.801  36.321  0.00  0.00    +0.133 C 
BRANCH  29  30
ATOM     30  N   UNL     1       4.685   2.643  35.787  0.00  0.00    -0.308 N 
ATOM     31  H   UNL     1       4.372   2.684  34.827  0.00  0.00    +0.149 HD
ATOM     32  C   UNL     1       4.407   1.540  36.487  0.00  0.00    +0.210 C 
ATOM     33  C   UNL     1       4.876   1.518  37.954  0.00  0.00    +0.109 C 
ATOM     34  O   UNL     1       3.803   0.579  36.010  0.00  0.00    -0.276 OA
ENDBRANCH  29  30
BRANCH  26  35
ATOM     35  C   UNL     1       6.353   6.921  34.540  0.00  0.00    +0.414 C 
ATOM     36  O   UNL     1       7.259   7.005  33.713  0.00  0.00    -0.240 OA
ATOM     37  O   UNL     1       5.203   7.209  34.206  0.00  0.00    -0.240 OA
ENDBRANCH  26  35
BRANCH  28  38
ATOM     38  O   UNL     1       3.406   4.852  37.132  0.00  0.00    -0.390 OA
ATOM     39  H   UNL     1       2.637   5.273  36.740  0.00  0.00    +0.210 HD
ENDBRANCH  28  38
BRANCH  26  40
ATOM     40  O   UNL     1       7.460   7.460  36.656  0.00  0.00    -0.343 OA
ATOM     41  C   UNL     1       8.732   6.983  37.162  0.00  0.00    +0.198 C 
ENDBRANCH  26  40
ENDBRANCH  23  24
BRANCH  23  42
ATOM     42  O   UNL     1       8.518   2.881  36.604  0.00  0.00    -0.387 OA
ATOM     43  H   UNL     1       8.860   1.999  36.770  0.00  0.00    +0.210 HD
ENDBRANCH  23  42
ENDBRANCH   1  23
TORSDOF 14
