REMARK VINA RESULT:    -6.466      2.334      3.363
REMARK INTER + INTRA:         -13.903
REMARK INTER:                 -11.688
REMARK INTRA:                  -2.215
REMARK UNBOUND:                -1.955
REMARK  Name = lig_assembled_78.pdb
REMARK  18 active torsions:
REMARK  status: ('A' for Active; 'I' for Inactive)
REMARK    1  A    between atoms: _2  and  _9
REMARK    2  A    between atoms: _4  and  _21
REMARK    3  A    between atoms: _6  and  _7
REMARK    4  A    between atoms: _6  and  _21
REMARK    5  A    between atoms: _9  and  _41
REMARK    6  A    between atoms: _10  and  _41
REMARK    7  A    between atoms: _17  and  _37
REMARK    8  A    between atoms: _19  and  _25
REMARK    9  A    between atoms: _20  and  _24
REMARK   10  A    between atoms: _24  and  _25
REMARK   11  A    between atoms: _27  and  _28
REMARK   12  A    between atoms: _29  and  _30
REMARK   13  A    between atoms: _31  and  _33
REMARK   14  A    between atoms: _33  and  _34
REMARK   15  A    between atoms: _33  and  _35
REMARK   16  A    between atoms: _35  and  _36
REMARK   17  A    between atoms: _35  and  _37
REMARK   18  A    between atoms: _38  and  _40
REMARK                            x       y       z     vdW  Elec       q    Type
REMARK                         _______ _______ _______ _____ _____    ______ ____
ROOT
ATOM      1  C   UNL     1       2.715   2.681  35.596  0.00  0.00    +0.163 C 
ENDROOT
BRANCH   1   2
ATOM      2  O   UNL     1       2.833   1.300  35.216  0.00  0.00    -0.388 OA
ATOM      3  H   UNL     1       3.120   1.243  34.302  0.00  0.00    +0.210 HD
ENDBRANCH   1   2
BRANCH   1   4
ATOM      4  C   UNL     1       4.100   3.346  35.690  0.00  0.00    +0.175 C 
BRANCH   4   5
ATOM      5  C   UNL     1       4.987   3.004  34.484  0.00  0.00    +0.176 C 
ATOM      6  O   UNL     1       5.594   1.706  34.729  0.00  0.00    -0.332 OA
ATOM      7  C   UNL     1       6.399   1.164  33.630  0.00  0.00    +0.277 C 
ATOM      8  C   UNL     1       7.488   2.179  33.205  0.00  0.00    +0.110 C 
ATOM      9  C   UNL     1       6.895   3.583  32.964  0.00  0.00    +0.143 C 
ATOM     10  C   UNL     1       6.076   4.047  34.169  0.00  0.00    +0.133 C 
BRANCH  10  11
ATOM     11  N   UNL     1       5.445   5.348  33.893  0.00  0.00    -0.308 N 
ATOM     12  H   UNL     1       4.715   5.379  33.195  0.00  0.00    +0.149 HD
ATOM     13  C   UNL     1       5.774   6.489  34.504  0.00  0.00    +0.210 C 
ATOM     14  C   UNL     1       6.908   6.412  35.544  0.00  0.00    +0.109 C 
ATOM     15  O   UNL     1       5.218   7.561  34.263  0.00  0.00    -0.276 OA
ENDBRANCH  10  11
BRANCH   7  16
ATOM     16  C   UNL     1       5.509   0.826  32.416  0.00  0.00    +0.414 C 
ATOM     17  O   UNL     1       6.010   0.377  31.385  0.00  0.00    -0.240 OA
ATOM     18  O   UNL     1       4.291   1.001  32.467  0.00  0.00    -0.240 OA
ENDBRANCH   7  16
BRANCH   7  19
ATOM     19  O   UNL     1       7.055  -0.040  34.104  0.00  0.00    -0.343 OA
ATOM     20  C   UNL     1       8.375   0.165  34.669  0.00  0.00    +0.198 C 
ENDBRANCH   7  19
BRANCH   9  21
ATOM     21  O   UNL     1       7.949   4.517  32.725  0.00  0.00    -0.390 OA
ATOM     22  H   UNL     1       8.325   4.798  33.562  0.00  0.00    +0.210 HD
ENDBRANCH   9  21
ENDBRANCH   4   5
BRANCH   4  23
ATOM     23  O   UNL     1       4.755   2.958  36.914  0.00  0.00    -0.387 OA
ATOM     24  H   UNL     1       5.481   2.364  36.715  0.00  0.00    +0.210 HD
ENDBRANCH   4  23
ENDBRANCH   1   4
BRANCH   1  25
ATOM     25  C   UNL     1       1.858   3.430  34.581  0.00  0.00    +0.141 C 
BRANCH  25  28
ATOM     26  C   UNL     1       1.226   3.170  32.207  0.00  0.00    +0.401 C 
ATOM     27  O   UNL     1       0.963   4.364  32.048  0.00  0.00    -0.226 OA
ATOM     28  N   UNL     1       1.645   2.645  33.359  0.00  0.00    -0.279 N 
ATOM     29  H   UNL     1       1.826   1.652  33.393  0.00  0.00    +0.152 HD
BRANCH  26  30
ATOM     30  O   UNL     1       1.076   2.273  31.103  0.00  0.00    -0.444 OA
BRANCH  30  31
ATOM     31  C   UNL     1       0.176   2.839  30.146  0.00  0.00    +0.292 C 
BRANCH  31  33
ATOM     32  N   UNL     1       2.019   3.731  28.749  0.00  0.00    -0.131 NA
ATOM     33  C   UNL     1       0.854   3.018  28.849  0.00  0.00    +0.120 A 
ATOM     34  C   UNL     1       0.502   2.556  27.600  0.00  0.00    +0.139 A 
ATOM     35  N   UNL     1       1.523   2.970  26.797  0.00  0.00    -0.230 N 
ATOM     36  N   UNL     1       2.409   3.715  27.482  0.00  0.00    -0.064 NA
BRANCH  35  37
ATOM     37  C   UNL     1       1.691   2.775  25.378  0.00  0.00    +0.316 C 
BRANCH  37  38
ATOM     38  S   UNL     1       0.791   3.943  24.391  0.00  0.00    +0.017 S 
ATOM     39  O   UNL     1      -0.629   3.668  24.471  0.00  0.00    -0.168 OA
ATOM     40  O   UNL     1       1.311   5.268  24.681  0.00  0.00    -0.168 OA
BRANCH  38  41
ATOM     41  C   UNL     1       1.266   3.555  22.719  0.00  0.00    +0.090 A 
ATOM     42  C   UNL     1       1.665   2.250  22.408  0.00  0.00    +0.027 A 
ATOM     43  C   UNL     1       2.014   1.936  21.095  0.00  0.00    +0.002 A 
ATOM     44  C   UNL     1       1.945   2.912  20.100  0.00  0.00    +0.000 A 
ATOM     45  C   UNL     1       1.527   4.207  20.413  0.00  0.00    +0.002 A 
ATOM     46  C   UNL     1       1.185   4.534  21.725  0.00  0.00    +0.027 A 
ENDBRANCH  38  41
ENDBRANCH  37  38
ENDBRANCH  35  37
ENDBRANCH  31  33
ENDBRANCH  30  31
ENDBRANCH  26  30
ENDBRANCH  25  28
ENDBRANCH   1  25
TORSDOF 16
