REMARK VINA RESULT:    -5.873     21.867     25.761
REMARK INTER + INTRA:         -13.866
REMARK INTER:                 -11.421
REMARK INTRA:                  -2.446
REMARK UNBOUND:                -1.813
REMARK  Name = lig_assembled_33.pdb
REMARK  22 active torsions:
REMARK  status: ('A' for Active; 'I' for Inactive)
REMARK    1  A    between atoms: _2  and  _9
REMARK    2  A    between atoms: _4  and  _20
REMARK    3  A    between atoms: _5  and  _13
REMARK    4  A    between atoms: _5  and  _14
REMARK    5  A    between atoms: _6  and  _7
REMARK    6  A    between atoms: _6  and  _20
REMARK    7  A    between atoms: _9  and  _10
REMARK    8  A    between atoms: _10  and  _11
REMARK    9  A    between atoms: _11  and  _12
REMARK   10  A    between atoms: _12  and  _13
REMARK   11  A    between atoms: _16  and  _36
REMARK   12  A    between atoms: _18  and  _24
REMARK   13  A    between atoms: _19  and  _23
REMARK   14  A    between atoms: _23  and  _24
REMARK   15  A    between atoms: _26  and  _27
REMARK   16  A    between atoms: _28  and  _29
REMARK   17  A    between atoms: _30  and  _32
REMARK   18  A    between atoms: _32  and  _33
REMARK   19  A    between atoms: _32  and  _34
REMARK   20  A    between atoms: _34  and  _35
REMARK   21  A    between atoms: _34  and  _36
REMARK   22  A    between atoms: _37  and  _39
REMARK                            x       y       z     vdW  Elec       q    Type
REMARK                         _______ _______ _______ _____ _____    ______ ____
ROOT
ATOM      1  C   UNL     1      15.362  23.371  19.143  0.00  0.00    +0.163 C 
ENDROOT
BRANCH   1   2
ATOM      2  O   UNL     1      16.115  23.990  18.088  0.00  0.00    -0.388 OA
ATOM      3  H   UNL     1      16.270  23.351  17.387  0.00  0.00    +0.210 HD
ENDBRANCH   1   2
BRANCH   1   4
ATOM      4  C   UNL     1      14.261  22.460  18.573  0.00  0.00    +0.175 C 
BRANCH   4   5
ATOM      5  C   UNL     1      13.378  23.191  17.550  0.00  0.00    +0.176 C 
ATOM      6  O   UNL     1      14.157  23.370  16.335  0.00  0.00    -0.332 OA
ATOM      7  C   UNL     1      13.437  23.961  15.203  0.00  0.00    +0.277 C 
ATOM      8  C   UNL     1      12.791  25.307  15.615  0.00  0.00    +0.110 C 
ATOM      9  C   UNL     1      11.979  25.173  16.920  0.00  0.00    +0.143 C 
ATOM     10  C   UNL     1      12.823  24.544  18.030  0.00  0.00    +0.133 C 
BRANCH  10  11
ATOM     11  N   UNL     1      12.013  24.342  19.241  0.00  0.00    -0.308 N 
ATOM     12  H   UNL     1      11.270  23.658  19.203  0.00  0.00    +0.149 HD
ATOM     13  C   UNL     1      12.195  25.003  20.387  0.00  0.00    +0.210 C 
ATOM     14  C   UNL     1      13.318  26.057  20.405  0.00  0.00    +0.109 C 
ATOM     15  O   UNL     1      11.510  24.802  21.391  0.00  0.00    -0.276 OA
ENDBRANCH  10  11
BRANCH   7  16
ATOM     16  C   UNL     1      12.344  23.001  14.689  0.00  0.00    +0.414 C 
ATOM     17  O   UNL     1      11.245  23.437  14.350  0.00  0.00    -0.240 OA
ATOM     18  O   UNL     1      12.562  21.791  14.612  0.00  0.00    -0.240 OA
ENDBRANCH   7  16
BRANCH   9  19
ATOM     19  O   UNL     1      11.530  26.461  17.342  0.00  0.00    -0.390 OA
ATOM     20  H   UNL     1      11.721  26.577  18.276  0.00  0.00    +0.210 HD
ENDBRANCH   9  19
BRANCH   7  21
ATOM     21  O   UNL     1      14.397  24.219  14.146  0.00  0.00    -0.343 OA
ATOM     22  C   UNL     1      15.782  23.994  14.509  0.00  0.00    +0.198 C 
ENDBRANCH   7  21
ENDBRANCH   4   5
BRANCH   4  23
ATOM     23  O   UNL     1      13.451  21.932  19.641  0.00  0.00    -0.387 OA
ATOM     24  H   UNL     1      13.465  20.972  19.610  0.00  0.00    +0.210 HD
ENDBRANCH   4  23
ENDBRANCH   1   4
BRANCH   1  25
ATOM     25  C   UNL     1      16.289  22.553  20.036  0.00  0.00    +0.141 C 
BRANCH  25  28
ATOM     26  C   UNL     1      16.356  21.846  22.402  0.00  0.00    +0.401 C 
ATOM     27  O   UNL     1      17.579  21.685  22.418  0.00  0.00    -0.226 OA
ATOM     28  N   UNL     1      15.670  22.243  21.331  0.00  0.00    -0.279 N 
ATOM     29  H   UNL     1      14.667  22.337  21.414  0.00  0.00    +0.152 HD
BRANCH  26  30
ATOM     30  O   UNL     1      15.607  21.592  23.594  0.00  0.00    -0.444 OA
BRANCH  30  31
ATOM     31  C   UNL     1      15.986  22.529  24.605  0.00  0.00    +0.292 C 
BRANCH  31  33
ATOM     32  N   UNL     1      14.158  24.099  24.048  0.00  0.00    -0.131 NA
ATOM     33  C   UNL     1      14.835  23.368  24.987  0.00  0.00    +0.120 A 
ATOM     34  C   UNL     1      14.261  23.580  26.223  0.00  0.00    +0.137 A 
ATOM     35  N   UNL     1      13.238  24.440  25.963  0.00  0.00    -0.251 N 
ATOM     36  N   UNL     1      13.189  24.764  24.660  0.00  0.00    -0.065 NA
BRANCH  35  37
ATOM     37  C   UNL     1      12.282  25.004  26.893  0.00  0.00    +0.145 C 
BRANCH  37  38
ATOM     38  C   UNL     1      11.197  24.001  27.281  0.00  0.00    +0.023 C 
BRANCH  38  39
ATOM     39  C   UNL     1       9.844  24.319  26.640  0.00  0.00    +0.002 C 
BRANCH  39  40
ATOM     40  C   UNL     1       9.472  23.222  25.639  0.00  0.00    +0.011 C 
BRANCH  40  41
ATOM     41  C   UNL     1       9.210  23.764  24.236  0.00  0.00    +0.120 C 
BRANCH  41  42
ATOM     42  C   UNL     1       7.856  23.324  23.723  0.00  0.00    +0.305 C 
ATOM     43  O   UNL     1       6.781  23.756  24.106  0.00  0.00    -0.251 OA
BRANCH  42  44
ATOM     44  O   UNL     1       7.953  22.378  22.760  0.00  0.00    -0.481 OA
ATOM     45  H   UNL     1       7.138  22.259  22.240  0.00  0.00    +0.295 HD
ENDBRANCH  42  44
ENDBRANCH  41  42
ENDBRANCH  40  41
ENDBRANCH  39  40
ENDBRANCH  38  39
ENDBRANCH  37  38
ENDBRANCH  35  37
ENDBRANCH  31  33
ENDBRANCH  30  31
ENDBRANCH  26  30
ENDBRANCH  25  28
ENDBRANCH   1  25
TORSDOF 20
