REMARK VINA RESULT:    -5.508      5.248      7.211
REMARK INTER + INTRA:         -13.626
REMARK INTER:                 -11.750
REMARK INTRA:                  -1.876
REMARK UNBOUND:                -3.450
REMARK  Name = lig_assembled_66.pdb
REMARK  18 active torsions:
REMARK  status: ('A' for Active; 'I' for Inactive)
REMARK    1  A    between atoms: _2  and  _10
REMARK    2  A    between atoms: _5  and  _21
REMARK    3  A    between atoms: _7  and  _8
REMARK    4  A    between atoms: _7  and  _21
REMARK    5  A    between atoms: _10  and  _11
REMARK    6  A    between atoms: _15  and  _16
REMARK    7  A    between atoms: _17  and  _37
REMARK    8  A    between atoms: _19  and  _25
REMARK    9  A    between atoms: _20  and  _24
REMARK   10  A    between atoms: _24  and  _25
REMARK   11  A    between atoms: _27  and  _28
REMARK   12  A    between atoms: _29  and  _30
REMARK   13  A    between atoms: _31  and  _33
REMARK   14  A    between atoms: _33  and  _34
REMARK   15  A    between atoms: _33  and  _35
REMARK   16  A    between atoms: _35  and  _36
REMARK   17  A    between atoms: _35  and  _37
REMARK   18  A    between atoms: _38  and  _40
REMARK                            x       y       z     vdW  Elec       q    Type
REMARK                         _______ _______ _______ _____ _____    ______ ____
ROOT
ATOM      1  C   UNL     1       7.567   2.513  34.494  0.00  0.00    +0.163 C 
ENDROOT
BRANCH   1   2
ATOM      2  O   UNL     1       8.211   2.433  35.776  0.00  0.00    -0.388 OA
ATOM      3  H   UNL     1       8.846   1.713  35.771  0.00  0.00    +0.210 HD
ENDBRANCH   1   2
BRANCH   1   4
ATOM      4  C   UNL     1       7.854   3.864  33.817  0.00  0.00    +0.175 C 
BRANCH   4   5
ATOM      5  C   UNL     1       7.210   5.037  34.570  0.00  0.00    +0.176 C 
ATOM      6  O   UNL     1       7.927   5.213  35.823  0.00  0.00    -0.332 OA
ATOM      7  C   UNL     1       7.516   6.363  36.633  0.00  0.00    +0.277 C 
ATOM      8  C   UNL     1       5.992   6.316  36.905  0.00  0.00    +0.110 C 
ATOM      9  C   UNL     1       5.188   6.099  35.606  0.00  0.00    +0.143 C 
ATOM     10  C   UNL     1       5.702   4.879  34.840  0.00  0.00    +0.133 C 
BRANCH  10  11
ATOM     11  N   UNL     1       4.986   4.733  33.563  0.00  0.00    -0.308 N 
ATOM     12  H   UNL     1       5.165   5.418  32.842  0.00  0.00    +0.149 HD
ATOM     13  C   UNL     1       4.117   3.756  33.294  0.00  0.00    +0.210 C 
ATOM     14  C   UNL     1       3.847   2.743  34.423  0.00  0.00    +0.109 C 
ATOM     15  O   UNL     1       3.543   3.650  32.210  0.00  0.00    -0.276 OA
ENDBRANCH  10  11
BRANCH   7  16
ATOM     16  C   UNL     1       7.873   7.686  35.925  0.00  0.00    +0.414 C 
ATOM     17  O   UNL     1       7.834   7.763  34.698  0.00  0.00    -0.240 OA
ATOM     18  O   UNL     1       8.200   8.676  36.581  0.00  0.00    -0.240 OA
ENDBRANCH   7  16
BRANCH   7  19
ATOM     19  O   UNL     1       8.210   6.287  37.905  0.00  0.00    -0.343 OA
ATOM     20  C   UNL     1       7.349   6.248  39.071  0.00  0.00    +0.198 C 
ENDBRANCH   7  19
BRANCH   9  21
ATOM     21  O   UNL     1       3.808   5.911  35.919  0.00  0.00    -0.390 OA
ATOM     22  H   UNL     1       3.527   6.582  36.545  0.00  0.00    +0.210 HD
ENDBRANCH   9  21
ENDBRANCH   4   5
BRANCH   4  23
ATOM     23  O   UNL     1       7.398   3.841  32.449  0.00  0.00    -0.387 OA
ATOM     24  H   UNL     1       7.093   2.958  32.228  0.00  0.00    +0.210 HD
ENDBRANCH   4  23
ENDBRANCH   1   4
BRANCH   1  25
ATOM     25  C   UNL     1       8.050   1.380  33.595  0.00  0.00    +0.141 C 
BRANCH  25  28
ATOM     26  C   UNL     1       6.057   0.352  32.556  0.00  0.00    +0.401 C 
ATOM     27  O   UNL     1       5.885   1.272  31.754  0.00  0.00    -0.226 OA
ATOM     28  N   UNL     1       7.041   0.323  33.457  0.00  0.00    -0.279 N 
ATOM     29  H   UNL     1       7.094  -0.472  34.079  0.00  0.00    +0.152 HD
BRANCH  26  30
ATOM     30  O   UNL     1       5.158  -0.760  32.541  0.00  0.00    -0.444 OA
BRANCH  30  31
ATOM     31  C   UNL     1       3.916  -0.362  31.956  0.00  0.00    +0.292 C 
BRANCH  31  33
ATOM     32  N   UNL     1       3.086  -2.196  30.511  0.00  0.00    -0.131 NA
ATOM     33  C   UNL     1       3.742  -1.000  30.636  0.00  0.00    +0.120 A 
ATOM     34  C   UNL     1       4.116  -0.560  29.386  0.00  0.00    +0.137 A 
ATOM     35  N   UNL     1       3.609  -1.502  28.539  0.00  0.00    -0.247 N 
ATOM     36  N   UNL     1       3.008  -2.495  29.221  0.00  0.00    -0.065 NA
BRANCH  35  37
ATOM     37  C   UNL     1       3.438  -1.394  27.102  0.00  0.00    +0.180 C 
BRANCH  37  38
ATOM     38  C   UNL     1       4.681  -1.744  26.324  0.00  0.00    -0.025 A 
ATOM     39  C   UNL     1       4.787  -1.408  24.966  0.00  0.00    +0.005 A 
ATOM     40  C   UNL     1       5.967  -1.654  24.260  0.00  0.00    +0.002 A 
ATOM     41  C   UNL     1       7.050  -2.257  24.898  0.00  0.00    +0.019 A 
ATOM     42  C   UNL     1       6.949  -2.631  26.241  0.00  0.00    +0.052 A 
ATOM     43  C   UNL     1       5.769  -2.374  26.951  0.00  0.00    +0.024 A 
BRANCH  42  44
ATOM     44  C   UNL     1       8.056  -3.267  26.895  0.00  0.00    +0.099 C 
ATOM     45  N   UNL     1       8.949  -3.778  27.432  0.00  0.00    -0.191 NA
ENDBRANCH  42  44
ENDBRANCH  37  38
ENDBRANCH  35  37
ENDBRANCH  31  33
ENDBRANCH  30  31
ENDBRANCH  26  30
ENDBRANCH  25  28
ENDBRANCH   1  25
TORSDOF 16
