REMARK VINA RESULT:    -7.191      1.808      3.200
REMARK INTER + INTRA:         -13.648
REMARK INTER:                 -12.365
REMARK INTRA:                  -1.283
REMARK UNBOUND:                -1.202
REMARK  Name = lig_assembled_40.pdb
REMARK  17 active torsions:
REMARK  status: ('A' for Active; 'I' for Inactive)
REMARK    1  A    between atoms: _2  and  _9
REMARK    2  A    between atoms: _4  and  _19
REMARK    3  A    between atoms: _6  and  _7
REMARK    4  A    between atoms: _6  and  _19
REMARK    5  A    between atoms: _12  and  _13
REMARK    6  A    between atoms: _15  and  _35
REMARK    7  A    between atoms: _17  and  _23
REMARK    8  A    between atoms: _18  and  _22
REMARK    9  A    between atoms: _22  and  _23
REMARK   10  A    between atoms: _25  and  _26
REMARK   11  A    between atoms: _27  and  _28
REMARK   12  A    between atoms: _29  and  _31
REMARK   13  A    between atoms: _31  and  _32
REMARK   14  A    between atoms: _31  and  _33
REMARK   15  A    between atoms: _33  and  _34
REMARK   16  A    between atoms: _33  and  _35
REMARK   17  A    between atoms: _36  and  _38
REMARK                            x       y       z     vdW  Elec       q    Type
REMARK                         _______ _______ _______ _____ _____    ______ ____
ROOT
ATOM      1  C   UNL     1       3.269   3.371  33.076  0.00  0.00    +0.163 C 
ENDROOT
BRANCH   1   2
ATOM      2  O   UNL     1       3.698   4.644  32.564  0.00  0.00    -0.388 OA
ATOM      3  H   UNL     1       2.978   5.052  32.076  0.00  0.00    +0.210 HD
ENDBRANCH   1   2
BRANCH   1   4
ATOM      4  C   UNL     1       1.785   3.168  32.792  0.00  0.00    +0.141 C 
BRANCH   4   7
ATOM      5  C   UNL     1       0.216   4.040  31.093  0.00  0.00    +0.401 C 
ATOM      6  O   UNL     1      -0.728   4.141  31.880  0.00  0.00    -0.226 OA
ATOM      7  N   UNL     1       1.425   3.589  31.432  0.00  0.00    -0.279 N 
ATOM      8  H   UNL     1       2.132   3.533  30.713  0.00  0.00    +0.152 HD
BRANCH   5   9
ATOM      9  O   UNL     1       0.026   4.420  29.727  0.00  0.00    -0.444 OA
BRANCH   9  10
ATOM     10  C   UNL     1       0.027   3.252  28.902  0.00  0.00    +0.292 C 
BRANCH  10  12
ATOM     11  N   UNL     1       2.144   3.700  27.701  0.00  0.00    -0.131 NA
ATOM     12  C   UNL     1       0.795   3.496  27.667  0.00  0.00    +0.121 A 
ATOM     13  C   UNL     1       0.366   3.548  26.362  0.00  0.00    +0.143 A 
ATOM     14  N   UNL     1       1.506   3.757  25.619  0.00  0.00    -0.220 N 
ATOM     15  N   UNL     1       2.568   3.867  26.455  0.00  0.00    -0.060 NA
BRANCH  14  16
ATOM     16  C   UNL     1       1.643   3.815  24.208  0.00  0.00    +0.067 A 
ATOM     17  C   UNL     1       1.649   5.043  23.537  0.00  0.00    +0.028 A 
ATOM     18  C   UNL     1       1.715   5.081  22.141  0.00  0.00    +0.005 A 
ATOM     19  C   UNL     1       1.775   3.898  21.399  0.00  0.00    -0.050 A 
ATOM     20  C   UNL     1       1.805   2.671  22.073  0.00  0.00    +0.005 A 
ATOM     21  C   UNL     1       1.798   3.933  19.899  0.00  0.00    +0.044 C 
ATOM     22  C   UNL     1       1.740   2.626  23.468  0.00  0.00    +0.028 A 
ENDBRANCH  14  16
ENDBRANCH  10  12
ENDBRANCH   9  10
ENDBRANCH   5   9
ENDBRANCH   4   7
ENDBRANCH   1   4
BRANCH   1  23
ATOM     23  C   UNL     1       3.521   3.275  34.590  0.00  0.00    +0.175 C 
BRANCH  23  24
ATOM     24  C   UNL     1       4.275   4.499  35.130  0.00  0.00    +0.176 C 
ATOM     25  O   UNL     1       5.691   4.305  34.861  0.00  0.00    -0.332 OA
ATOM     26  C   UNL     1       6.563   5.430  35.215  0.00  0.00    +0.277 C 
ATOM     27  C   UNL     1       6.361   5.825  36.698  0.00  0.00    +0.110 C 
ATOM     28  C   UNL     1       4.868   6.011  37.040  0.00  0.00    +0.143 C 
ATOM     29  C   UNL     1       4.054   4.784  36.627  0.00  0.00    +0.133 C 
BRANCH  29  30
ATOM     30  N   UNL     1       2.621   5.008  36.878  0.00  0.00    -0.308 N 
ATOM     31  H   UNL     1       2.171   5.771  36.391  0.00  0.00    +0.149 HD
ATOM     32  C   UNL     1       1.877   4.270  37.706  0.00  0.00    +0.210 C 
ATOM     33  C   UNL     1       2.599   3.132  38.452  0.00  0.00    +0.109 C 
ATOM     34  O   UNL     1       0.676   4.472  37.885  0.00  0.00    -0.276 OA
ENDBRANCH  29  30
BRANCH  26  35
ATOM     35  C   UNL     1       6.277   6.648  34.313  0.00  0.00    +0.414 C 
ATOM     36  O   UNL     1       7.199   7.371  33.936  0.00  0.00    -0.240 OA
ATOM     37  O   UNL     1       5.126   6.909  33.963  0.00  0.00    -0.240 OA
ENDBRANCH  26  35
BRANCH  28  38
ATOM     38  O   UNL     1       4.717   6.224  38.444  0.00  0.00    -0.390 OA
ATOM     39  H   UNL     1       4.184   7.008  38.594  0.00  0.00    +0.210 HD
ENDBRANCH  28  38
BRANCH  26  40
ATOM     40  O   UNL     1       7.939   5.004  35.039  0.00  0.00    -0.343 OA
ATOM     41  C   UNL     1       8.104   3.729  34.367  0.00  0.00    +0.198 C 
ENDBRANCH  26  40
ENDBRANCH  23  24
BRANCH  23  42
ATOM     42  O   UNL     1       4.247   2.068  34.897  0.00  0.00    -0.387 OA
ATOM     43  H   UNL     1       4.769   2.202  35.692  0.00  0.00    +0.210 HD
ENDBRANCH  23  42
ENDBRANCH   1  23
TORSDOF 14
