REMARK VINA RESULT:    -6.173      3.127      4.480
REMARK INTER + INTRA:         -14.770
REMARK INTER:                 -12.102
REMARK INTRA:                  -2.668
REMARK UNBOUND:                -2.643
REMARK  Name = lig_assembled_37.pdb
REMARK  21 active torsions:
REMARK  status: ('A' for Active; 'I' for Inactive)
REMARK    1  A    between atoms: _2  and  _9
REMARK    2  A    between atoms: _4  and  _24
REMARK    3  A    between atoms: _6  and  _7
REMARK    4  A    between atoms: _6  and  _24
REMARK    5  A    between atoms: _9  and  _10
REMARK    6  A    between atoms: _9  and  _11
REMARK    7  A    between atoms: _11  and  _18
REMARK    8  A    between atoms: _12  and  _13
REMARK    9  A    between atoms: _12  and  _18
REMARK   10  A    between atoms: _20  and  _40
REMARK   11  A    between atoms: _22  and  _28
REMARK   12  A    between atoms: _23  and  _27
REMARK   13  A    between atoms: _27  and  _28
REMARK   14  A    between atoms: _30  and  _31
REMARK   15  A    between atoms: _32  and  _33
REMARK   16  A    between atoms: _34  and  _36
REMARK   17  A    between atoms: _36  and  _37
REMARK   18  A    between atoms: _36  and  _38
REMARK   19  A    between atoms: _38  and  _39
REMARK   20  A    between atoms: _38  and  _40
REMARK   21  A    between atoms: _41  and  _43
REMARK                            x       y       z     vdW  Elec       q    Type
REMARK                         _______ _______ _______ _____ _____    ______ ____
ROOT
ATOM      1  C   UNL     1       6.436   2.903  32.333  0.00  0.00    +0.141 C 
ENDROOT
BRANCH   1   4
ATOM      2  C   UNL     1       4.278   1.832  31.783  0.00  0.00    +0.401 C 
ATOM      3  O   UNL     1       4.791   0.775  31.406  0.00  0.00    -0.226 OA
ATOM      4  N   UNL     1       4.972   2.881  32.227  0.00  0.00    -0.279 N 
ATOM      5  H   UNL     1       4.461   3.707  32.505  0.00  0.00    +0.152 HD
BRANCH   2   6
ATOM      6  O   UNL     1       2.855   1.964  31.748  0.00  0.00    -0.444 OA
BRANCH   6   7
ATOM      7  C   UNL     1       2.508   3.309  31.410  0.00  0.00    +0.292 C 
BRANCH   7   9
ATOM      8  N   UNL     1       0.718   4.108  29.892  0.00  0.00    -0.131 NA
ATOM      9  C   UNL     1       1.845   3.355  30.093  0.00  0.00    +0.120 A 
ATOM     10  C   UNL     1       2.181   2.725  28.916  0.00  0.00    +0.138 A 
ATOM     11  N   UNL     1       1.207   3.110  28.043  0.00  0.00    -0.238 N 
ATOM     12  N   UNL     1       0.340   3.956  28.630  0.00  0.00    -0.065 NA
BRANCH  11  13
ATOM     13  C   UNL     1       1.052   2.789  26.638  0.00  0.00    +0.214 C 
ATOM     14  C   UNL     1       2.198   3.362  25.804  0.00  0.00    +0.045 C 
BRANCH  13  15
ATOM     15  C   UNL     1       0.948   1.295  26.427  0.00  0.00    +0.332 C 
ATOM     16  O   UNL     1      -0.102   0.664  26.491  0.00  0.00    -0.248 OA
BRANCH  15  17
ATOM     17  O   UNL     1       2.166   0.750  26.162  0.00  0.00    -0.458 OA
BRANCH  17  18
ATOM     18  C   UNL     1       2.474  -0.472  26.851  0.00  0.00    +0.267 C 
BRANCH  18  19
ATOM     19  C   UNL     1       3.781  -1.029  26.348  0.00  0.00    -0.010 A 
ATOM     20  C   UNL     1       4.739  -1.514  27.249  0.00  0.00    +0.007 A 
ATOM     21  C   UNL     1       5.939  -2.057  26.784  0.00  0.00    +0.000 A 
ATOM     22  C   UNL     1       6.193  -2.118  25.415  0.00  0.00    +0.000 A 
ATOM     23  C   UNL     1       5.251  -1.633  24.511  0.00  0.00    +0.000 A 
ATOM     24  C   UNL     1       4.051  -1.088  24.974  0.00  0.00    +0.007 A 
ENDBRANCH  18  19
ENDBRANCH  17  18
ENDBRANCH  15  17
ENDBRANCH  13  15
ENDBRANCH  11  13
ENDBRANCH   7   9
ENDBRANCH   6   7
ENDBRANCH   2   6
ENDBRANCH   1   4
BRANCH   1  25
ATOM     25  C   UNL     1       6.909   3.783  33.486  0.00  0.00    +0.163 C 
BRANCH  25  26
ATOM     26  O   UNL     1       7.569   4.951  32.973  0.00  0.00    -0.388 OA
ATOM     27  H   UNL     1       6.937   5.670  32.899  0.00  0.00    +0.210 HD
ENDBRANCH  25  26
BRANCH  25  28
ATOM     28  C   UNL     1       5.706   4.171  34.363  0.00  0.00    +0.175 C 
BRANCH  28  29
ATOM     29  C   UNL     1       6.051   5.294  35.352  0.00  0.00    +0.176 C 
ATOM     30  O   UNL     1       7.445   5.140  35.736  0.00  0.00    -0.332 OA
ATOM     31  C   UNL     1       7.984   6.194  36.601  0.00  0.00    +0.277 C 
ATOM     32  C   UNL     1       7.108   6.356  37.867  0.00  0.00    +0.110 C 
ATOM     33  C   UNL     1       5.612   6.491  37.511  0.00  0.00    +0.143 C 
ATOM     34  C   UNL     1       5.158   5.345  36.606  0.00  0.00    +0.133 C 
BRANCH  34  35
ATOM     35  N   UNL     1       3.755   5.532  36.203  0.00  0.00    -0.308 N 
ATOM     36  H   UNL     1       3.547   6.275  35.551  0.00  0.00    +0.149 HD
ATOM     37  C   UNL     1       2.740   4.784  36.643  0.00  0.00    +0.210 C 
ATOM     38  C   UNL     1       3.087   3.677  37.656  0.00  0.00    +0.109 C 
ATOM     39  O   UNL     1       1.576   4.954  36.277  0.00  0.00    -0.276 OA
ENDBRANCH  34  35
BRANCH  31  40
ATOM     40  C   UNL     1       8.054   7.538  35.847  0.00  0.00    +0.414 C 
ATOM     41  O   UNL     1       8.281   8.581  36.459  0.00  0.00    -0.240 OA
ATOM     42  O   UNL     1       7.885   7.579  34.627  0.00  0.00    -0.240 OA
ENDBRANCH  31  40
BRANCH  31  43
ATOM     43  O   UNL     1       9.317   5.796  37.015  0.00  0.00    -0.343 OA
ATOM     44  C   UNL     1       9.361   4.713  37.977  0.00  0.00    +0.198 C 
ENDBRANCH  31  43
BRANCH  33  45
ATOM     45  O   UNL     1       4.830   6.485  38.706  0.00  0.00    -0.390 OA
ATOM     46  H   UNL     1       4.865   5.614  39.108  0.00  0.00    +0.210 HD
ENDBRANCH  33  45
ENDBRANCH  28  29
BRANCH  28  47
ATOM     47  O   UNL     1       5.217   3.016  35.075  0.00  0.00    -0.387 OA
ATOM     48  H   UNL     1       4.422   3.250  35.558  0.00  0.00    +0.210 HD
ENDBRANCH  28  47
ENDBRANCH  25  28
ENDBRANCH   1  25
TORSDOF 18
