REMARK VINA RESULT:    -5.793     14.942     18.070
REMARK INTER + INTRA:         -12.090
REMARK INTER:                 -10.098
REMARK INTRA:                  -1.992
REMARK UNBOUND:                -2.065
REMARK  Name = lig_assembled_49.pdb
REMARK  16 active torsions:
REMARK  status: ('A' for Active; 'I' for Inactive)
REMARK    1  A    between atoms: _2  and  _9
REMARK    2  A    between atoms: _4  and  _17
REMARK    3  A    between atoms: _6  and  _7
REMARK    4  A    between atoms: _6  and  _17
REMARK    5  A    between atoms: _13  and  _33
REMARK    6  A    between atoms: _15  and  _21
REMARK    7  A    between atoms: _16  and  _20
REMARK    8  A    between atoms: _20  and  _21
REMARK    9  A    between atoms: _23  and  _24
REMARK   10  A    between atoms: _25  and  _26
REMARK   11  A    between atoms: _27  and  _29
REMARK   12  A    between atoms: _29  and  _30
REMARK   13  A    between atoms: _29  and  _31
REMARK   14  A    between atoms: _31  and  _32
REMARK   15  A    between atoms: _31  and  _33
REMARK   16  A    between atoms: _34  and  _36
REMARK                            x       y       z     vdW  Elec       q    Type
REMARK                         _______ _______ _______ _____ _____    ______ ____
ROOT
ATOM      1  C   UNL     1      16.527  -0.651  25.136  0.00  0.00    +0.175 C 
ENDROOT
BRANCH   1   2
ATOM      2  C   UNL     1      17.608  -0.372  24.081  0.00  0.00    +0.176 C 
ATOM      3  O   UNL     1      17.107   0.661  23.190  0.00  0.00    -0.332 OA
ATOM      4  C   UNL     1      18.052   1.136  22.174  0.00  0.00    +0.277 C 
ATOM      5  C   UNL     1      18.596  -0.053  21.345  0.00  0.00    +0.110 C 
ATOM      6  C   UNL     1      19.112  -1.191  22.250  0.00  0.00    +0.143 C 
ATOM      7  C   UNL     1      18.050  -1.604  23.270  0.00  0.00    +0.133 C 
BRANCH   7   8
ATOM      8  N   UNL     1      18.583  -2.628  24.182  0.00  0.00    -0.308 N 
ATOM      9  H   UNL     1      19.415  -2.403  24.710  0.00  0.00    +0.149 HD
ATOM     10  C   UNL     1      18.040  -3.836  24.359  0.00  0.00    +0.210 C 
ATOM     11  C   UNL     1      16.788  -4.158  23.520  0.00  0.00    +0.109 C 
ATOM     12  O   UNL     1      18.499  -4.668  25.141  0.00  0.00    -0.276 OA
ENDBRANCH   7   8
BRANCH   4  13
ATOM     13  C   UNL     1      19.229   1.887  22.831  0.00  0.00    +0.414 C 
ATOM     14  O   UNL     1      20.355   1.828  22.339  0.00  0.00    -0.240 OA
ATOM     15  O   UNL     1      19.052   2.553  23.852  0.00  0.00    -0.240 OA
ENDBRANCH   4  13
BRANCH   6  16
ATOM     16  O   UNL     1      19.462  -2.322  21.451  0.00  0.00    -0.390 OA
ATOM     17  H   UNL     1      19.853  -2.023  20.627  0.00  0.00    +0.210 HD
ENDBRANCH   6  16
BRANCH   4  18
ATOM     18  O   UNL     1      17.340   2.029  21.281  0.00  0.00    -0.343 OA
ATOM     19  C   UNL     1      17.084   1.495  19.957  0.00  0.00    +0.198 C 
ENDBRANCH   4  18
ENDBRANCH   1   2
BRANCH   1  20
ATOM     20  O   UNL     1      15.306  -1.074  24.496  0.00  0.00    -0.387 OA
ATOM     21  H   UNL     1      15.417  -1.963  24.150  0.00  0.00    +0.210 HD
ENDBRANCH   1  20
BRANCH   1  22
ATOM     22  C   UNL     1      16.261   0.572  26.030  0.00  0.00    +0.163 C 
BRANCH  22  23
ATOM     23  O   UNL     1      15.700   1.654  25.267  0.00  0.00    -0.388 OA
ATOM     24  H   UNL     1      15.482   1.344  24.384  0.00  0.00    +0.210 HD
ENDBRANCH  22  23
BRANCH  22  25
ATOM     25  C   UNL     1      17.564   1.017  26.686  0.00  0.00    +0.141 C 
BRANCH  25  28
ATOM     26  C   UNL     1      17.967   3.282  27.587  0.00  0.00    +0.401 C 
ATOM     27  O   UNL     1      17.970   2.916  28.764  0.00  0.00    -0.226 OA
ATOM     28  N   UNL     1      17.778   2.463  26.552  0.00  0.00    -0.279 N 
ATOM     29  H   UNL     1      17.783   2.860  25.623  0.00  0.00    +0.152 HD
BRANCH  26  30
ATOM     30  O   UNL     1      18.172   4.666  27.290  0.00  0.00    -0.444 OA
BRANCH  30  31
ATOM     31  C   UNL     1      19.134   4.792  26.240  0.00  0.00    +0.292 C 
BRANCH  31  33
ATOM     32  N   UNL     1      20.394   6.575  25.078  0.00  0.00    -0.131 NA
ATOM     33  C   UNL     1      19.538   6.201  26.079  0.00  0.00    +0.120 A 
ATOM     34  C   UNL     1      19.192   7.313  26.814  0.00  0.00    +0.137 A 
ATOM     35  N   UNL     1      19.876   8.329  26.215  0.00  0.00    -0.248 N 
ATOM     36  N   UNL     1      20.594   7.882  25.171  0.00  0.00    -0.065 NA
BRANCH  35  37
ATOM     37  C   UNL     1      19.903   9.721  26.597  0.00  0.00    +0.109 C 
ATOM     38  C   UNL     1      18.613  10.206  27.261  0.00  0.00    +0.027 C 
ATOM     39  C   UNL     1      19.044  11.495  27.940  0.00  0.00    +0.002 C 
ATOM     40  C   UNL     1      20.429  11.181  28.492  0.00  0.00    +0.002 C 
ATOM     41  C   UNL     1      21.011  10.087  27.593  0.00  0.00    +0.027 C 
ENDBRANCH  35  37
ENDBRANCH  31  33
ENDBRANCH  30  31
ENDBRANCH  26  30
ENDBRANCH  25  28
ENDBRANCH  22  25
ENDBRANCH   1  22
TORSDOF 14
