REMARK VINA RESULT:    -6.030     14.821     17.013
REMARK INTER + INTRA:         -12.502
REMARK INTER:                  -9.654
REMARK INTRA:                  -2.848
REMARK UNBOUND:                -2.065
REMARK  Name = lig_assembled_49.pdb
REMARK  16 active torsions:
REMARK  status: ('A' for Active; 'I' for Inactive)
REMARK    1  A    between atoms: _2  and  _9
REMARK    2  A    between atoms: _4  and  _17
REMARK    3  A    between atoms: _6  and  _7
REMARK    4  A    between atoms: _6  and  _17
REMARK    5  A    between atoms: _13  and  _33
REMARK    6  A    between atoms: _15  and  _21
REMARK    7  A    between atoms: _16  and  _20
REMARK    8  A    between atoms: _20  and  _21
REMARK    9  A    between atoms: _23  and  _24
REMARK   10  A    between atoms: _25  and  _26
REMARK   11  A    between atoms: _27  and  _29
REMARK   12  A    between atoms: _29  and  _30
REMARK   13  A    between atoms: _29  and  _31
REMARK   14  A    between atoms: _31  and  _32
REMARK   15  A    between atoms: _31  and  _33
REMARK   16  A    between atoms: _34  and  _36
REMARK                            x       y       z     vdW  Elec       q    Type
REMARK                         _______ _______ _______ _____ _____    ______ ____
ROOT
ATOM      1  C   UNL     1      18.924   4.639  24.418  0.00  0.00    +0.175 C 
ENDROOT
BRANCH   1   2
ATOM      2  C   UNL     1      18.903   5.280  25.813  0.00  0.00    +0.176 C 
ATOM      3  O   UNL     1      20.162   5.983  26.001  0.00  0.00    -0.332 OA
ATOM      4  C   UNL     1      20.281   6.749  27.245  0.00  0.00    +0.277 C 
ATOM      5  C   UNL     1      20.001   5.842  28.468  0.00  0.00    +0.110 C 
ATOM      6  C   UNL     1      18.687   5.050  28.300  0.00  0.00    +0.143 C 
ATOM      7  C   UNL     1      18.669   4.293  26.972  0.00  0.00    +0.133 C 
BRANCH   7   8
ATOM      8  N   UNL     1      17.378   3.612  26.784  0.00  0.00    -0.308 N 
ATOM      9  H   UNL     1      16.550   4.186  26.705  0.00  0.00    +0.149 HD
ATOM     10  C   UNL     1      17.229   2.287  26.713  0.00  0.00    +0.210 C 
ATOM     11  C   UNL     1      18.507   1.440  26.864  0.00  0.00    +0.109 C 
ATOM     12  O   UNL     1      16.137   1.745  26.541  0.00  0.00    -0.276 OA
ENDBRANCH   7   8
BRANCH   4  13
ATOM     13  C   UNL     1      19.300   7.939  27.249  0.00  0.00    +0.414 C 
ATOM     14  O   UNL     1      19.086   8.562  28.289  0.00  0.00    -0.240 OA
ATOM     15  O   UNL     1      18.723   8.277  26.215  0.00  0.00    -0.240 OA
ENDBRANCH   4  13
BRANCH   6  16
ATOM     16  O   UNL     1      18.546   4.119  29.374  0.00  0.00    -0.390 OA
ATOM     17  H   UNL     1      19.380   4.040  29.842  0.00  0.00    +0.210 HD
ENDBRANCH   6  16
BRANCH   4  18
ATOM     18  O   UNL     1      21.644   7.239  27.341  0.00  0.00    -0.343 OA
ATOM     19  C   UNL     1      22.227   7.676  26.088  0.00  0.00    +0.198 C 
ENDBRANCH   4  18
ENDBRANCH   1   2
BRANCH   1  20
ATOM     20  O   UNL     1      20.172   3.951  24.205  0.00  0.00    -0.387 OA
ATOM     21  H   UNL     1      20.423   4.020  23.281  0.00  0.00    +0.210 HD
ENDBRANCH   1  20
BRANCH   1  22
ATOM     22  C   UNL     1      18.691   5.673  23.302  0.00  0.00    +0.163 C 
BRANCH  22  23
ATOM     23  O   UNL     1      18.918   7.008  23.784  0.00  0.00    -0.388 OA
ATOM     24  H   UNL     1      18.142   7.313  24.260  0.00  0.00    +0.210 HD
ENDBRANCH  22  23
BRANCH  22  25
ATOM     25  C   UNL     1      17.266   5.543  22.776  0.00  0.00    +0.141 C 
BRANCH  25  28
ATOM     26  C   UNL     1      16.508   3.331  21.978  0.00  0.00    +0.401 C 
ATOM     27  O   UNL     1      15.957   3.032  23.040  0.00  0.00    -0.226 OA
ATOM     28  N   UNL     1      17.149   4.482  21.769  0.00  0.00    -0.279 N 
ATOM     29  H   UNL     1      17.577   4.632  20.866  0.00  0.00    +0.152 HD
BRANCH  26  30
ATOM     30  O   UNL     1      16.474   2.402  20.892  0.00  0.00    -0.444 OA
BRANCH  30  31
ATOM     31  C   UNL     1      17.807   1.998  20.566  0.00  0.00    +0.292 C 
BRANCH  31  33
ATOM     32  N   UNL     1      19.587   1.728  22.262  0.00  0.00    -0.131 NA
ATOM     33  C   UNL     1      18.419   1.283  21.702  0.00  0.00    +0.120 A 
ATOM     34  C   UNL     1      18.007   0.147  22.361  0.00  0.00    +0.137 A 
ATOM     35  N   UNL     1      18.969  -0.052  23.307  0.00  0.00    -0.248 N 
ATOM     36  N   UNL     1      19.914   0.902  23.246  0.00  0.00    -0.065 NA
BRANCH  35  37
ATOM     37  C   UNL     1      19.054  -1.125  24.268  0.00  0.00    +0.109 C 
ATOM     38  C   UNL     1      17.696  -1.605  24.782  0.00  0.00    +0.027 C 
ATOM     39  C   UNL     1      18.022  -2.959  25.388  0.00  0.00    +0.002 C 
ATOM     40  C   UNL     1      19.029  -3.569  24.421  0.00  0.00    +0.002 C 
ATOM     41  C   UNL     1      19.741  -2.394  23.746  0.00  0.00    +0.027 C 
ENDBRANCH  35  37
ENDBRANCH  31  33
ENDBRANCH  30  31
ENDBRANCH  26  30
ENDBRANCH  25  28
ENDBRANCH  22  25
ENDBRANCH   1  22
TORSDOF 14
