REMARK VINA RESULT:    -6.377      2.458      4.681
REMARK INTER + INTRA:         -13.185
REMARK INTER:                 -11.247
REMARK INTRA:                  -1.938
REMARK UNBOUND:                -1.775
REMARK  Name = lig_assembled_69.pdb
REMARK  18 active torsions:
REMARK  status: ('A' for Active; 'I' for Inactive)
REMARK    1  A    between atoms: _2  and  _9
REMARK    2  A    between atoms: _4  and  _21
REMARK    3  A    between atoms: _6  and  _7
REMARK    4  A    between atoms: _6  and  _21
REMARK    5  A    between atoms: _11  and  _16
REMARK    6  A    between atoms: _14  and  _15
REMARK    7  A    between atoms: _17  and  _37
REMARK    8  A    between atoms: _19  and  _25
REMARK    9  A    between atoms: _20  and  _24
REMARK   10  A    between atoms: _24  and  _25
REMARK   11  A    between atoms: _27  and  _28
REMARK   12  A    between atoms: _29  and  _30
REMARK   13  A    between atoms: _31  and  _33
REMARK   14  A    between atoms: _33  and  _34
REMARK   15  A    between atoms: _33  and  _35
REMARK   16  A    between atoms: _35  and  _36
REMARK   17  A    between atoms: _35  and  _37
REMARK   18  A    between atoms: _38  and  _40
REMARK                            x       y       z     vdW  Elec       q    Type
REMARK                         _______ _______ _______ _____ _____    ______ ____
ROOT
ATOM      1  C   UNL     1       3.784   2.158  32.985  0.00  0.00    +0.163 C 
ENDROOT
BRANCH   1   2
ATOM      2  O   UNL     1       2.674   1.247  32.910  0.00  0.00    -0.388 OA
ATOM      3  H   UNL     1       1.958   1.655  32.417  0.00  0.00    +0.210 HD
ENDBRANCH   1   2
BRANCH   1   4
ATOM      4  C   UNL     1       4.719   1.985  31.776  0.00  0.00    +0.175 C 
BRANCH   4   5
ATOM      5  C   UNL     1       5.863   1.002  32.066  0.00  0.00    +0.176 C 
ATOM      6  O   UNL     1       5.276  -0.305  32.319  0.00  0.00    -0.332 OA
ATOM      7  C   UNL     1       6.229  -1.401  32.513  0.00  0.00    +0.277 C 
ATOM      8  C   UNL     1       7.234  -1.052  33.638  0.00  0.00    +0.110 C 
ATOM      9  C   UNL     1       7.861   0.343  33.429  0.00  0.00    +0.143 C 
ATOM     10  C   UNL     1       6.780   1.406  33.235  0.00  0.00    +0.133 C 
BRANCH  10  11
ATOM     11  N   UNL     1       7.390   2.715  32.951  0.00  0.00    -0.308 N 
ATOM     12  H   UNL     1       7.885   2.825  32.077  0.00  0.00    +0.149 HD
ATOM     13  C   UNL     1       7.333   3.767  33.772  0.00  0.00    +0.210 C 
ATOM     14  C   UNL     1       6.594   3.559  35.108  0.00  0.00    +0.109 C 
ATOM     15  O   UNL     1       7.841   4.855  33.501  0.00  0.00    -0.276 OA
ENDBRANCH  10  11
BRANCH   7  16
ATOM     16  C   UNL     1       6.998  -1.695  31.208  0.00  0.00    +0.414 C 
ATOM     17  O   UNL     1       8.025  -2.373  31.232  0.00  0.00    -0.240 OA
ATOM     18  O   UNL     1       6.593  -1.254  30.132  0.00  0.00    -0.240 OA
ENDBRANCH   7  16
BRANCH   7  19
ATOM     19  O   UNL     1       5.483  -2.579  32.915  0.00  0.00    -0.343 OA
ATOM     20  C   UNL     1       4.995  -2.557  34.281  0.00  0.00    +0.198 C 
ENDBRANCH   7  19
BRANCH   9  21
ATOM     21  O   UNL     1       8.661   0.686  34.562  0.00  0.00    -0.390 OA
ATOM     22  H   UNL     1       8.143   1.218  35.170  0.00  0.00    +0.210 HD
ENDBRANCH   9  21
ENDBRANCH   4   5
BRANCH   4  23
ATOM     23  O   UNL     1       5.253   3.263  31.374  0.00  0.00    -0.387 OA
ATOM     24  H   UNL     1       5.966   3.129  30.746  0.00  0.00    +0.210 HD
ENDBRANCH   4  23
ENDBRANCH   1   4
BRANCH   1  25
ATOM     25  C   UNL     1       3.277   3.595  33.035  0.00  0.00    +0.141 C 
BRANCH  25  28
ATOM     26  C   UNL     1       1.345   3.859  31.517  0.00  0.00    +0.401 C 
ATOM     27  O   UNL     1       0.536   3.368  32.308  0.00  0.00    -0.226 OA
ATOM     28  N   UNL     1       2.646   3.998  31.772  0.00  0.00    -0.279 N 
ATOM     29  H   UNL     1       3.232   4.404  31.056  0.00  0.00    +0.152 HD
BRANCH  26  30
ATOM     30  O   UNL     1       0.882   4.309  30.241  0.00  0.00    -0.444 OA
BRANCH  30  31
ATOM     31  C   UNL     1       0.585   3.180  29.415  0.00  0.00    +0.292 C 
BRANCH  31  33
ATOM     32  N   UNL     1       2.148   3.623  27.553  0.00  0.00    -0.131 NA
ATOM     33  C   UNL     1       0.861   3.491  28.001  0.00  0.00    +0.120 A 
ATOM     34  C   UNL     1      -0.005   3.702  26.951  0.00  0.00    +0.137 A 
ATOM     35  N   UNL     1       0.816   3.970  25.897  0.00  0.00    -0.248 N 
ATOM     36  N   UNL     1       2.108   3.921  26.263  0.00  0.00    -0.065 NA
BRANCH  35  37
ATOM     37  C   UNL     1       0.439   4.330  24.530  0.00  0.00    +0.114 C 
ATOM     38  C   UNL     1      -0.017   3.104  23.731  0.00  0.00    +0.062 C 
ATOM     39  C   UNL     1       1.088   2.276  23.072  0.00  0.00    +0.139 C 
ATOM     40  C   UNL     1       1.793   2.909  21.906  0.00  0.00    +0.002 C 
ATOM     41  C   UNL     1       1.885   4.209  21.585  0.00  0.00    +0.002 C 
ATOM     42  C   UNL     1       1.429   5.387  22.391  0.00  0.00    +0.139 C 
ATOM     43  C   UNL     1       1.535   5.200  23.900  0.00  0.00    +0.062 C 
BRANCH  39  44
ATOM     44  O   UNL     1       0.471   1.093  22.550  0.00  0.00    -0.388 OA
ATOM     45  H   UNL     1       0.508   1.150  21.580  0.00  0.00    +0.210 HD
ENDBRANCH  39  44
BRANCH  42  46
ATOM     46  O   UNL     1       0.100   5.721  22.024  0.00  0.00    -0.388 OA
ATOM     47  H   UNL     1       0.141   6.176  21.165  0.00  0.00    +0.210 HD
ENDBRANCH  42  46
ENDBRANCH  35  37
ENDBRANCH  31  33
ENDBRANCH  30  31
ENDBRANCH  26  30
ENDBRANCH  25  28
ENDBRANCH   1  25
TORSDOF 16
