REMARK VINA RESULT:    -6.658     14.967     17.801
REMARK INTER + INTRA:         -13.352
REMARK INTER:                 -10.893
REMARK INTRA:                  -2.459
REMARK UNBOUND:                -1.828
REMARK  Name = lig_assembled_70.pdb
REMARK  16 active torsions:
REMARK  status: ('A' for Active; 'I' for Inactive)
REMARK    1  A    between atoms: _2  and  _10
REMARK    2  A    between atoms: _5  and  _22
REMARK    3  A    between atoms: _7  and  _8
REMARK    4  A    between atoms: _7  and  _22
REMARK    5  A    between atoms: _18  and  _38
REMARK    6  A    between atoms: _20  and  _26
REMARK    7  A    between atoms: _21  and  _25
REMARK    8  A    between atoms: _25  and  _26
REMARK    9  A    between atoms: _28  and  _29
REMARK   10  A    between atoms: _30  and  _31
REMARK   11  A    between atoms: _32  and  _34
REMARK   12  A    between atoms: _34  and  _35
REMARK   13  A    between atoms: _34  and  _36
REMARK   14  A    between atoms: _36  and  _37
REMARK   15  A    between atoms: _36  and  _38
REMARK   16  A    between atoms: _39  and  _41
REMARK                            x       y       z     vdW  Elec       q    Type
REMARK                         _______ _______ _______ _____ _____    ______ ____
ROOT
ATOM      1  C   UNL     1      18.028  -1.987  22.657  0.00  0.00    +0.163 C 
ENDROOT
BRANCH   1   2
ATOM      2  O   UNL     1      18.787  -3.203  22.750  0.00  0.00    -0.388 OA
ATOM      3  H   UNL     1      19.111  -3.447  21.880  0.00  0.00    +0.210 HD
ENDBRANCH   1   2
BRANCH   1   4
ATOM      4  C   UNL     1      18.655  -1.058  21.622  0.00  0.00    +0.141 C 
BRANCH   4   7
ATOM      5  C   UNL     1      18.364   1.294  20.924  0.00  0.00    +0.401 C 
ATOM      6  O   UNL     1      19.534   1.428  20.555  0.00  0.00    -0.226 OA
ATOM      7  N   UNL     1      17.869   0.169  21.441  0.00  0.00    -0.279 N 
ATOM      8  H   UNL     1      16.899   0.160  21.723  0.00  0.00    +0.152 HD
BRANCH   5   9
ATOM      9  O   UNL     1      17.468   2.401  20.803  0.00  0.00    -0.444 OA
BRANCH   9  10
ATOM     10  C   UNL     1      16.878   2.679  22.076  0.00  0.00    +0.292 C 
BRANCH  10  12
ATOM     11  N   UNL     1      16.914   5.152  22.241  0.00  0.00    -0.131 NA
ATOM     12  C   UNL     1      17.409   3.940  22.627  0.00  0.00    +0.121 A 
ATOM     13  C   UNL     1      18.409   4.138  23.550  0.00  0.00    +0.143 A 
ATOM     14  N   UNL     1      18.482   5.503  23.709  0.00  0.00    -0.218 N 
ATOM     15  N   UNL     1      17.576   6.097  22.898  0.00  0.00    -0.060 NA
BRANCH  14  16
ATOM     16  C   UNL     1      19.317   6.240  24.573  0.00  0.00    +0.086 A 
ATOM     17  C   UNL     1      20.672   6.358  24.310  0.00  0.00    +0.139 A 
ATOM     18  N   UNL     1      21.524   7.089  25.074  0.00  0.00    -0.253 NA
ATOM     19  C   UNL     1      21.026   7.742  26.140  0.00  0.00    +0.071 A 
ATOM     20  C   UNL     1      19.663   7.667  26.494  0.00  0.00    +0.002 A 
ATOM     21  C   UNL     1      19.178   8.363  27.616  0.00  0.00    +0.010 A 
ATOM     22  C   UNL     1      20.035   9.153  28.377  0.00  0.00    +0.001 A 
ATOM     23  C   UNL     1      21.378   9.238  28.028  0.00  0.00    +0.002 A 
ATOM     24  C   UNL     1      21.860   8.530  26.923  0.00  0.00    +0.028 A 
ATOM     25  C   UNL     1      18.810   6.894  25.697  0.00  0.00    +0.039 A 
ENDBRANCH  14  16
ENDBRANCH  10  12
ENDBRANCH   9  10
ENDBRANCH   5   9
ENDBRANCH   4   7
ENDBRANCH   1   4
BRANCH   1  26
ATOM     26  C   UNL     1      17.964  -1.272  24.018  0.00  0.00    +0.175 C 
BRANCH  26  27
ATOM     27  C   UNL     1      17.899  -2.264  25.189  0.00  0.00    +0.176 C 
ATOM     28  O   UNL     1      16.824  -3.205  24.919  0.00  0.00    -0.332 OA
ATOM     29  C   UNL     1      16.681  -4.297  25.886  0.00  0.00    +0.277 C 
ATOM     30  C   UNL     1      16.536  -3.734  27.321  0.00  0.00    +0.110 C 
ATOM     31  C   UNL     1      17.640  -2.705  27.643  0.00  0.00    +0.143 C 
ATOM     32  C   UNL     1      17.703  -1.615  26.572  0.00  0.00    +0.133 C 
BRANCH  32  33
ATOM     33  N   UNL     1      18.814  -0.690  26.843  0.00  0.00    -0.308 N 
ATOM     34  H   UNL     1      19.751  -1.068  26.855  0.00  0.00    +0.149 HD
ATOM     35  C   UNL     1      18.666   0.617  27.075  0.00  0.00    +0.210 C 
ATOM     36  C   UNL     1      17.224   1.158  27.076  0.00  0.00    +0.109 C 
ATOM     37  O   UNL     1      19.617   1.371  27.284  0.00  0.00    -0.276 OA
ENDBRANCH  32  33
BRANCH  29  38
ATOM     38  C   UNL     1      17.896  -5.245  25.824  0.00  0.00    +0.414 C 
ATOM     39  O   UNL     1      18.559  -5.338  24.791  0.00  0.00    -0.240 OA
ATOM     40  O   UNL     1      18.214  -5.918  26.806  0.00  0.00    -0.240 OA
ENDBRANCH  29  38
BRANCH  31  41
ATOM     41  O   UNL     1      17.382  -2.102  28.912  0.00  0.00    -0.390 OA
ATOM     42  H   UNL     1      17.050  -1.211  28.782  0.00  0.00    +0.210 HD
ENDBRANCH  31  41
BRANCH  29  43
ATOM     43  O   UNL     1      15.472  -5.030  25.559  0.00  0.00    -0.343 OA
ATOM     44  C   UNL     1      15.181  -5.130  24.142  0.00  0.00    +0.198 C 
ENDBRANCH  29  43
ENDBRANCH  26  27
BRANCH  26  45
ATOM     45  O   UNL     1      16.831  -0.382  24.058  0.00  0.00    -0.387 OA
ATOM     46  H   UNL     1      17.137   0.521  24.171  0.00  0.00    +0.210 HD
ENDBRANCH  26  45
ENDBRANCH   1  26
TORSDOF 14
