REMARK VINA RESULT:    -6.663     14.147     18.478
REMARK INTER + INTRA:         -15.374
REMARK INTER:                 -13.221
REMARK INTRA:                  -2.153
REMARK UNBOUND:                -2.090
REMARK  Name = lig_assembled_76.pdb
REMARK  21 active torsions:
REMARK  status: ('A' for Active; 'I' for Inactive)
REMARK    1  A    between atoms: _2  and  _9
REMARK    2  A    between atoms: _4  and  _23
REMARK    3  A    between atoms: _6  and  _7
REMARK    4  A    between atoms: _6  and  _23
REMARK    5  A    between atoms: _9  and  _10
REMARK    6  A    between atoms: _10  and  _11
REMARK    7  A    between atoms: _10  and  _18
REMARK    8  A    between atoms: _11  and  _12
REMARK    9  A    between atoms: _12  and  _13
REMARK   10  A    between atoms: _19  and  _39
REMARK   11  A    between atoms: _21  and  _27
REMARK   12  A    between atoms: _22  and  _26
REMARK   13  A    between atoms: _26  and  _27
REMARK   14  A    between atoms: _29  and  _30
REMARK   15  A    between atoms: _31  and  _32
REMARK   16  A    between atoms: _33  and  _35
REMARK   17  A    between atoms: _35  and  _36
REMARK   18  A    between atoms: _35  and  _37
REMARK   19  A    between atoms: _37  and  _38
REMARK   20  A    between atoms: _37  and  _39
REMARK   21  A    between atoms: _40  and  _42
REMARK                            x       y       z     vdW  Elec       q    Type
REMARK                         _______ _______ _______ _____ _____    ______ ____
ROOT
ATOM      1  C   UNL     1      18.332   2.366  25.998  0.00  0.00    +0.141 C 
ENDROOT
BRANCH   1   4
ATOM      2  C   UNL     1      19.172   4.645  25.548  0.00  0.00    +0.401 C 
ATOM      3  O   UNL     1      20.148   4.535  26.294  0.00  0.00    -0.226 OA
ATOM      4  N   UNL     1      18.268   3.684  25.355  0.00  0.00    -0.279 N 
ATOM      5  H   UNL     1      17.496   3.873  24.731  0.00  0.00    +0.152 HD
BRANCH   2   6
ATOM      6  O   UNL     1      18.974   5.872  24.841  0.00  0.00    -0.444 OA
BRANCH   6   7
ATOM      7  C   UNL     1      20.180   6.641  24.871  0.00  0.00    +0.292 C 
BRANCH   7   9
ATOM      8  N   UNL     1      20.866   8.918  25.572  0.00  0.00    -0.131 NA
ATOM      9  C   UNL     1      19.988   7.868  25.660  0.00  0.00    +0.120 A 
ATOM     10  C   UNL     1      19.000   8.182  26.567  0.00  0.00    +0.137 A 
ATOM     11  N   UNL     1      19.331   9.432  26.988  0.00  0.00    -0.249 N 
ATOM     12  N   UNL     1      20.456   9.870  26.399  0.00  0.00    -0.065 NA
BRANCH  11  13
ATOM     13  C   UNL     1      18.705  10.207  28.036  0.00  0.00    +0.176 C 
BRANCH  13  14
ATOM     14  C   UNL     1      19.714  10.792  29.030  0.00  0.00    +0.136 C 
BRANCH  14  15
ATOM     15  O   UNL     1      20.052  12.136  28.659  0.00  0.00    -0.390 OA
ATOM     16  H   UNL     1      20.405  12.136  27.752  0.00  0.00    +0.210 HD
ENDBRANCH  14  15
BRANCH  14  17
ATOM     17  C   UNL     1      19.166  10.836  30.466  0.00  0.00    +0.038 C 
BRANCH  17  18
ATOM     18  C   UNL     1      18.888   9.453  31.054  0.00  0.00    +0.038 C 
BRANCH  18  19
ATOM     19  C   UNL     1      17.625   9.429  31.876  0.00  0.00    -0.047 A 
ATOM     20  C   UNL     1      17.045  10.628  32.315  0.00  0.00    +0.003 A 
ATOM     21  C   UNL     1      15.866  10.611  33.062  0.00  0.00    +0.000 A 
ATOM     22  C   UNL     1      15.261   9.397  33.381  0.00  0.00    +0.000 A 
ATOM     23  C   UNL     1      15.837   8.200  32.958  0.00  0.00    +0.000 A 
ATOM     24  C   UNL     1      17.017   8.215  32.213  0.00  0.00    +0.003 A 
ENDBRANCH  18  19
ENDBRANCH  17  18
ENDBRANCH  14  17
ENDBRANCH  13  14
ENDBRANCH  11  13
ENDBRANCH   7   9
ENDBRANCH   6   7
ENDBRANCH   2   6
ENDBRANCH   1   4
BRANCH   1  25
ATOM     25  C   UNL     1      16.960   1.702  26.071  0.00  0.00    +0.163 C 
BRANCH  25  26
ATOM     26  O   UNL     1      16.041   2.549  26.779  0.00  0.00    -0.388 OA
ATOM     27  H   UNL     1      15.778   2.124  27.599  0.00  0.00    +0.210 HD
ENDBRANCH  25  26
BRANCH  25  28
ATOM     28  C   UNL     1      16.455   1.409  24.648  0.00  0.00    +0.175 C 
BRANCH  28  29
ATOM     29  C   UNL     1      17.552   0.808  23.757  0.00  0.00    +0.176 C 
ATOM     30  O   UNL     1      17.522   1.504  22.481  0.00  0.00    -0.332 OA
ATOM     31  C   UNL     1      18.577   1.132  21.532  0.00  0.00    +0.277 C 
ATOM     32  C   UNL     1      18.577  -0.398  21.295  0.00  0.00    +0.110 C 
ATOM     33  C   UNL     1      18.576  -1.180  22.625  0.00  0.00    +0.143 C 
ATOM     34  C   UNL     1      17.441  -0.712  23.536  0.00  0.00    +0.133 C 
BRANCH  34  35
ATOM     35  N   UNL     1      17.503  -1.403  24.833  0.00  0.00    -0.308 N 
ATOM     36  H   UNL     1      18.264  -1.170  25.456  0.00  0.00    +0.149 HD
ATOM     37  C   UNL     1      16.620  -2.318  25.242  0.00  0.00    +0.210 C 
ATOM     38  C   UNL     1      15.487  -2.670  24.260  0.00  0.00    +0.109 C 
ATOM     39  O   UNL     1      16.689  -2.870  26.340  0.00  0.00    -0.276 OA
ENDBRANCH  34  35
BRANCH  31  40
ATOM     40  C   UNL     1      19.960   1.574  22.052  0.00  0.00    +0.414 C 
ATOM     41  O   UNL     1      20.985   1.073  21.591  0.00  0.00    -0.240 OA
ATOM     42  O   UNL     1      20.052   2.430  22.933  0.00  0.00    -0.240 OA
ENDBRANCH  31  40
BRANCH  33  43
ATOM     43  O   UNL     1      18.423  -2.576  22.362  0.00  0.00    -0.390 OA
ATOM     44  H   UNL     1      18.340  -3.051  23.192  0.00  0.00    +0.210 HD
ENDBRANCH  33  43
BRANCH  31  45
ATOM     45  O   UNL     1      18.297   1.791  20.270  0.00  0.00    -0.343 OA
ATOM     46  C   UNL     1      16.900   1.799  19.880  0.00  0.00    +0.198 C 
ENDBRANCH  31  45
ENDBRANCH  28  29
BRANCH  28  47
ATOM     47  O   UNL     1      15.933   2.613  24.049  0.00  0.00    -0.387 OA
ATOM     48  H   UNL     1      15.011   2.480  23.816  0.00  0.00    +0.210 HD
ENDBRANCH  28  47
ENDBRANCH  25  28
ENDBRANCH   1  25
TORSDOF 19
