REMARK VINA RESULT:    -6.078     14.544     16.980
REMARK INTER + INTRA:         -14.228
REMARK INTER:                 -11.609
REMARK INTRA:                  -2.619
REMARK UNBOUND:                -2.643
REMARK  Name = lig_assembled_21.pdb
REMARK  20 active torsions:
REMARK  status: ('A' for Active; 'I' for Inactive)
REMARK    1  A    between atoms: _2  and  _9
REMARK    2  A    between atoms: _4  and  _23
REMARK    3  A    between atoms: _6  and  _7
REMARK    4  A    between atoms: _6  and  _23
REMARK    5  A    between atoms: _9  and  _10
REMARK    6  A    between atoms: _11  and  _18
REMARK    7  A    between atoms: _12  and  _13
REMARK    8  A    between atoms: _12  and  _18
REMARK    9  A    between atoms: _19  and  _39
REMARK   10  A    between atoms: _21  and  _27
REMARK   11  A    between atoms: _22  and  _26
REMARK   12  A    between atoms: _26  and  _27
REMARK   13  A    between atoms: _29  and  _30
REMARK   14  A    between atoms: _31  and  _32
REMARK   15  A    between atoms: _33  and  _35
REMARK   16  A    between atoms: _35  and  _36
REMARK   17  A    between atoms: _35  and  _37
REMARK   18  A    between atoms: _37  and  _38
REMARK   19  A    between atoms: _37  and  _39
REMARK   20  A    between atoms: _40  and  _42
REMARK                            x       y       z     vdW  Elec       q    Type
REMARK                         _______ _______ _______ _____ _____    ______ ____
ROOT
ATOM      1  C   UNL     1      18.684   6.507  29.054  0.00  0.00    +0.163 C 
ENDROOT
BRANCH   1   2
ATOM      2  O   UNL     1      18.798   5.684  30.226  0.00  0.00    -0.388 OA
ATOM      3  H   UNL     1      18.804   4.759  29.969  0.00  0.00    +0.210 HD
ENDBRANCH   1   2
BRANCH   1   4
ATOM      4  C   UNL     1      19.372   7.866  29.267  0.00  0.00    +0.175 C 
BRANCH   4   5
ATOM      5  C   UNL     1      18.997   8.499  30.615  0.00  0.00    +0.176 C 
ATOM      6  O   UNL     1      17.610   8.162  30.896  0.00  0.00    -0.332 OA
ATOM      7  C   UNL     1      17.105   8.596  32.202  0.00  0.00    +0.277 C 
ATOM      8  C   UNL     1      17.322  10.118  32.388  0.00  0.00    +0.110 C 
ATOM      9  C   UNL     1      18.776  10.528  32.070  0.00  0.00    +0.143 C 
ATOM     10  C   UNL     1      19.198  10.024  30.690  0.00  0.00    +0.133 C 
BRANCH  10  11
ATOM     11  N   UNL     1      20.611  10.346  30.434  0.00  0.00    -0.308 N 
ATOM     12  H   UNL     1      21.310   9.890  31.005  0.00  0.00    +0.149 HD
ATOM     13  C   UNL     1      21.031  11.201  29.498  0.00  0.00    +0.210 C 
ATOM     14  C   UNL     1      19.941  11.899  28.664  0.00  0.00    +0.109 C 
ATOM     15  O   UNL     1      22.222  11.440  29.297  0.00  0.00    -0.276 OA
ENDBRANCH  10  11
BRANCH   7  16
ATOM     16  C   UNL     1      17.809   7.831  33.342  0.00  0.00    +0.414 C 
ATOM     17  O   UNL     1      18.085   8.404  34.395  0.00  0.00    -0.240 OA
ATOM     18  O   UNL     1      18.100   6.642  33.209  0.00  0.00    -0.240 OA
ENDBRANCH   7  16
BRANCH   9  19
ATOM     19  O   UNL     1      18.893  11.951  32.107  0.00  0.00    -0.390 OA
ATOM     20  H   UNL     1      19.782  12.193  32.378  0.00  0.00    +0.210 HD
ENDBRANCH   9  19
BRANCH   7  21
ATOM     21  O   UNL     1      15.679   8.330  32.243  0.00  0.00    -0.343 OA
ATOM     22  C   UNL     1      14.950   9.052  33.267  0.00  0.00    +0.198 C 
ENDBRANCH   7  21
ENDBRANCH   4   5
BRANCH   4  23
ATOM     23  O   UNL     1      19.043   8.764  28.188  0.00  0.00    -0.387 OA
ATOM     24  H   UNL     1      19.197   9.670  28.467  0.00  0.00    +0.210 HD
ENDBRANCH   4  23
ENDBRANCH   1   4
BRANCH   1  25
ATOM     25  C   UNL     1      19.313   5.800  27.857  0.00  0.00    +0.141 C 
BRANCH  25  28
ATOM     26  C   UNL     1      18.927   6.896  25.676  0.00  0.00    +0.401 C 
ATOM     27  O   UNL     1      19.941   7.595  25.742  0.00  0.00    -0.226 OA
ATOM     28  N   UNL     1      18.553   6.034  26.622  0.00  0.00    -0.279 N 
ATOM     29  H   UNL     1      17.699   5.513  26.482  0.00  0.00    +0.152 HD
BRANCH  26  30
ATOM     30  O   UNL     1      18.083   7.003  24.527  0.00  0.00    -0.444 OA
BRANCH  30  31
ATOM     31  C   UNL     1      18.706   6.354  23.415  0.00  0.00    +0.292 C 
BRANCH  31  33
ATOM     32  N   UNL     1      16.905   5.114  22.262  0.00  0.00    -0.131 NA
ATOM     33  C   UNL     1      17.994   5.104  23.090  0.00  0.00    +0.120 A 
ATOM     34  C   UNL     1      18.256   3.808  23.473  0.00  0.00    +0.137 A 
ATOM     35  N   UNL     1      17.347   3.064  22.770  0.00  0.00    -0.247 N 
ATOM     36  N   UNL     1      16.517   3.862  22.074  0.00  0.00    -0.065 NA
BRANCH  35  37
ATOM     37  C   UNL     1      17.312   1.607  22.688  0.00  0.00    +0.184 C 
BRANCH  37  38
ATOM     38  C   UNL     1      17.428   0.874  24.003  0.00  0.00    +0.016 A 
ATOM     39  C   UNL     1      18.550   0.086  24.317  0.00  0.00    +0.137 A 
ATOM     40  C   UNL     1      18.641  -0.581  25.540  0.00  0.00    +0.047 A 
ATOM     41  C   UNL     1      17.613  -0.453  26.475  0.00  0.00    +0.004 A 
ATOM     42  C   UNL     1      16.487   0.312  26.176  0.00  0.00    +0.001 A 
ATOM     43  C   UNL     1      16.396   0.973  24.951  0.00  0.00    +0.009 A 
BRANCH  39  44
ATOM     44  O   UNL     1      19.529  -0.063  23.306  0.00  0.00    -0.426 OA
BRANCH  44  45
ATOM     45  C   UNL     1      20.521   0.892  23.075  0.00  0.00    +0.309 C 
ATOM     46  O   UNL     1      20.719   1.517  22.041  0.00  0.00    -0.251 OA
ATOM     47  C   UNL     1      21.293   1.109  24.342  0.00  0.00    +0.136 C 
ENDBRANCH  44  45
ENDBRANCH  39  44
ENDBRANCH  37  38
ENDBRANCH  35  37
ENDBRANCH  31  33
ENDBRANCH  30  31
ENDBRANCH  26  30
ENDBRANCH  25  28
ENDBRANCH   1  25
TORSDOF 17
