REMARK VINA RESULT:    -6.701     14.008     18.383
REMARK INTER + INTRA:         -13.629
REMARK INTER:                 -12.050
REMARK INTRA:                  -1.579
REMARK UNBOUND:                -2.031
REMARK  Name = lig_assembled_42.pdb
REMARK  16 active torsions:
REMARK  status: ('A' for Active; 'I' for Inactive)
REMARK    1  A    between atoms: _2  and  _9
REMARK    2  A    between atoms: _4  and  _21
REMARK    3  A    between atoms: _6  and  _7
REMARK    4  A    between atoms: _6  and  _21
REMARK    5  A    between atoms: _17  and  _37
REMARK    6  A    between atoms: _19  and  _25
REMARK    7  A    between atoms: _20  and  _24
REMARK    8  A    between atoms: _24  and  _25
REMARK    9  A    between atoms: _27  and  _28
REMARK   10  A    between atoms: _29  and  _30
REMARK   11  A    between atoms: _31  and  _33
REMARK   12  A    between atoms: _33  and  _34
REMARK   13  A    between atoms: _33  and  _35
REMARK   14  A    between atoms: _35  and  _36
REMARK   15  A    between atoms: _35  and  _37
REMARK   16  A    between atoms: _38  and  _40
REMARK                            x       y       z     vdW  Elec       q    Type
REMARK                         _______ _______ _______ _____ _____    ______ ____
ROOT
ATOM      1  C   UNL     1      17.177   2.027  26.066  0.00  0.00    +0.163 C 
ENDROOT
BRANCH   1   2
ATOM      2  O   UNL     1      16.241   2.822  26.812  0.00  0.00    -0.388 OA
ATOM      3  H   UNL     1      15.486   2.283  27.057  0.00  0.00    +0.210 HD
ENDBRANCH   1   2
BRANCH   1   4
ATOM      4  C   UNL     1      18.490   2.784  25.899  0.00  0.00    +0.141 C 
BRANCH   4   7
ATOM      5  C   UNL     1      19.213   5.104  25.448  0.00  0.00    +0.401 C 
ATOM      6  O   UNL     1      20.349   4.781  25.095  0.00  0.00    -0.226 OA
ATOM      7  N   UNL     1      18.281   4.237  25.846  0.00  0.00    -0.279 N 
ATOM      8  H   UNL     1      17.380   4.599  26.126  0.00  0.00    +0.152 HD
BRANCH   5   9
ATOM      9  O   UNL     1      18.851   6.487  25.444  0.00  0.00    -0.444 OA
BRANCH   9  10
ATOM     10  C   UNL     1      19.957   7.272  25.897  0.00  0.00    +0.292 C 
BRANCH  10  12
ATOM     11  N   UNL     1      19.627   9.504  26.928  0.00  0.00    -0.131 NA
ATOM     12  C   UNL     1      19.550   8.145  27.014  0.00  0.00    +0.121 A 
ATOM     13  C   UNL     1      19.059   7.802  28.251  0.00  0.00    +0.143 A 
ATOM     14  N   UNL     1      18.845   8.997  28.896  0.00  0.00    -0.220 N 
ATOM     15  N   UNL     1      19.197  10.017  28.075  0.00  0.00    -0.060 NA
BRANCH  14  16
ATOM     16  C   UNL     1      18.347   9.210  30.206  0.00  0.00    +0.071 A 
ATOM     17  C   UNL     1      17.915   8.122  30.979  0.00  0.00    +0.077 A 
ATOM     18  C   UNL     1      17.439   8.381  32.246  0.00  0.00    +0.168 A 
ATOM     19  O   UNL     1      16.988   7.443  33.120  0.00  0.00    -0.453 OA
ATOM     20  C   UNL     1      16.640   8.271  34.248  0.00  0.00    +0.466 C 
ATOM     21  O   UNL     1      16.880   9.677  34.022  0.00  0.00    -0.453 OA
ATOM     22  C   UNL     1      17.379   9.654  32.758  0.00  0.00    +0.166 A 
ATOM     23  C   UNL     1      17.793  10.747  32.027  0.00  0.00    +0.051 A 
ATOM     24  C   UNL     1      18.284  10.522  30.734  0.00  0.00    +0.031 A 
ENDBRANCH  14  16
ENDBRANCH  10  12
ENDBRANCH   9  10
ENDBRANCH   5   9
ENDBRANCH   4   7
ENDBRANCH   1   4
BRANCH   1  25
ATOM     25  C   UNL     1      16.611   1.667  24.681  0.00  0.00    +0.175 C 
BRANCH  25  26
ATOM     26  C   UNL     1      17.651   0.965  23.796  0.00  0.00    +0.176 C 
ATOM     27  O   UNL     1      17.639   1.610  22.493  0.00  0.00    -0.332 OA
ATOM     28  C   UNL     1      18.650   1.138  21.542  0.00  0.00    +0.277 C 
ATOM     29  C   UNL     1      18.552  -0.397  21.367  0.00  0.00    +0.110 C 
ATOM     30  C   UNL     1      18.530  -1.126  22.727  0.00  0.00    +0.143 C 
ATOM     31  C   UNL     1      17.444  -0.553  23.638  0.00  0.00    +0.133 C 
BRANCH  31  32
ATOM     32  N   UNL     1      17.490  -1.195  24.961  0.00  0.00    -0.308 N 
ATOM     33  H   UNL     1      18.268  -0.974  25.566  0.00  0.00    +0.149 HD
ATOM     34  C   UNL     1      16.570  -2.051  25.415  0.00  0.00    +0.210 C 
ATOM     35  C   UNL     1      15.410  -2.388  24.458  0.00  0.00    +0.109 C 
ATOM     36  O   UNL     1      16.626  -2.563  26.533  0.00  0.00    -0.276 OA
ENDBRANCH  31  32
BRANCH  28  37
ATOM     37  C   UNL     1      20.068   1.513  22.020  0.00  0.00    +0.414 C 
ATOM     38  O   UNL     1      21.056   1.010  21.486  0.00  0.00    -0.240 OA
ATOM     39  O   UNL     1      20.225   2.318  22.939  0.00  0.00    -0.240 OA
ENDBRANCH  28  37
BRANCH  30  40
ATOM     40  O   UNL     1      18.287  -2.518  22.524  0.00  0.00    -0.390 OA
ATOM     41  H   UNL     1      18.349  -2.721  21.587  0.00  0.00    +0.210 HD
ENDBRANCH  30  40
BRANCH  28  42
ATOM     42  O   UNL     1      18.386   1.763  20.259  0.00  0.00    -0.343 OA
ATOM     43  C   UNL     1      17.020   1.639  19.788  0.00  0.00    +0.198 C 
ENDBRANCH  28  42
ENDBRANCH  25  26
BRANCH  25  44
ATOM     44  O   UNL     1      16.118   2.851  24.023  0.00  0.00    -0.387 OA
ATOM     45  H   UNL     1      16.232   2.762  23.074  0.00  0.00    +0.210 HD
ENDBRANCH  25  44
ENDBRANCH   1  25
TORSDOF 14
