REMARK VINA RESULT:    -6.918      2.115      4.462
REMARK INTER + INTRA:         -15.097
REMARK INTER:                 -12.474
REMARK INTRA:                  -2.623
REMARK UNBOUND:                -1.911
REMARK  Name = lig_assembled_26.pdb
REMARK  20 active torsions:
REMARK  status: ('A' for Active; 'I' for Inactive)
REMARK    1  A    between atoms: _2  and  _9
REMARK    2  A    between atoms: _4  and  _23
REMARK    3  A    between atoms: _6  and  _7
REMARK    4  A    between atoms: _6  and  _23
REMARK    5  A    between atoms: _9  and  _10
REMARK    6  A    between atoms: _9  and  _11
REMARK    7  A    between atoms: _11  and  _12
REMARK    8  A    between atoms: _12  and  _13
REMARK    9  A    between atoms: _19  and  _39
REMARK   10  A    between atoms: _21  and  _27
REMARK   11  A    between atoms: _22  and  _26
REMARK   12  A    between atoms: _26  and  _27
REMARK   13  A    between atoms: _29  and  _30
REMARK   14  A    between atoms: _31  and  _32
REMARK   15  A    between atoms: _33  and  _35
REMARK   16  A    between atoms: _35  and  _36
REMARK   17  A    between atoms: _35  and  _37
REMARK   18  A    between atoms: _37  and  _38
REMARK   19  A    between atoms: _37  and  _39
REMARK   20  A    between atoms: _40  and  _42
REMARK                            x       y       z     vdW  Elec       q    Type
REMARK                         _______ _______ _______ _____ _____    ______ ____
ROOT
ATOM      1  C   UNL     1       2.669   2.602  35.701  0.00  0.00    +0.163 C 
ENDROOT
BRANCH   1   2
ATOM      2  O   UNL     1       2.741   1.228  35.287  0.00  0.00    -0.388 OA
ATOM      3  H   UNL     1       2.282   0.676  35.924  0.00  0.00    +0.210 HD
ENDBRANCH   1   2
BRANCH   1   4
ATOM      4  C   UNL     1       4.069   3.237  35.747  0.00  0.00    +0.175 C 
BRANCH   4   5
ATOM      5  C   UNL     1       4.925   2.837  34.536  0.00  0.00    +0.176 C 
ATOM      6  O   UNL     1       5.531   1.547  34.823  0.00  0.00    -0.332 OA
ATOM      7  C   UNL     1       6.305   0.952  33.730  0.00  0.00    +0.277 C 
ATOM      8  C   UNL     1       7.390   1.941  33.235  0.00  0.00    +0.110 C 
ATOM      9  C   UNL     1       6.799   3.337  32.947  0.00  0.00    +0.143 C 
ATOM     10  C   UNL     1       6.011   3.858  34.149  0.00  0.00    +0.133 C 
BRANCH  10  11
ATOM     11  N   UNL     1       5.381   5.149  33.832  0.00  0.00    -0.308 N 
ATOM     12  H   UNL     1       4.638   5.156  33.148  0.00  0.00    +0.149 HD
ATOM     13  C   UNL     1       5.727   6.313  34.389  0.00  0.00    +0.210 C 
ATOM     14  C   UNL     1       6.881   6.273  35.409  0.00  0.00    +0.109 C 
ATOM     15  O   UNL     1       5.171   7.377  34.114  0.00  0.00    -0.276 OA
ENDBRANCH  10  11
BRANCH   7  16
ATOM     16  C   UNL     1       5.384   0.567  32.554  0.00  0.00    +0.414 C 
ATOM     17  O   UNL     1       4.228   0.203  32.765  0.00  0.00    -0.240 OA
ATOM     18  O   UNL     1       5.797   0.619  31.394  0.00  0.00    -0.240 OA
ENDBRANCH   7  16
BRANCH   7  19
ATOM     19  O   UNL     1       6.966  -0.234  34.241  0.00  0.00    -0.343 OA
ATOM     20  C   UNL     1       7.899  -0.858  33.323  0.00  0.00    +0.198 C 
ENDBRANCH   7  19
BRANCH   9  21
ATOM     21  O   UNL     1       7.852   4.252  32.641  0.00  0.00    -0.390 OA
ATOM     22  H   UNL     1       8.584   4.112  33.247  0.00  0.00    +0.210 HD
ENDBRANCH   9  21
ENDBRANCH   4   5
BRANCH   4  23
ATOM     23  O   UNL     1       4.739   2.874  36.971  0.00  0.00    -0.387 OA
ATOM     24  H   UNL     1       4.174   2.293  37.485  0.00  0.00    +0.210 HD
ENDBRANCH   4  23
ENDBRANCH   1   4
BRANCH   1  25
ATOM     25  C   UNL     1       1.783   3.390  34.741  0.00  0.00    +0.141 C 
BRANCH  25  28
ATOM     26  C   UNL     1       2.286   3.315  32.323  0.00  0.00    +0.401 C 
ATOM     27  O   UNL     1       2.884   4.393  32.318  0.00  0.00    -0.226 OA
ATOM     28  N   UNL     1       1.734   2.773  33.410  0.00  0.00    -0.279 N 
ATOM     29  H   UNL     1       1.256   1.889  33.312  0.00  0.00    +0.152 HD
BRANCH  26  30
ATOM     30  O   UNL     1       2.160   2.585  31.100  0.00  0.00    -0.444 OA
BRANCH  30  31
ATOM     31  C   UNL     1       0.775   2.415  30.785  0.00  0.00    +0.292 C 
BRANCH  31  33
ATOM     32  N   UNL     1      -0.379   4.074  29.345  0.00  0.00    -0.131 NA
ATOM     33  C   UNL     1       0.470   3.008  29.471  0.00  0.00    +0.120 A 
ATOM     34  C   UNL     1       0.934   2.652  28.225  0.00  0.00    +0.137 A 
ATOM     35  N   UNL     1       0.313   3.517  27.377  0.00  0.00    -0.248 N 
ATOM     36  N   UNL     1      -0.455   4.391  28.059  0.00  0.00    -0.065 NA
BRANCH  35  37
ATOM     37  C   UNL     1       0.436   3.646  25.933  0.00  0.00    +0.113 C 
ATOM     38  C   UNL     1      -0.395   4.785  25.325  0.00  0.00    +0.033 C 
BRANCH  37  39
ATOM     39  C   UNL     1       1.901   3.697  25.464  0.00  0.00    +0.106 C 
BRANCH  39  40
ATOM     40  C   UNL     1       2.238   2.692  24.378  0.00  0.00    +0.165 C 
ATOM     41  O   UNL     1       2.738   1.597  24.627  0.00  0.00    -0.292 OA
BRANCH  40  42
ATOM     42  C   UNL     1       1.990   3.063  22.951  0.00  0.00    +0.017 A 
ATOM     43  C   UNL     1       1.842   4.392  22.536  0.00  0.00    +0.011 A 
ATOM     44  C   UNL     1       1.654   4.684  21.182  0.00  0.00    +0.001 A 
ATOM     45  C   UNL     1       1.607   3.656  20.242  0.00  0.00    +0.000 A 
ATOM     46  C   UNL     1       1.742   2.332  20.649  0.00  0.00    +0.001 A 
ATOM     47  C   UNL     1       1.934   2.036  21.999  0.00  0.00    +0.011 A 
ENDBRANCH  40  42
ENDBRANCH  39  40
ENDBRANCH  37  39
ENDBRANCH  35  37
ENDBRANCH  31  33
ENDBRANCH  30  31
ENDBRANCH  26  30
ENDBRANCH  25  28
ENDBRANCH   1  25
TORSDOF 17
