REMARK VINA RESULT:    -6.417     15.184     17.921
REMARK INTER + INTRA:         -14.884
REMARK INTER:                 -11.892
REMARK INTRA:                  -2.991
REMARK UNBOUND:                -2.090
REMARK  Name = lig_assembled_76.pdb
REMARK  21 active torsions:
REMARK  status: ('A' for Active; 'I' for Inactive)
REMARK    1  A    between atoms: _2  and  _9
REMARK    2  A    between atoms: _4  and  _23
REMARK    3  A    between atoms: _6  and  _7
REMARK    4  A    between atoms: _6  and  _23
REMARK    5  A    between atoms: _9  and  _10
REMARK    6  A    between atoms: _10  and  _11
REMARK    7  A    between atoms: _10  and  _18
REMARK    8  A    between atoms: _11  and  _12
REMARK    9  A    between atoms: _12  and  _13
REMARK   10  A    between atoms: _19  and  _39
REMARK   11  A    between atoms: _21  and  _27
REMARK   12  A    between atoms: _22  and  _26
REMARK   13  A    between atoms: _26  and  _27
REMARK   14  A    between atoms: _29  and  _30
REMARK   15  A    between atoms: _31  and  _32
REMARK   16  A    between atoms: _33  and  _35
REMARK   17  A    between atoms: _35  and  _36
REMARK   18  A    between atoms: _35  and  _37
REMARK   19  A    between atoms: _37  and  _38
REMARK   20  A    between atoms: _37  and  _39
REMARK   21  A    between atoms: _40  and  _42
REMARK                            x       y       z     vdW  Elec       q    Type
REMARK                         _______ _______ _______ _____ _____    ______ ____
ROOT
ATOM      1  C   UNL     1      18.572  -0.336  21.515  0.00  0.00    +0.141 C 
ENDROOT
BRANCH   1   4
ATOM      2  C   UNL     1      17.743   1.814  20.624  0.00  0.00    +0.401 C 
ATOM      3  O   UNL     1      18.620   1.902  19.761  0.00  0.00    -0.226 OA
ATOM      4  N   UNL     1      17.649   0.805  21.491  0.00  0.00    -0.279 N 
ATOM      5  H   UNL     1      16.900   0.827  22.168  0.00  0.00    +0.152 HD
BRANCH   2   6
ATOM      6  O   UNL     1      16.760   2.848  20.723  0.00  0.00    -0.444 OA
BRANCH   6   7
ATOM      7  C   UNL     1      16.403   3.037  22.095  0.00  0.00    +0.292 C 
BRANCH   7   9
ATOM      8  N   UNL     1      17.029   5.418  22.394  0.00  0.00    -0.131 NA
ATOM      9  C   UNL     1      17.228   4.096  22.700  0.00  0.00    +0.120 A 
ATOM     10  C   UNL     1      18.270   3.992  23.594  0.00  0.00    +0.137 A 
ATOM     11  N   UNL     1      18.657   5.280  23.794  0.00  0.00    -0.249 N 
ATOM     12  N   UNL     1      17.919   6.135  23.067  0.00  0.00    -0.065 NA
BRANCH  11  13
ATOM     13  C   UNL     1      19.793   5.756  24.550  0.00  0.00    +0.176 C 
BRANCH  13  14
ATOM     14  C   UNL     1      19.671   5.475  26.052  0.00  0.00    +0.136 C 
BRANCH  14  15
ATOM     15  O   UNL     1      20.306   4.230  26.376  0.00  0.00    -0.390 OA
ATOM     16  H   UNL     1      20.456   3.726  25.557  0.00  0.00    +0.210 HD
ENDBRANCH  14  15
BRANCH  14  17
ATOM     17  C   UNL     1      20.332   6.566  26.909  0.00  0.00    +0.038 C 
BRANCH  17  18
ATOM     18  C   UNL     1      19.512   6.954  28.139  0.00  0.00    +0.038 C 
BRANCH  18  19
ATOM     19  C   UNL     1      19.115   8.408  28.121  0.00  0.00    -0.047 A 
ATOM     20  C   UNL     1      18.896   9.096  29.323  0.00  0.00    +0.003 A 
ATOM     21  C   UNL     1      18.546  10.446  29.311  0.00  0.00    +0.000 A 
ATOM     22  C   UNL     1      18.406  11.119  28.099  0.00  0.00    +0.000 A 
ATOM     23  C   UNL     1      18.610  10.439  26.899  0.00  0.00    +0.000 A 
ATOM     24  C   UNL     1      18.959   9.088  26.909  0.00  0.00    +0.003 A 
ENDBRANCH  18  19
ENDBRANCH  17  18
ENDBRANCH  14  17
ENDBRANCH  13  14
ENDBRANCH  11  13
ENDBRANCH   7   9
ENDBRANCH   6   7
ENDBRANCH   2   6
ENDBRANCH   1   4
BRANCH   1  25
ATOM     25  C   UNL     1      18.151  -1.387  22.537  0.00  0.00    +0.163 C 
BRANCH  25  26
ATOM     26  O   UNL     1      18.946  -2.573  22.380  0.00  0.00    -0.388 OA
ATOM     27  H   UNL     1      19.583  -2.629  23.096  0.00  0.00    +0.210 HD
ENDBRANCH  25  26
BRANCH  25  28
ATOM     28  C   UNL     1      18.296  -0.811  23.956  0.00  0.00    +0.175 C 
BRANCH  28  29
ATOM     29  C   UNL     1      18.168  -1.896  25.036  0.00  0.00    +0.176 C 
ATOM     30  O   UNL     1      17.091  -2.791  24.644  0.00  0.00    -0.332 OA
ATOM     31  C   UNL     1      16.891  -3.958  25.509  0.00  0.00    +0.277 C 
ATOM     32  C   UNL     1      16.694  -3.515  26.979  0.00  0.00    +0.110 C 
ATOM     33  C   UNL     1      17.798  -2.536  27.432  0.00  0.00    +0.143 C 
ATOM     34  C   UNL     1      17.922  -1.362  26.460  0.00  0.00    +0.133 C 
BRANCH  34  35
ATOM     35  N   UNL     1      19.034  -0.483  26.853  0.00  0.00    -0.308 N 
ATOM     36  H   UNL     1      19.969  -0.866  26.832  0.00  0.00    +0.149 HD
ATOM     37  C   UNL     1      18.889   0.789  27.237  0.00  0.00    +0.210 C 
ATOM     38  C   UNL     1      17.450   1.335  27.283  0.00  0.00    +0.109 C 
ATOM     39  O   UNL     1      19.841   1.506  27.547  0.00  0.00    -0.276 OA
ENDBRANCH  34  35
BRANCH  31  40
ATOM     40  C   UNL     1      18.094  -4.920  25.417  0.00  0.00    +0.414 C 
ATOM     41  O   UNL     1      18.279  -5.767  26.290  0.00  0.00    -0.240 OA
ATOM     42  O   UNL     1      18.880  -4.848  24.471  0.00  0.00    -0.240 OA
ENDBRANCH  31  40
BRANCH  33  43
ATOM     43  O   UNL     1      17.495  -2.037  28.735  0.00  0.00    -0.390 OA
ATOM     44  H   UNL     1      18.184  -1.430  29.015  0.00  0.00    +0.210 HD
ENDBRANCH  33  43
BRANCH  31  45
ATOM     45  O   UNL     1      15.687  -4.640  25.071  0.00  0.00    -0.343 OA
ATOM     46  C   UNL     1      15.287  -4.360  23.706  0.00  0.00    +0.198 C 
ENDBRANCH  31  45
ENDBRANCH  28  29
BRANCH  28  47
ATOM     47  O   UNL     1      17.319   0.225  24.175  0.00  0.00    -0.387 OA
ATOM     48  H   UNL     1      16.888   0.440  23.344  0.00  0.00    +0.210 HD
ENDBRANCH  28  47
ENDBRANCH  25  28
ENDBRANCH   1  25
TORSDOF 19
