REMARK VINA RESULT:    -6.158     22.364     25.649
REMARK INTER + INTRA:         -13.967
REMARK INTER:                 -10.578
REMARK INTRA:                  -3.389
REMARK UNBOUND:                -2.230
REMARK  Name = lig_assembled_9.pdb
REMARK  20 active torsions:
REMARK  status: ('A' for Active; 'I' for Inactive)
REMARK    1  A    between atoms: _2  and  _9
REMARK    2  A    between atoms: _4  and  _23
REMARK    3  A    between atoms: _6  and  _7
REMARK    4  A    between atoms: _6  and  _23
REMARK    5  A    between atoms: _11  and  _12
REMARK    6  A    between atoms: _12  and  _17
REMARK    7  A    between atoms: _13  and  _14
REMARK    8  A    between atoms: _13  and  _17
REMARK    9  A    between atoms: _19  and  _39
REMARK   10  A    between atoms: _21  and  _27
REMARK   11  A    between atoms: _22  and  _26
REMARK   12  A    between atoms: _26  and  _27
REMARK   13  A    between atoms: _29  and  _30
REMARK   14  A    between atoms: _31  and  _32
REMARK   15  A    between atoms: _33  and  _35
REMARK   16  A    between atoms: _35  and  _36
REMARK   17  A    between atoms: _35  and  _37
REMARK   18  A    between atoms: _37  and  _38
REMARK   19  A    between atoms: _37  and  _39
REMARK   20  A    between atoms: _40  and  _42
REMARK                            x       y       z     vdW  Elec       q    Type
REMARK                         _______ _______ _______ _____ _____    ______ ____
ROOT
ATOM      1  C   UNL     1      16.514  21.339  21.216  0.00  0.00    +0.163 C 
ENDROOT
BRANCH   1   2
ATOM      2  O   UNL     1      15.640  21.265  22.354  0.00  0.00    -0.388 OA
ATOM      3  H   UNL     1      14.913  21.882  22.241  0.00  0.00    +0.210 HD
ENDBRANCH   1   2
BRANCH   1   4
ATOM      4  C   UNL     1      15.873  22.157  20.082  0.00  0.00    +0.175 C 
BRANCH   4   5
ATOM      5  C   UNL     1      15.739  23.643  20.445  0.00  0.00    +0.176 C 
ATOM      6  O   UNL     1      14.455  23.829  21.102  0.00  0.00    -0.332 OA
ATOM      7  C   UNL     1      14.196  25.176  21.618  0.00  0.00    +0.277 C 
ATOM      8  C   UNL     1      14.367  26.228  20.494  0.00  0.00    +0.110 C 
ATOM      9  C   UNL     1      15.704  26.050  19.746  0.00  0.00    +0.143 C 
ATOM     10  C   UNL     1      15.871  24.611  19.255  0.00  0.00    +0.133 C 
BRANCH  10  11
ATOM     11  N   UNL     1      17.187  24.433  18.620  0.00  0.00    -0.308 N 
ATOM     12  H   UNL     1      18.006  24.480  19.210  0.00  0.00    +0.149 HD
ATOM     13  C   UNL     1      17.369  24.213  17.315  0.00  0.00    +0.210 C 
ATOM     14  C   UNL     1      16.103  24.172  16.439  0.00  0.00    +0.109 C 
ATOM     15  O   UNL     1      18.482  24.052  16.813  0.00  0.00    -0.276 OA
ENDBRANCH  10  11
BRANCH   7  16
ATOM     16  C   UNL     1      15.151  25.508  22.784  0.00  0.00    +0.414 C 
ATOM     17  O   UNL     1      15.593  24.610  23.498  0.00  0.00    -0.240 OA
ATOM     18  O   UNL     1      15.479  26.674  23.009  0.00  0.00    -0.240 OA
ENDBRANCH   7  16
BRANCH   7  19
ATOM     19  O   UNL     1      12.823  25.223  22.083  0.00  0.00    -0.343 OA
ATOM     20  C   UNL     1      11.840  25.525  21.061  0.00  0.00    +0.198 C 
ENDBRANCH   7  19
BRANCH   9  21
ATOM     21  O   UNL     1      15.752  26.937  18.627  0.00  0.00    -0.390 OA
ATOM     22  H   UNL     1      14.869  27.264  18.439  0.00  0.00    +0.210 HD
ENDBRANCH   9  21
ENDBRANCH   4   5
BRANCH   4  23
ATOM     23  O   UNL     1      14.582  21.610  19.744  0.00  0.00    -0.387 OA
ATOM     24  H   UNL     1      13.916  22.298  19.809  0.00  0.00    +0.210 HD
ENDBRANCH   4  23
ENDBRANCH   1   4
BRANCH   1  25
ATOM     25  C   UNL     1      17.840  21.976  21.617  0.00  0.00    +0.141 C 
BRANCH  25  28
ATOM     26  C   UNL     1      18.587  22.343  23.944  0.00  0.00    +0.401 C 
ATOM     27  O   UNL     1      19.492  21.508  23.884  0.00  0.00    -0.226 OA
ATOM     28  N   UNL     1      17.762  22.622  22.933  0.00  0.00    -0.279 N 
ATOM     29  H   UNL     1      17.043  23.316  23.082  0.00  0.00    +0.152 HD
BRANCH  26  30
ATOM     30  O   UNL     1      18.386  23.065  25.162  0.00  0.00    -0.444 OA
BRANCH  30  31
ATOM     31  C   UNL     1      17.738  22.221  26.116  0.00  0.00    +0.292 C 
BRANCH  31  33
ATOM     32  N   UNL     1      15.556  21.581  25.138  0.00  0.00    -0.131 NA
ATOM     33  C   UNL     1      16.273  22.354  26.004  0.00  0.00    +0.121 A 
ATOM     34  C   UNL     1      15.414  23.186  26.682  0.00  0.00    +0.143 A 
ATOM     35  N   UNL     1      14.160  22.854  26.219  0.00  0.00    -0.220 N 
ATOM     36  N   UNL     1      14.274  21.897  25.268  0.00  0.00    -0.060 NA
BRANCH  35  37
ATOM     37  C   UNL     1      12.900  23.357  26.635  0.00  0.00    +0.068 A 
ATOM     38  C   UNL     1      11.808  23.358  25.756  0.00  0.00    +0.042 A 
ATOM     39  C   UNL     1      10.573  23.886  26.161  0.00  0.00    +0.061 A 
ATOM     40  C   UNL     1      10.432  24.408  27.452  0.00  0.00    +0.015 A 
ATOM     41  C   UNL     1      11.514  24.396  28.334  0.00  0.00    +0.003 A 
ATOM     42  C   UNL     1      12.744  23.872  27.931  0.00  0.00    +0.028 A 
BRANCH  39  43
ATOM     43  C   UNL     1       9.376  23.852  25.280  0.00  0.00    +0.339 C 
ATOM     44  O   UNL     1       9.059  22.887  24.605  0.00  0.00    -0.245 OA
BRANCH  43  45
ATOM     45  O   UNL     1       8.776  25.068  25.275  0.00  0.00    -0.461 OA
BRANCH  45  46
ATOM     46  C   UNL     1       7.551  25.150  24.534  0.00  0.00    +0.229 C 
ATOM     47  C   UNL     1       6.533  25.876  25.393  0.00  0.00    +0.048 C 
ENDBRANCH  45  46
ENDBRANCH  43  45
ENDBRANCH  39  43
ENDBRANCH  35  37
ENDBRANCH  31  33
ENDBRANCH  30  31
ENDBRANCH  26  30
ENDBRANCH  25  28
ENDBRANCH   1  25
TORSDOF 17
