REMARK VINA RESULT:    -7.270      8.557     14.265
REMARK INTER + INTRA:         -17.119
REMARK INTER:                 -12.625
REMARK INTRA:                  -4.493
REMARK UNBOUND:                -3.474
REMARK  Name = lig_assembled_34.pdb
REMARK  19 active torsions:
REMARK  status: ('A' for Active; 'I' for Inactive)
REMARK    1  A    between atoms: _2  and  _9
REMARK    2  A    between atoms: _4  and  _37
REMARK    3  A    between atoms: _6  and  _7
REMARK    4  A    between atoms: _6  and  _37
REMARK    5  A    between atoms: _11  and  _12
REMARK    6  A    between atoms: _13  and  _14
REMARK    7  A    between atoms: _18  and  _31
REMARK    8  A    between atoms: _33  and  _53
REMARK    9  A    between atoms: _35  and  _41
REMARK   10  A    between atoms: _36  and  _40
REMARK   11  A    between atoms: _40  and  _41
REMARK   12  A    between atoms: _43  and  _44
REMARK   13  A    between atoms: _45  and  _46
REMARK   14  A    between atoms: _47  and  _49
REMARK   15  A    between atoms: _49  and  _50
REMARK   16  A    between atoms: _49  and  _51
REMARK   17  A    between atoms: _51  and  _52
REMARK   18  A    between atoms: _51  and  _53
REMARK   19  A    between atoms: _54  and  _56
REMARK                            x       y       z     vdW  Elec       q    Type
REMARK                         _______ _______ _______ _____ _____    ______ ____
ROOT
ATOM      1  N   UNL     1      -7.451  14.130  26.651  0.00  0.00    -0.131 NA
ATOM      2  C   UNL     1      -8.646  14.589  26.173  0.00  0.00    +0.121 A 
ATOM      3  C   UNL     1      -8.405  15.483  25.159  0.00  0.00    +0.143 A 
ATOM      4  N   UNL     1      -7.034  15.525  25.021  0.00  0.00    -0.220 N 
ATOM      5  N   UNL     1      -6.475  14.712  25.958  0.00  0.00    -0.060 NA
ENDROOT
BRANCH   4   6
ATOM      6  C   UNL     1      -6.274  16.235  24.055  0.00  0.00    +0.068 A 
ATOM      7  C   UNL     1      -6.102  17.617  24.189  0.00  0.00    +0.038 A 
ATOM      8  C   UNL     1      -5.466  18.407  23.200  0.00  0.00    +0.007 A 
ATOM      9  C   UNL     1      -4.921  17.763  22.071  0.00  0.00    -0.008 A 
ATOM     10  C   UNL     1      -5.056  16.357  21.967  0.00  0.00    +0.011 A 
ATOM     11  C   UNL     1      -5.738  15.599  22.935  0.00  0.00    +0.028 A 
BRANCH   9  12
ATOM     12  C   UNL     1      -4.270  18.467  20.919  0.00  0.00    +0.004 A 
ATOM     13  C   UNL     1      -4.984  18.963  19.868  0.00  0.00    +0.026 A 
ATOM     14  C   UNL     1      -6.437  18.796  19.748  0.00  0.00    +0.016 A 
ATOM     15  C   UNL     1      -7.090  19.123  18.623  0.00  0.00    +0.051 A 
ATOM     16  C   UNL     1      -6.362  19.702  17.468  0.00  0.00    +0.183 A 
ATOM     17  O   UNL     1      -6.936  19.946  16.410  0.00  0.00    -0.288 OA
ATOM     18  C   UNL     1      -4.939  20.044  17.663  0.00  0.00    +0.097 A 
ATOM     19  C   UNL     1      -4.310  19.726  18.801  0.00  0.00    +0.140 A 
ATOM     20  O   UNL     1      -3.017  20.192  18.991  0.00  0.00    -0.455 OA
ATOM     21  C   UNL     1      -2.278  19.672  20.019  0.00  0.00    +0.140 A 
ATOM     22  C   UNL     1      -0.955  20.104  20.110  0.00  0.00    +0.092 A 
ATOM     23  C   UNL     1      -0.133  19.574  21.093  0.00  0.00    +0.120 A 
ATOM     24  C   UNL     1      -0.595  18.564  21.929  0.00  0.00    +0.046 A 
ATOM     25  C   UNL     1      -1.927  18.150  21.834  0.00  0.00    +0.016 A 
ATOM     26  C   UNL     1      -2.805  18.746  20.917  0.00  0.00    +0.026 A 
BRANCH  23  27
ATOM     27  O   UNL     1       1.128  20.077  21.220  0.00  0.00    -0.507 OA
ATOM     28  H   UNL     1       1.170  20.898  20.703  0.00  0.00    +0.292 HD
ENDBRANCH  23  27
ENDBRANCH   9  12
BRANCH   8  29
ATOM     29  C   UNL     1      -5.499  19.908  23.410  0.00  0.00    +0.072 C 
ATOM     30  O   UNL     1      -6.595  20.489  23.125  0.00  0.00    -0.545 OA
ATOM     31  O   UNL     1      -4.434  20.487  23.775  0.00  0.00    -0.545 OA
ENDBRANCH   8  29
ENDBRANCH   4   6
BRANCH   2  32
ATOM     32  C   UNL     1      -9.942  14.141  26.719  0.00  0.00    +0.292 C 
BRANCH  32  33
ATOM     33  O   UNL     1      -9.748  13.182  27.762  0.00  0.00    -0.444 OA
BRANCH  33  34
ATOM     34  C   UNL     1      -9.749  11.865  27.207  0.00  0.00    +0.401 C 
ATOM     35  O   UNL     1     -10.821  11.268  27.083  0.00  0.00    -0.226 OA
ATOM     36  N   UNL     1      -8.568  11.359  26.848  0.00  0.00    -0.279 N 
ATOM     37  H   UNL     1      -7.745  11.930  26.980  0.00  0.00    +0.152 HD
BRANCH  36  38
ATOM     38  C   UNL     1      -8.397  10.020  26.272  0.00  0.00    +0.141 C 
BRANCH  38  39
ATOM     39  C   UNL     1      -8.624  10.016  24.764  0.00  0.00    +0.163 C 
BRANCH  39  40
ATOM     40  O   UNL     1     -10.008   9.760  24.476  0.00  0.00    -0.388 OA
ATOM     41  H   UNL     1     -10.089   8.924  24.010  0.00  0.00    +0.210 HD
ENDBRANCH  39  40
BRANCH  39  42
ATOM     42  C   UNL     1      -8.179  11.365  24.174  0.00  0.00    +0.175 C 
BRANCH  42  43
ATOM     43  C   UNL     1      -8.190  11.356  22.638  0.00  0.00    +0.176 C 
ATOM     44  O   UNL     1      -9.571  11.480  22.200  0.00  0.00    -0.332 OA
ATOM     45  C   UNL     1      -9.769  11.596  20.752  0.00  0.00    +0.277 C 
ATOM     46  C   UNL     1      -9.091  10.414  20.017  0.00  0.00    +0.110 C 
ATOM     47  C   UNL     1      -7.629  10.223  20.474  0.00  0.00    +0.143 C 
ATOM     48  C   UNL     1      -7.539  10.117  21.997  0.00  0.00    +0.133 C 
BRANCH  48  49
ATOM     49  N   UNL     1      -6.134  10.023  22.424  0.00  0.00    -0.308 N 
ATOM     50  H   UNL     1      -5.557  10.847  22.333  0.00  0.00    +0.149 HD
ATOM     51  C   UNL     1      -5.573   8.919  22.926  0.00  0.00    +0.210 C 
ATOM     52  C   UNL     1      -6.472   7.673  23.028  0.00  0.00    +0.109 C 
ATOM     53  O   UNL     1      -4.397   8.874  23.290  0.00  0.00    -0.276 OA
ENDBRANCH  48  49
BRANCH  45  54
ATOM     54  C   UNL     1      -9.194  12.928  20.227  0.00  0.00    +0.414 C 
ATOM     55  O   UNL     1      -9.376  13.972  20.852  0.00  0.00    -0.240 OA
ATOM     56  O   UNL     1      -8.550  12.959  19.178  0.00  0.00    -0.240 OA
ENDBRANCH  45  54
BRANCH  47  57
ATOM     57  O   UNL     1      -7.092   9.036  19.887  0.00  0.00    -0.390 OA
ATOM     58  H   UNL     1      -6.763   9.234  19.007  0.00  0.00    +0.210 HD
ENDBRANCH  47  57
BRANCH  45  59
ATOM     59  O   UNL     1     -11.195  11.541  20.488  0.00  0.00    -0.343 OA
ATOM     60  C   UNL     1     -11.604  10.516  19.548  0.00  0.00    +0.198 C 
ENDBRANCH  45  59
ENDBRANCH  42  43
BRANCH  42  61
ATOM     61  O   UNL     1      -6.867  11.711  24.660  0.00  0.00    -0.387 OA
ATOM     62  H   UNL     1      -6.529  10.998  25.206  0.00  0.00    +0.210 HD
ENDBRANCH  42  61
ENDBRANCH  39  42
ENDBRANCH  38  39
ENDBRANCH  36  38
ENDBRANCH  33  34
ENDBRANCH  32  33
ENDBRANCH   2  32
TORSDOF 17
