REMARK VINA RESULT:    -6.084      3.151      5.263
REMARK INTER + INTRA:         -14.299
REMARK INTER:                 -12.387
REMARK INTRA:                  -1.912
REMARK UNBOUND:                -1.813
REMARK  Name = lig_assembled_33.pdb
REMARK  22 active torsions:
REMARK  status: ('A' for Active; 'I' for Inactive)
REMARK    1  A    between atoms: _2  and  _9
REMARK    2  A    between atoms: _4  and  _20
REMARK    3  A    between atoms: _5  and  _13
REMARK    4  A    between atoms: _5  and  _14
REMARK    5  A    between atoms: _6  and  _7
REMARK    6  A    between atoms: _6  and  _20
REMARK    7  A    between atoms: _9  and  _10
REMARK    8  A    between atoms: _10  and  _11
REMARK    9  A    between atoms: _11  and  _12
REMARK   10  A    between atoms: _12  and  _13
REMARK   11  A    between atoms: _16  and  _36
REMARK   12  A    between atoms: _18  and  _24
REMARK   13  A    between atoms: _19  and  _23
REMARK   14  A    between atoms: _23  and  _24
REMARK   15  A    between atoms: _26  and  _27
REMARK   16  A    between atoms: _28  and  _29
REMARK   17  A    between atoms: _30  and  _32
REMARK   18  A    between atoms: _32  and  _33
REMARK   19  A    between atoms: _32  and  _34
REMARK   20  A    between atoms: _34  and  _35
REMARK   21  A    between atoms: _34  and  _36
REMARK   22  A    between atoms: _37  and  _39
REMARK                            x       y       z     vdW  Elec       q    Type
REMARK                         _______ _______ _______ _____ _____    ______ ____
ROOT
ATOM      1  C   UNL     1       7.401   2.450  34.371  0.00  0.00    +0.163 C 
ENDROOT
BRANCH   1   2
ATOM      2  O   UNL     1       8.020   2.240  35.651  0.00  0.00    -0.388 OA
ATOM      3  H   UNL     1       7.613   2.815  36.302  0.00  0.00    +0.210 HD
ENDBRANCH   1   2
BRANCH   1   4
ATOM      4  C   UNL     1       7.804   3.812  33.782  0.00  0.00    +0.175 C 
BRANCH   4   5
ATOM      5  C   UNL     1       7.193   4.984  34.564  0.00  0.00    +0.176 C 
ATOM      6  O   UNL     1       7.926   5.119  35.813  0.00  0.00    -0.332 OA
ATOM      7  C   UNL     1       7.547   6.262  36.649  0.00  0.00    +0.277 C 
ATOM      8  C   UNL     1       6.026   6.243  36.935  0.00  0.00    +0.110 C 
ATOM      9  C   UNL     1       5.205   6.069  35.640  0.00  0.00    +0.143 C 
ATOM     10  C   UNL     1       5.685   4.853  34.846  0.00  0.00    +0.133 C 
BRANCH  10  11
ATOM     11  N   UNL     1       4.954   4.749  33.573  0.00  0.00    -0.308 N 
ATOM     12  H   UNL     1       5.129   5.453  32.869  0.00  0.00    +0.149 HD
ATOM     13  C   UNL     1       4.075   3.784  33.286  0.00  0.00    +0.210 C 
ATOM     14  C   UNL     1       3.811   2.742  34.388  0.00  0.00    +0.109 C 
ATOM     15  O   UNL     1       3.489   3.714  32.205  0.00  0.00    -0.276 OA
ENDBRANCH  10  11
BRANCH   7  16
ATOM     16  C   UNL     1       7.927   7.591  35.964  0.00  0.00    +0.414 C 
ATOM     17  O   UNL     1       8.197   8.582  36.641  0.00  0.00    -0.240 OA
ATOM     18  O   UNL     1       7.964   7.671  34.736  0.00  0.00    -0.240 OA
ENDBRANCH   7  16
BRANCH   9  19
ATOM     19  O   UNL     1       3.824   5.905  35.963  0.00  0.00    -0.390 OA
ATOM     20  H   UNL     1       3.651   4.985  36.177  0.00  0.00    +0.210 HD
ENDBRANCH   9  19
BRANCH   7  21
ATOM     21  O   UNL     1       8.251   6.145  37.913  0.00  0.00    -0.343 OA
ATOM     22  C   UNL     1       9.189   5.042  37.992  0.00  0.00    +0.198 C 
ENDBRANCH   7  21
ENDBRANCH   4   5
BRANCH   4  23
ATOM     23  O   UNL     1       7.420   3.887  32.394  0.00  0.00    -0.387 OA
ATOM     24  H   UNL     1       6.466   3.809  32.322  0.00  0.00    +0.210 HD
ENDBRANCH   4  23
ENDBRANCH   1   4
BRANCH   1  25
ATOM     25  C   UNL     1       7.805   1.338  33.408  0.00  0.00    +0.141 C 
BRANCH  25  28
ATOM     26  C   UNL     1       6.611  -0.356  32.063  0.00  0.00    +0.401 C 
ATOM     27  O   UNL     1       7.518  -1.189  32.134  0.00  0.00    -0.226 OA
ATOM     28  N   UNL     1       6.663   0.853  32.623  0.00  0.00    -0.279 N 
ATOM     29  H   UNL     1       5.872   1.469  32.501  0.00  0.00    +0.152 HD
BRANCH  26  30
ATOM     30  O   UNL     1       5.423  -0.684  31.337  0.00  0.00    -0.444 OA
BRANCH  30  31
ATOM     31  C   UNL     1       4.422   0.307  31.586  0.00  0.00    +0.292 C 
BRANCH  31  33
ATOM     32  N   UNL     1       3.606  -0.445  29.376  0.00  0.00    -0.131 NA
ATOM     33  C   UNL     1       3.517   0.427  30.429  0.00  0.00    +0.120 A 
ATOM     34  C   UNL     1       2.509   1.334  30.179  0.00  0.00    +0.137 A 
ATOM     35  N   UNL     1       2.023   0.953  28.965  0.00  0.00    -0.251 N 
ATOM     36  N   UNL     1       2.694  -0.103  28.477  0.00  0.00    -0.065 NA
BRANCH  35  37
ATOM     37  C   UNL     1       0.941   1.547  28.206  0.00  0.00    +0.145 C 
BRANCH  37  38
ATOM     38  C   UNL     1       1.416   2.719  27.350  0.00  0.00    +0.023 C 
BRANCH  38  39
ATOM     39  C   UNL     1       1.607   2.336  25.880  0.00  0.00    +0.002 C 
BRANCH  39  40
ATOM     40  C   UNL     1       2.465   3.389  25.175  0.00  0.00    +0.011 C 
BRANCH  40  41
ATOM     41  C   UNL     1       1.967   3.715  23.769  0.00  0.00    +0.120 C 
BRANCH  41  42
ATOM     42  C   UNL     1       1.364   5.101  23.708  0.00  0.00    +0.305 C 
ATOM     43  O   UNL     1       0.547   5.552  24.495  0.00  0.00    -0.251 OA
BRANCH  42  44
ATOM     44  O   UNL     1       1.837   5.823  22.666  0.00  0.00    -0.481 OA
ATOM     45  H   UNL     1       2.362   6.600  22.930  0.00  0.00    +0.295 HD
ENDBRANCH  42  44
ENDBRANCH  41  42
ENDBRANCH  40  41
ENDBRANCH  39  40
ENDBRANCH  38  39
ENDBRANCH  37  38
ENDBRANCH  35  37
ENDBRANCH  31  33
ENDBRANCH  30  31
ENDBRANCH  26  30
ENDBRANCH  25  28
ENDBRANCH   1  25
TORSDOF 20
