REMARK VINA RESULT:    -4.763     14.649     17.019
REMARK INTER + INTRA:         -13.255
REMARK INTER:                 -11.498
REMARK INTRA:                  -1.757
REMARK UNBOUND:                -4.177
REMARK  Name = lig_assembled_50.pdb
REMARK  20 active torsions:
REMARK  status: ('A' for Active; 'I' for Inactive)
REMARK    1  A    between atoms: _2  and  _9
REMARK    2  A    between atoms: _4  and  _17
REMARK    3  A    between atoms: _5  and  _10
REMARK    4  A    between atoms: _5  and  _11
REMARK    5  A    between atoms: _6  and  _7
REMARK    6  A    between atoms: _6  and  _17
REMARK    7  A    between atoms: _9  and  _10
REMARK    8  A    between atoms: _10  and  _12
REMARK    9  A    between atoms: _13  and  _33
REMARK   10  A    between atoms: _15  and  _21
REMARK   11  A    between atoms: _16  and  _20
REMARK   12  A    between atoms: _20  and  _21
REMARK   13  A    between atoms: _23  and  _24
REMARK   14  A    between atoms: _25  and  _26
REMARK   15  A    between atoms: _27  and  _29
REMARK   16  A    between atoms: _29  and  _30
REMARK   17  A    between atoms: _29  and  _31
REMARK   18  A    between atoms: _31  and  _32
REMARK   19  A    between atoms: _31  and  _33
REMARK   20  A    between atoms: _34  and  _36
REMARK                            x       y       z     vdW  Elec       q    Type
REMARK                         _______ _______ _______ _____ _____    ______ ____
ROOT
ATOM      1  C   UNL     1       3.385   3.733  32.560  0.00  0.00    +0.163 C 
ENDROOT
BRANCH   1   2
ATOM      2  O   UNL     1       2.558   3.977  33.709  0.00  0.00    -0.388 OA
ATOM      3  H   UNL     1       2.797   3.367  34.411  0.00  0.00    +0.210 HD
ENDBRANCH   1   2
BRANCH   1   4
ATOM      4  C   UNL     1       4.716   3.078  32.969  0.00  0.00    +0.175 C 
BRANCH   4   5
ATOM      5  C   UNL     1       5.325   3.736  34.215  0.00  0.00    +0.176 C 
ATOM      6  O   UNL     1       5.355   5.173  33.992  0.00  0.00    -0.332 OA
ATOM      7  C   UNL     1       5.812   5.981  35.127  0.00  0.00    +0.277 C 
ATOM      8  C   UNL     1       7.200   5.498  35.612  0.00  0.00    +0.110 C 
ATOM      9  C   UNL     1       7.227   3.971  35.832  0.00  0.00    +0.143 C 
ATOM     10  C   UNL     1       6.730   3.229  34.591  0.00  0.00    +0.133 C 
BRANCH  10  11
ATOM     11  N   UNL     1       6.677   1.780  34.843  0.00  0.00    -0.308 N 
ATOM     12  H   UNL     1       6.007   1.443  35.520  0.00  0.00    +0.149 HD
ATOM     13  C   UNL     1       7.457   0.881  34.236  0.00  0.00    +0.210 C 
ATOM     14  C   UNL     1       8.485   1.429  33.229  0.00  0.00    +0.109 C 
ATOM     15  O   UNL     1       7.381  -0.328  34.457  0.00  0.00    -0.276 OA
ENDBRANCH  10  11
BRANCH   7  16
ATOM     16  C   UNL     1       4.804   5.906  36.293  0.00  0.00    +0.414 C 
ATOM     17  O   UNL     1       5.155   6.196  37.436  0.00  0.00    -0.240 OA
ATOM     18  O   UNL     1       3.641   5.555  36.090  0.00  0.00    -0.240 OA
ENDBRANCH   7  16
BRANCH   9  19
ATOM     19  O   UNL     1       8.559   3.550  36.130  0.00  0.00    -0.390 OA
ATOM     20  H   UNL     1       8.564   2.606  36.308  0.00  0.00    +0.210 HD
ENDBRANCH   9  19
BRANCH   7  21
ATOM     21  O   UNL     1       5.937   7.355  34.678  0.00  0.00    -0.343 OA
ATOM     22  C   UNL     1       7.296   7.799  34.437  0.00  0.00    +0.198 C 
ENDBRANCH   7  21
ENDBRANCH   4   5
BRANCH   4  23
ATOM     23  O   UNL     1       5.651   3.128  31.873  0.00  0.00    -0.387 OA
ATOM     24  H   UNL     1       5.205   2.883  31.059  0.00  0.00    +0.210 HD
ENDBRANCH   4  23
ENDBRANCH   1   4
BRANCH   1  25
ATOM     25  C   UNL     1       2.654   2.828  31.573  0.00  0.00    +0.141 C 
BRANCH  25  28
ATOM     26  C   UNL     1       1.854   3.082  29.249  0.00  0.00    +0.401 C 
ATOM     27  O   UNL     1       0.832   2.416  29.429  0.00  0.00    -0.226 OA
ATOM     28  N   UNL     1       2.764   3.320  30.194  0.00  0.00    -0.279 N 
ATOM     29  H   UNL     1       3.575   3.870  29.948  0.00  0.00    +0.152 HD
BRANCH  26  30
ATOM     30  O   UNL     1       2.102   3.639  27.956  0.00  0.00    -0.444 OA
BRANCH  30  31
ATOM     31  C   UNL     1       1.242   3.019  26.996  0.00  0.00    +0.292 C 
BRANCH  31  33
ATOM     32  N   UNL     1       0.177   4.895  25.773  0.00  0.00    -0.131 NA
ATOM     33  C   UNL     1       1.098   3.877  25.802  0.00  0.00    +0.120 A 
ATOM     34  C   UNL     1       1.783   3.856  24.605  0.00  0.00    +0.137 A 
ATOM     35  N   UNL     1       1.229   4.872  23.895  0.00  0.00    -0.249 N 
ATOM     36  N   UNL     1       0.276   5.507  24.604  0.00  0.00    -0.065 NA
BRANCH  35  37
ATOM     37  C   UNL     1       1.536   5.298  22.548  0.00  0.00    +0.178 C 
BRANCH  37  38
ATOM     38  C   UNL     1       0.835   4.480  21.458  0.00  0.00    +0.161 C 
BRANCH  38  39
ATOM     39  O   UNL     1      -0.215   5.206  20.813  0.00  0.00    -0.388 OA
ATOM     40  H   UNL     1      -1.012   5.170  21.380  0.00  0.00    +0.210 HD
ENDBRANCH  38  39
BRANCH  38  41
ATOM     41  C   UNL     1       1.795   3.911  20.404  0.00  0.00    +0.189 C 
BRANCH  41  42
ATOM     42  O   UNL     1       2.033   2.520  20.615  0.00  0.00    -0.392 OA
ATOM     43  H   UNL     1       2.473   2.163  19.821  0.00  0.00    +0.210 HD
ENDBRANCH  41  42
ENDBRANCH  38  41
ENDBRANCH  37  38
ENDBRANCH  35  37
ENDBRANCH  31  33
ENDBRANCH  30  31
ENDBRANCH  26  30
ENDBRANCH  25  28
ENDBRANCH   1  25
TORSDOF 18
