REMARK VINA RESULT:    -6.240      1.487      3.614
REMARK INTER + INTRA:         -13.676
REMARK INTER:                 -12.225
REMARK INTRA:                  -1.451
REMARK UNBOUND:                -2.511
REMARK  Name = lig_assembled_6.pdb
REMARK  17 active torsions:
REMARK  status: ('A' for Active; 'I' for Inactive)
REMARK    1  A    between atoms: _2  and  _10
REMARK    2  A    between atoms: _3  and  _13
REMARK    3  A    between atoms: _5  and  _21
REMARK    4  A    between atoms: _7  and  _8
REMARK    5  A    between atoms: _7  and  _21
REMARK    6  A    between atoms: _17  and  _37
REMARK    7  A    between atoms: _19  and  _25
REMARK    8  A    between atoms: _20  and  _24
REMARK    9  A    between atoms: _24  and  _25
REMARK   10  A    between atoms: _27  and  _28
REMARK   11  A    between atoms: _29  and  _30
REMARK   12  A    between atoms: _31  and  _33
REMARK   13  A    between atoms: _33  and  _34
REMARK   14  A    between atoms: _33  and  _35
REMARK   15  A    between atoms: _35  and  _36
REMARK   16  A    between atoms: _35  and  _37
REMARK   17  A    between atoms: _38  and  _40
REMARK                            x       y       z     vdW  Elec       q    Type
REMARK                         _______ _______ _______ _____ _____    ______ ____
ROOT
ATOM      1  C   UNL     1       2.922   3.178  33.236  0.00  0.00    +0.163 C 
ENDROOT
BRANCH   1   2
ATOM      2  O   UNL     1       2.788   1.929  33.932  0.00  0.00    -0.388 OA
ATOM      3  H   UNL     1       2.839   2.082  34.879  0.00  0.00    +0.210 HD
ENDBRANCH   1   2
BRANCH   1   4
ATOM      4  C   UNL     1       3.402   2.932  31.809  0.00  0.00    +0.141 C 
BRANCH   4   7
ATOM      5  C   UNL     1       1.786   2.967  29.940  0.00  0.00    +0.401 C 
ATOM      6  O   UNL     1       1.717   1.738  29.853  0.00  0.00    -0.226 OA
ATOM      7  N   UNL     1       2.553   3.610  30.821  0.00  0.00    -0.279 N 
ATOM      8  H   UNL     1       2.550   4.620  30.809  0.00  0.00    +0.152 HD
BRANCH   5   9
ATOM      9  O   UNL     1       1.009   3.771  29.049  0.00  0.00    -0.444 OA
BRANCH   9  10
ATOM     10  C   UNL     1       0.467   2.948  28.012  0.00  0.00    +0.292 C 
BRANCH  10  12
ATOM     11  N   UNL     1       2.289   3.935  26.658  0.00  0.00    -0.131 NA
ATOM     12  C   UNL     1       1.101   3.267  26.719  0.00  0.00    +0.121 A 
ATOM     13  C   UNL     1       0.682   2.978  25.441  0.00  0.00    +0.143 A 
ATOM     14  N   UNL     1       1.673   3.468  24.622  0.00  0.00    -0.220 N 
ATOM     15  N   UNL     1       2.626   4.061  25.381  0.00  0.00    -0.060 NA
BRANCH  14  16
ATOM     16  C   UNL     1       1.786   3.375  23.209  0.00  0.00    +0.067 A 
ATOM     17  C   UNL     1       1.790   4.532  22.415  0.00  0.00    +0.034 A 
ATOM     18  C   UNL     1       1.839   4.426  21.021  0.00  0.00    +0.086 A 
ATOM     19  C   UNL     1       1.886   3.162  20.420  0.00  0.00    +0.273 A 
ATOM     20  C   UNL     1       1.908   2.003  21.204  0.00  0.00    +0.086 A 
ATOM     21  C   UNL     1       1.860   2.112  22.598  0.00  0.00    +0.034 A 
BRANCH  19  22
ATOM     22  N   UNL     1       1.893   3.057  18.955  0.00  0.00    +0.080 N 
ATOM     23  O   UNL     1       1.257   3.906  18.314  0.00  0.00    +0.041 OA
ATOM     24  O   UNL     1       2.527   2.122  18.447  0.00  0.00    -0.576 OA
ENDBRANCH  19  22
ENDBRANCH  14  16
ENDBRANCH  10  12
ENDBRANCH   9  10
ENDBRANCH   5   9
ENDBRANCH   4   7
ENDBRANCH   1   4
BRANCH   1  25
ATOM     25  C   UNL     1       3.913   4.107  33.958  0.00  0.00    +0.175 C 
BRANCH  25  26
ATOM     26  C   UNL     1       5.345   3.550  33.942  0.00  0.00    +0.176 C 
ATOM     27  O   UNL     1       5.300   2.187  34.447  0.00  0.00    -0.332 OA
ATOM     28  C   UNL     1       6.568   1.454  34.406  0.00  0.00    +0.277 C 
ATOM     29  C   UNL     1       7.677   2.248  35.139  0.00  0.00    +0.110 C 
ATOM     30  C   UNL     1       7.742   3.712  34.658  0.00  0.00    +0.143 C 
ATOM     31  C   UNL     1       6.368   4.379  34.740  0.00  0.00    +0.133 C 
BRANCH  31  32
ATOM     32  N   UNL     1       6.424   5.745  34.198  0.00  0.00    -0.308 N 
ATOM     33  H   UNL     1       6.601   5.853  33.209  0.00  0.00    +0.149 HD
ATOM     34  C   UNL     1       6.257   6.852  34.926  0.00  0.00    +0.210 C 
ATOM     35  C   UNL     1       6.015   6.655  36.435  0.00  0.00    +0.109 C 
ATOM     36  O   UNL     1       6.295   7.984  34.442  0.00  0.00    -0.276 OA
ENDBRANCH  31  32
BRANCH  28  37
ATOM     37  C   UNL     1       7.001   1.191  32.948  0.00  0.00    +0.414 C 
ATOM     38  O   UNL     1       6.159   0.935  32.088  0.00  0.00    -0.240 OA
ATOM     39  O   UNL     1       8.190   1.235  32.632  0.00  0.00    -0.240 OA
ENDBRANCH  28  37
BRANCH  30  40
ATOM     40  O   UNL     1       8.668   4.443  35.462  0.00  0.00    -0.390 OA
ATOM     41  H   UNL     1       9.422   4.704  34.927  0.00  0.00    +0.210 HD
ENDBRANCH  30  40
BRANCH  28  42
ATOM     42  O   UNL     1       6.379   0.191  35.094  0.00  0.00    -0.343 OA
ATOM     43  C   UNL     1       5.080   0.020  35.715  0.00  0.00    +0.198 C 
ENDBRANCH  28  42
ENDBRANCH  25  26
BRANCH  25  44
ATOM     44  O   UNL     1       3.484   4.332  35.316  0.00  0.00    -0.387 OA
ATOM     45  H   UNL     1       4.090   3.897  35.920  0.00  0.00    +0.210 HD
ENDBRANCH  25  44
ENDBRANCH   1  25
TORSDOF 15
