REMARK VINA RESULT:    -5.739      9.225     19.624
REMARK INTER + INTRA:         -13.591
REMARK INTER:                 -11.742
REMARK INTRA:                  -1.849
REMARK UNBOUND:                -1.813
REMARK  Name = lig_assembled_33.pdb
REMARK  22 active torsions:
REMARK  status: ('A' for Active; 'I' for Inactive)
REMARK    1  A    between atoms: _2  and  _9
REMARK    2  A    between atoms: _4  and  _20
REMARK    3  A    between atoms: _5  and  _13
REMARK    4  A    between atoms: _5  and  _14
REMARK    5  A    between atoms: _6  and  _7
REMARK    6  A    between atoms: _6  and  _20
REMARK    7  A    between atoms: _9  and  _10
REMARK    8  A    between atoms: _10  and  _11
REMARK    9  A    between atoms: _11  and  _12
REMARK   10  A    between atoms: _12  and  _13
REMARK   11  A    between atoms: _16  and  _36
REMARK   12  A    between atoms: _18  and  _24
REMARK   13  A    between atoms: _19  and  _23
REMARK   14  A    between atoms: _23  and  _24
REMARK   15  A    between atoms: _26  and  _27
REMARK   16  A    between atoms: _28  and  _29
REMARK   17  A    between atoms: _30  and  _32
REMARK   18  A    between atoms: _32  and  _33
REMARK   19  A    between atoms: _32  and  _34
REMARK   20  A    between atoms: _34  and  _35
REMARK   21  A    between atoms: _34  and  _36
REMARK   22  A    between atoms: _37  and  _39
REMARK                            x       y       z     vdW  Elec       q    Type
REMARK                         _______ _______ _______ _____ _____    ______ ____
ROOT
ATOM      1  C   UNL     1      -4.004   9.193  13.103  0.00  0.00    +0.163 C 
ENDROOT
BRANCH   1   2
ATOM      2  O   UNL     1      -5.202   9.905  12.751  0.00  0.00    -0.388 OA
ATOM      3  H   UNL     1      -5.097  10.835  12.967  0.00  0.00    +0.210 HD
ENDBRANCH   1   2
BRANCH   1   4
ATOM      4  C   UNL     1      -2.887  10.166  13.517  0.00  0.00    +0.175 C 
BRANCH   4   5
ATOM      5  C   UNL     1      -2.905  11.455  12.683  0.00  0.00    +0.176 C 
ATOM      6  O   UNL     1      -1.570  11.658  12.144  0.00  0.00    -0.332 OA
ATOM      7  C   UNL     1      -1.422  12.793  11.228  0.00  0.00    +0.277 C 
ATOM      8  C   UNL     1      -1.920  14.097  11.898  0.00  0.00    +0.110 C 
ATOM      9  C   UNL     1      -3.323  13.921  12.514  0.00  0.00    +0.143 C 
ATOM     10  C   UNL     1      -3.365  12.711  13.447  0.00  0.00    +0.133 C 
BRANCH  10  11
ATOM     11  N   UNL     1      -4.729  12.502  13.960  0.00  0.00    -0.308 N 
ATOM     12  H   UNL     1      -5.470  12.368  13.287  0.00  0.00    +0.149 HD
ATOM     13  C   UNL     1      -5.050  12.479  15.256  0.00  0.00    +0.210 C 
ATOM     14  C   UNL     1      -3.902  12.712  16.256  0.00  0.00    +0.109 C 
ATOM     15  O   UNL     1      -6.199  12.287  15.657  0.00  0.00    -0.276 OA
ENDBRANCH  10  11
BRANCH   7  16
ATOM     16  C   UNL     1      -2.210  12.550   9.924  0.00  0.00    +0.414 C 
ATOM     17  O   UNL     1      -2.570  13.501   9.231  0.00  0.00    -0.240 OA
ATOM     18  O   UNL     1      -2.485  11.405   9.565  0.00  0.00    -0.240 OA
ENDBRANCH   7  16
BRANCH   9  19
ATOM     19  O   UNL     1      -3.678  15.094  13.249  0.00  0.00    -0.390 OA
ATOM     20  H   UNL     1      -4.634  15.155  13.313  0.00  0.00    +0.210 HD
ENDBRANCH   9  19
BRANCH   7  21
ATOM     21  O   UNL     1      -0.011  12.944  10.925  0.00  0.00    -0.343 OA
ATOM     22  C   UNL     1       0.497  14.297  11.034  0.00  0.00    +0.198 C 
ENDBRANCH   7  21
ENDBRANCH   4   5
BRANCH   4  23
ATOM     23  O   UNL     1      -1.602   9.522  13.408  0.00  0.00    -0.387 OA
ATOM     24  H   UNL     1      -1.707   8.575  13.528  0.00  0.00    +0.210 HD
ENDBRANCH   4  23
ENDBRANCH   1   4
BRANCH   1  25
ATOM     25  C   UNL     1      -4.289   8.227  14.249  0.00  0.00    +0.141 C 
BRANCH  25  28
ATOM     26  C   UNL     1      -2.824   6.823  15.658  0.00  0.00    +0.401 C 
ATOM     27  O   UNL     1      -3.373   7.144  16.714  0.00  0.00    -0.226 OA
ATOM     28  N   UNL     1      -3.183   7.286  14.460  0.00  0.00    -0.279 N 
ATOM     29  H   UNL     1      -2.664   6.971  13.652  0.00  0.00    +0.152 HD
BRANCH  26  30
ATOM     30  O   UNL     1      -1.729   5.903  15.696  0.00  0.00    -0.444 OA
BRANCH  30  31
ATOM     31  C   UNL     1      -0.814   6.292  16.724  0.00  0.00    +0.292 C 
BRANCH  31  33
ATOM     32  N   UNL     1       0.777   4.399  16.694  0.00  0.00    -0.131 NA
ATOM     33  C   UNL     1      -0.201   5.103  17.345  0.00  0.00    +0.120 A 
ATOM     34  C   UNL     1      -0.450   4.508  18.563  0.00  0.00    +0.137 A 
ATOM     35  N   UNL     1       0.414   3.456  18.594  0.00  0.00    -0.251 N 
ATOM     36  N   UNL     1       1.137   3.382  17.464  0.00  0.00    -0.065 NA
BRANCH  35  37
ATOM     37  C   UNL     1       0.600   2.478  19.646  0.00  0.00    +0.145 C 
BRANCH  37  38
ATOM     38  C   UNL     1       1.886   2.718  20.433  0.00  0.00    +0.023 C 
BRANCH  38  39
ATOM     39  C   UNL     1       1.622   3.201  21.861  0.00  0.00    +0.002 C 
BRANCH  39  40
ATOM     40  C   UNL     1       1.612   4.731  21.900  0.00  0.00    +0.011 C 
BRANCH  40  41
ATOM     41  C   UNL     1       1.936   5.291  23.283  0.00  0.00    +0.120 C 
BRANCH  41  42
ATOM     42  C   UNL     1       0.778   5.102  24.237  0.00  0.00    +0.305 C 
ATOM     43  O   UNL     1      -0.399   5.270  23.962  0.00  0.00    -0.251 OA
BRANCH  42  44
ATOM     44  O   UNL     1       1.183   4.709  25.467  0.00  0.00    -0.481 OA
ATOM     45  H   UNL     1       1.686   3.875  25.469  0.00  0.00    +0.295 HD
ENDBRANCH  42  44
ENDBRANCH  41  42
ENDBRANCH  40  41
ENDBRANCH  39  40
ENDBRANCH  38  39
ENDBRANCH  37  38
ENDBRANCH  35  37
ENDBRANCH  31  33
ENDBRANCH  30  31
ENDBRANCH  26  30
ENDBRANCH  25  28
ENDBRANCH   1  25
TORSDOF 20
