REMARK VINA RESULT:    -6.614     15.055     17.530
REMARK INTER + INTRA:         -14.793
REMARK INTER:                 -12.032
REMARK INTRA:                  -2.761
REMARK UNBOUND:                -2.378
REMARK  Name = lig_assembled_68.pdb
REMARK  19 active torsions:
REMARK  status: ('A' for Active; 'I' for Inactive)
REMARK    1  A    between atoms: _2  and  _9
REMARK    2  A    between atoms: _4  and  _21
REMARK    3  A    between atoms: _6  and  _7
REMARK    4  A    between atoms: _6  and  _21
REMARK    5  A    between atoms: _9  and  _10
REMARK    6  A    between atoms: _10  and  _11
REMARK    7  A    between atoms: _10  and  _16
REMARK    8  A    between atoms: _17  and  _37
REMARK    9  A    between atoms: _19  and  _25
REMARK   10  A    between atoms: _20  and  _24
REMARK   11  A    between atoms: _24  and  _25
REMARK   12  A    between atoms: _27  and  _28
REMARK   13  A    between atoms: _29  and  _30
REMARK   14  A    between atoms: _31  and  _33
REMARK   15  A    between atoms: _33  and  _34
REMARK   16  A    between atoms: _33  and  _35
REMARK   17  A    between atoms: _35  and  _36
REMARK   18  A    between atoms: _35  and  _37
REMARK   19  A    between atoms: _38  and  _40
REMARK                            x       y       z     vdW  Elec       q    Type
REMARK                         _______ _______ _______ _____ _____    ______ ____
ROOT
ATOM      1  C   UNL     1      19.503  -0.756  22.695  0.00  0.00    +0.163 C 
ENDROOT
BRANCH   1   2
ATOM      2  O   UNL     1      19.654   0.452  23.458  0.00  0.00    -0.388 OA
ATOM      3  H   UNL     1      20.553   0.511  23.790  0.00  0.00    +0.210 HD
ENDBRANCH   1   2
BRANCH   1   4
ATOM      4  C   UNL     1      18.844  -1.861  23.539  0.00  0.00    +0.175 C 
BRANCH   4   5
ATOM      5  C   UNL     1      18.120  -1.295  24.769  0.00  0.00    +0.176 C 
ATOM      6  O   UNL     1      19.116  -1.050  25.800  0.00  0.00    -0.332 OA
ATOM      7  C   UNL     1      18.620  -0.406  27.020  0.00  0.00    +0.277 C 
ATOM      8  C   UNL     1      17.437  -1.210  27.614  0.00  0.00    +0.110 C 
ATOM      9  C   UNL     1      16.367  -1.522  26.547  0.00  0.00    +0.143 C 
ATOM     10  C   UNL     1      16.993  -2.188  25.321  0.00  0.00    +0.133 C 
BRANCH  10  11
ATOM     11  N   UNL     1      15.979  -2.401  24.276  0.00  0.00    -0.308 N 
ATOM     12  H   UNL     1      15.428  -1.606  23.985  0.00  0.00    +0.149 HD
ATOM     13  C   UNL     1      15.739  -3.576  23.689  0.00  0.00    +0.210 C 
ATOM     14  C   UNL     1      16.577  -4.774  24.174  0.00  0.00    +0.109 C 
ATOM     15  O   UNL     1      14.893  -3.722  22.806  0.00  0.00    -0.276 OA
ENDBRANCH  10  11
BRANCH   7  16
ATOM     16  C   UNL     1      18.165   1.040  26.729  0.00  0.00    +0.414 C 
ATOM     17  O   UNL     1      17.133   1.479  27.234  0.00  0.00    -0.240 OA
ATOM     18  O   UNL     1      18.831   1.766  25.989  0.00  0.00    -0.240 OA
ENDBRANCH   7  16
BRANCH   7  19
ATOM     19  O   UNL     1      19.698  -0.393  27.991  0.00  0.00    -0.343 OA
ATOM     20  C   UNL     1      19.430  -1.126  29.213  0.00  0.00    +0.198 C 
ENDBRANCH   7  19
BRANCH   9  21
ATOM     21  O   UNL     1      15.375  -2.389  27.098  0.00  0.00    -0.390 OA
ATOM     22  H   UNL     1      15.050  -2.980  26.415  0.00  0.00    +0.210 HD
ENDBRANCH   9  21
ENDBRANCH   4   5
BRANCH   4  23
ATOM     23  O   UNL     1      19.831  -2.831  23.945  0.00  0.00    -0.387 OA
ATOM     24  H   UNL     1      19.687  -3.653  23.470  0.00  0.00    +0.210 HD
ENDBRANCH   4  23
ENDBRANCH   1   4
BRANCH   1  25
ATOM     25  C   UNL     1      18.656  -0.488  21.455  0.00  0.00    +0.141 C 
BRANCH  25  28
ATOM     26  C   UNL     1      17.706   1.692  20.786  0.00  0.00    +0.401 C 
ATOM     27  O   UNL     1      18.391   1.783  19.765  0.00  0.00    -0.226 OA
ATOM     28  N   UNL     1      17.770   0.668  21.637  0.00  0.00    -0.279 N 
ATOM     29  H   UNL     1      17.175   0.688  22.454  0.00  0.00    +0.152 HD
BRANCH  26  30
ATOM     30  O   UNL     1      16.784   2.739  21.100  0.00  0.00    -0.444 OA
BRANCH  30  31
ATOM     31  C   UNL     1      16.692   2.886  22.519  0.00  0.00    +0.292 C 
BRANCH  31  33
ATOM     32  N   UNL     1      17.076   5.332  22.394  0.00  0.00    -0.131 NA
ATOM     33  C   UNL     1      17.374   4.117  22.956  0.00  0.00    +0.120 A 
ATOM     34  C   UNL     1      18.352   4.290  23.907  0.00  0.00    +0.137 A 
ATOM     35  N   UNL     1      18.600   5.632  23.883  0.00  0.00    -0.249 N 
ATOM     36  N   UNL     1      17.840   6.254  22.966  0.00  0.00    -0.065 NA
BRANCH  35  37
ATOM     37  C   UNL     1      19.607   6.360  24.626  0.00  0.00    +0.181 C 
BRANCH  37  38
ATOM     38  C   UNL     1      18.995   7.225  25.736  0.00  0.00    +0.166 C 
BRANCH  38  39
ATOM     39  C   UNL     1      18.999   6.574  27.112  0.00  0.00    -0.017 A 
ATOM     40  C   UNL     1      18.927   5.171  27.200  0.00  0.00    +0.006 A 
ATOM     41  C   UNL     1      18.954   4.532  28.441  0.00  0.00    +0.000 A 
ATOM     42  C   UNL     1      19.060   5.279  29.610  0.00  0.00    +0.000 A 
ATOM     43  C   UNL     1      19.151   6.664  29.541  0.00  0.00    +0.000 A 
ATOM     44  C   UNL     1      19.125   7.309  28.301  0.00  0.00    +0.006 A 
ENDBRANCH  38  39
BRANCH  38  45
ATOM     45  O   UNL     1      17.638   7.528  25.396  0.00  0.00    -0.385 OA
ATOM     46  H   UNL     1      17.252   8.049  26.119  0.00  0.00    +0.210 HD
ENDBRANCH  38  45
ENDBRANCH  37  38
ENDBRANCH  35  37
ENDBRANCH  31  33
ENDBRANCH  30  31
ENDBRANCH  26  30
ENDBRANCH  25  28
ENDBRANCH   1  25
TORSDOF 17
