REMARK VINA RESULT:    -6.692     11.949     15.872
REMARK INTER + INTRA:         -14.502
REMARK INTER:                 -11.687
REMARK INTRA:                  -2.815
REMARK UNBOUND:                -2.138
REMARK  Name = lig_assembled_92.pdb
REMARK  18 active torsions:
REMARK  status: ('A' for Active; 'I' for Inactive)
REMARK    1  A    between atoms: _2  and  _11
REMARK    2  A    between atoms: _3  and  _46
REMARK    3  A    between atoms: _6  and  _25
REMARK    4  A    between atoms: _8  and  _9
REMARK    5  A    between atoms: _8  and  _25
REMARK    6  A    between atoms: _14  and  _46
REMARK    7  A    between atoms: _21  and  _41
REMARK    8  A    between atoms: _23  and  _29
REMARK    9  A    between atoms: _24  and  _28
REMARK   10  A    between atoms: _28  and  _29
REMARK   11  A    between atoms: _31  and  _32
REMARK   12  A    between atoms: _33  and  _34
REMARK   13  A    between atoms: _35  and  _37
REMARK   14  A    between atoms: _37  and  _38
REMARK   15  A    between atoms: _37  and  _39
REMARK   16  A    between atoms: _39  and  _40
REMARK   17  A    between atoms: _39  and  _41
REMARK   18  A    between atoms: _42  and  _44
REMARK                            x       y       z     vdW  Elec       q    Type
REMARK                         _______ _______ _______ _____ _____    ______ ____
ROOT
ATOM      1  C   UNL     1       9.026   2.227  36.286  0.00  0.00    +0.401 C 
ATOM      2  O   UNL     1       7.987   1.744  36.742  0.00  0.00    -0.226 OA
ATOM      3  N   UNL     1       9.198   2.550  35.004  0.00  0.00    -0.279 N 
ATOM      4  H   UNL     1      10.084   2.950  34.727  0.00  0.00    +0.152 HD
ENDROOT
BRANCH   3   5
ATOM      5  C   UNL     1       8.173   2.356  33.971  0.00  0.00    +0.141 C 
BRANCH   5   6
ATOM      6  C   UNL     1       7.564   3.679  33.519  0.00  0.00    +0.163 C 
BRANCH   6   7
ATOM      7  O   UNL     1       7.378   3.674  32.094  0.00  0.00    -0.388 OA
ATOM      8  H   UNL     1       6.561   4.129  31.876  0.00  0.00    +0.210 HD
ENDBRANCH   6   7
BRANCH   6   9
ATOM      9  C   UNL     1       6.228   3.906  34.248  0.00  0.00    +0.175 C 
BRANCH   9  10
ATOM     10  C   UNL     1       6.296   5.088  35.225  0.00  0.00    +0.176 C 
ATOM     11  O   UNL     1       7.633   5.120  35.797  0.00  0.00    -0.332 OA
ATOM     12  C   UNL     1       7.918   6.254  36.681  0.00  0.00    +0.277 C 
ATOM     13  C   UNL     1       6.863   6.338  37.811  0.00  0.00    +0.110 C 
ATOM     14  C   UNL     1       5.425   6.276  37.253  0.00  0.00    +0.143 C 
ATOM     15  C   UNL     1       5.240   5.060  36.345  0.00  0.00    +0.133 C 
BRANCH  15  16
ATOM     16  N   UNL     1       3.894   5.060  35.752  0.00  0.00    -0.308 N 
ATOM     17  H   UNL     1       3.689   5.753  35.046  0.00  0.00    +0.149 HD
ATOM     18  C   UNL     1       2.924   4.203  36.085  0.00  0.00    +0.210 C 
ATOM     19  C   UNL     1       3.259   3.175  37.182  0.00  0.00    +0.109 C 
ATOM     20  O   UNL     1       1.810   4.217  35.560  0.00  0.00    -0.276 OA
ENDBRANCH  15  16
BRANCH  12  21
ATOM     21  C   UNL     1       7.929   7.577  35.887  0.00  0.00    +0.414 C 
ATOM     22  O   UNL     1       8.089   8.649  36.469  0.00  0.00    -0.240 OA
ATOM     23  O   UNL     1       7.777   7.572  34.664  0.00  0.00    -0.240 OA
ENDBRANCH  12  21
BRANCH  14  24
ATOM     24  O   UNL     1       4.492   6.204  38.333  0.00  0.00    -0.390 OA
ATOM     25  H   UNL     1       4.310   7.088  38.659  0.00  0.00    +0.210 HD
ENDBRANCH  14  24
BRANCH  12  26
ATOM     26  O   UNL     1       9.219   6.036  37.285  0.00  0.00    -0.343 OA
ATOM     27  C   UNL     1       9.263   6.212  38.724  0.00  0.00    +0.198 C 
ENDBRANCH  12  26
ENDBRANCH   9  10
BRANCH   9  28
ATOM     28  O   UNL     1       5.834   2.707  34.945  0.00  0.00    -0.387 OA
ATOM     29  H   UNL     1       6.410   2.572  35.700  0.00  0.00    +0.210 HD
ENDBRANCH   9  28
ENDBRANCH   6   9
ENDBRANCH   5   6
ENDBRANCH   3   5
BRANCH   1  30
ATOM     30  O   UNL     1      10.125   2.469  37.169  0.00  0.00    -0.444 OA
BRANCH  30  31
ATOM     31  C   UNL     1      11.253   1.695  36.751  0.00  0.00    +0.292 C 
BRANCH  31  33
ATOM     32  N   UNL     1      12.448   2.424  34.705  0.00  0.00    -0.131 NA
ATOM     33  C   UNL     1      12.228   2.548  36.046  0.00  0.00    +0.121 A 
ATOM     34  C   UNL     1      13.029   3.550  36.541  0.00  0.00    +0.143 A 
ATOM     35  N   UNL     1      13.709   4.036  35.448  0.00  0.00    -0.220 N 
ATOM     36  N   UNL     1      13.354   3.327  34.349  0.00  0.00    -0.060 NA
BRANCH  35  37
ATOM     37  C   UNL     1      14.618   5.122  35.388  0.00  0.00    +0.067 A 
ATOM     38  C   UNL     1      14.812   5.948  36.507  0.00  0.00    +0.030 A 
ATOM     39  C   UNL     1      15.662   7.050  36.426  0.00  0.00    +0.031 A 
ATOM     40  C   UNL     1      16.331   7.326  35.232  0.00  0.00    +0.109 A 
ATOM     41  C   UNL     1      16.157   6.508  34.113  0.00  0.00    +0.031 A 
ATOM     42  C   UNL     1      15.306   5.399  34.195  0.00  0.00    +0.030 A 
BRANCH  40  43
ATOM     43  S   UNL     1      17.282   8.819  35.121  0.00  0.00    +0.074 S 
ATOM     44  O   UNL     1      17.059   9.570  36.341  0.00  0.00    -0.150 OA
ATOM     45  O   UNL     1      18.625   8.481  34.714  0.00  0.00    -0.150 OA
BRANCH  43  46
ATOM     46  N   UNL     1      16.494   9.698  33.914  0.00  0.00    -0.194 N 
ATOM     47  H   UNL     1      16.217  10.579  34.340  0.00  0.00    +0.176 HD
ATOM     48  C   UNL     1      17.294   9.857  32.764  0.00  0.00    +0.177 A 
ATOM     49  S   UNL     1      18.207  11.270  32.463  0.00  0.00    -0.059 S 
ATOM     50  C   UNL     1      18.658  10.625  30.937  0.00  0.00    +0.068 A 
ATOM     51  C   UNL     1      18.017   9.420  30.741  0.00  0.00    +0.120 A 
ATOM     52  N   UNL     1      17.260   8.966  31.805  0.00  0.00    -0.232 NA
ENDBRANCH  43  46
ENDBRANCH  40  43
ENDBRANCH  35  37
ENDBRANCH  31  33
ENDBRANCH  30  31
ENDBRANCH   1  30
TORSDOF 16
