REMARK VINA RESULT:    -6.446      1.723      2.373
REMARK INTER + INTRA:         -13.779
REMARK INTER:                 -11.910
REMARK INTRA:                  -1.869
REMARK UNBOUND:                -2.246
REMARK  Name = lig_assembled_5.pdb
REMARK  18 active torsions:
REMARK  status: ('A' for Active; 'I' for Inactive)
REMARK    1  A    between atoms: _2  and  _9
REMARK    2  A    between atoms: _4  and  _20
REMARK    3  A    between atoms: _6  and  _7
REMARK    4  A    between atoms: _6  and  _20
REMARK    5  A    between atoms: _12  and  _15
REMARK    6  A    between atoms: _13  and  _15
REMARK    7  A    between atoms: _16  and  _36
REMARK    8  A    between atoms: _18  and  _24
REMARK    9  A    between atoms: _19  and  _23
REMARK   10  A    between atoms: _23  and  _24
REMARK   11  A    between atoms: _26  and  _27
REMARK   12  A    between atoms: _28  and  _29
REMARK   13  A    between atoms: _30  and  _32
REMARK   14  A    between atoms: _32  and  _33
REMARK   15  A    between atoms: _32  and  _34
REMARK   16  A    between atoms: _34  and  _35
REMARK   17  A    between atoms: _34  and  _36
REMARK   18  A    between atoms: _37  and  _39
REMARK                            x       y       z     vdW  Elec       q    Type
REMARK                         _______ _______ _______ _____ _____    ______ ____
ROOT
ATOM      1  C   UNL     1       3.158   3.300  32.841  0.00  0.00    +0.163 C 
ENDROOT
BRANCH   1   2
ATOM      2  O   UNL     1       3.573   4.569  32.309  0.00  0.00    -0.388 OA
ATOM      3  H   UNL     1       4.468   4.761  32.600  0.00  0.00    +0.210 HD
ENDBRANCH   1   2
BRANCH   1   4
ATOM      4  C   UNL     1       1.641   3.168  32.753  0.00  0.00    +0.141 C 
BRANCH   4   7
ATOM      5  C   UNL     1      -0.097   4.267  31.383  0.00  0.00    +0.401 C 
ATOM      6  O   UNL     1      -0.906   4.353  32.310  0.00  0.00    -0.226 OA
ATOM      7  N   UNL     1       1.115   3.723  31.500  0.00  0.00    -0.279 N 
ATOM      8  H   UNL     1       1.704   3.690  30.680  0.00  0.00    +0.152 HD
BRANCH   5   9
ATOM      9  O   UNL     1      -0.459   4.772  30.096  0.00  0.00    -0.444 OA
BRANCH   9  10
ATOM     10  C   UNL     1      -0.697   3.680  29.204  0.00  0.00    +0.292 C 
BRANCH  10  12
ATOM     11  N   UNL     1       1.561   3.680  28.190  0.00  0.00    -0.131 NA
ATOM     12  C   UNL     1       0.207   3.763  28.040  0.00  0.00    +0.121 A 
ATOM     13  C   UNL     1      -0.089   3.916  26.706  0.00  0.00    +0.143 A 
ATOM     14  N   UNL     1       1.130   3.894  26.066  0.00  0.00    -0.220 N 
ATOM     15  N   UNL     1       2.115   3.768  26.989  0.00  0.00    -0.060 NA
BRANCH  14  16
ATOM     16  C   UNL     1       1.403   3.952  24.674  0.00  0.00    +0.067 A 
ATOM     17  C   UNL     1       1.424   5.178  23.999  0.00  0.00    +0.031 A 
ATOM     18  C   UNL     1       1.635   5.209  22.618  0.00  0.00    +0.048 A 
ATOM     19  C   UNL     1       1.848   4.031  21.899  0.00  0.00    +0.120 A 
ATOM     20  C   UNL     1       1.845   2.810  22.572  0.00  0.00    +0.048 A 
ATOM     21  C   UNL     1       1.623   2.768  23.955  0.00  0.00    +0.031 A 
BRANCH  19  22
ATOM     22  O   UNL     1       1.979   4.198  20.548  0.00  0.00    -0.495 OA
ATOM     23  C   UNL     1       0.912   3.710  19.746  0.00  0.00    +0.277 C 
ENDBRANCH  19  22
ENDBRANCH  14  16
ENDBRANCH  10  12
ENDBRANCH   9  10
ENDBRANCH   5   9
ENDBRANCH   4   7
ENDBRANCH   1   4
BRANCH   1  24
ATOM     24  C   UNL     1       3.604   3.144  34.305  0.00  0.00    +0.175 C 
BRANCH  24  25
ATOM     25  C   UNL     1       5.129   3.232  34.457  0.00  0.00    +0.176 C 
ATOM     26  O   UNL     1       5.523   4.613  34.226  0.00  0.00    -0.332 OA
ATOM     27  C   UNL     1       6.943   4.910  34.434  0.00  0.00    +0.277 C 
ATOM     28  C   UNL     1       7.825   3.965  33.581  0.00  0.00    +0.110 C 
ATOM     29  C   UNL     1       7.422   2.487  33.769  0.00  0.00    +0.143 C 
ATOM     30  C   UNL     1       5.924   2.292  33.532  0.00  0.00    +0.133 C 
BRANCH  30  31
ATOM     31  N   UNL     1       5.538   0.898  33.798  0.00  0.00    -0.308 N 
ATOM     32  H   UNL     1       5.590   0.568  34.752  0.00  0.00    +0.149 HD
ATOM     33  C   UNL     1       5.123   0.039  32.862  0.00  0.00    +0.210 C 
ATOM     34  C   UNL     1       5.080   0.564  31.415  0.00  0.00    +0.109 C 
ATOM     35  O   UNL     1       4.792  -1.119  33.117  0.00  0.00    -0.276 OA
ENDBRANCH  30  31
BRANCH  27  36
ATOM     36  C   UNL     1       7.321   4.763  35.923  0.00  0.00    +0.414 C 
ATOM     37  O   UNL     1       6.449   4.797  36.790  0.00  0.00    -0.240 OA
ATOM     38  O   UNL     1       8.497   4.611  36.256  0.00  0.00    -0.240 OA
ENDBRANCH  27  36
BRANCH  27  39
ATOM     39  O   UNL     1       7.184   6.274  34.002  0.00  0.00    -0.343 OA
ATOM     40  C   UNL     1       6.160   7.227  34.383  0.00  0.00    +0.198 C 
ENDBRANCH  27  39
BRANCH  29  41
ATOM     41  O   UNL     1       8.154   1.669  32.855  0.00  0.00    -0.390 OA
ATOM     42  H   UNL     1       8.635   0.996  33.342  0.00  0.00    +0.210 HD
ENDBRANCH  29  41
ENDBRANCH  24  25
BRANCH  24  43
ATOM     43  O   UNL     1       3.122   1.895  34.841  0.00  0.00    -0.387 OA
ATOM     44  H   UNL     1       2.791   2.035  35.731  0.00  0.00    +0.210 HD
ENDBRANCH  24  43
ENDBRANCH   1  24
TORSDOF 15
