REMARK VINA RESULT:    -5.657     14.631     16.102
REMARK INTER + INTRA:         -15.989
REMARK INTER:                 -13.476
REMARK INTRA:                  -2.513
REMARK UNBOUND:                -2.725
REMARK  Name = lig_assembled_30.pdb
REMARK  27 active torsions:
REMARK  status: ('A' for Active; 'I' for Inactive)
REMARK    1  A    between atoms: _2  and  _9
REMARK    2  A    between atoms: _4  and  _25
REMARK    3  A    between atoms: _5  and  _18
REMARK    4  A    between atoms: _5  and  _19
REMARK    5  A    between atoms: _6  and  _7
REMARK    6  A    between atoms: _6  and  _25
REMARK    7  A    between atoms: _9  and  _10
REMARK    8  A    between atoms: _10  and  _11
REMARK    9  A    between atoms: _11  and  _12
REMARK   10  A    between atoms: _12  and  _13
REMARK   11  A    between atoms: _13  and  _14
REMARK   12  A    between atoms: _14  and  _15
REMARK   13  A    between atoms: _15  and  _16
REMARK   14  A    between atoms: _16  and  _17
REMARK   15  A    between atoms: _17  and  _18
REMARK   16  A    between atoms: _21  and  _41
REMARK   17  A    between atoms: _23  and  _29
REMARK   18  A    between atoms: _24  and  _28
REMARK   19  A    between atoms: _28  and  _29
REMARK   20  A    between atoms: _31  and  _32
REMARK   21  A    between atoms: _33  and  _34
REMARK   22  A    between atoms: _35  and  _37
REMARK   23  A    between atoms: _37  and  _38
REMARK   24  A    between atoms: _37  and  _39
REMARK   25  A    between atoms: _39  and  _40
REMARK   26  A    between atoms: _39  and  _41
REMARK   27  A    between atoms: _42  and  _44
REMARK                            x       y       z     vdW  Elec       q    Type
REMARK                         _______ _______ _______ _____ _____    ______ ____
ROOT
ATOM      1  C   UNL     1       0.504   1.627  30.736  0.00  0.00    +0.401 C 
ATOM      2  O   UNL     1       0.085   0.749  31.494  0.00  0.00    -0.226 OA
ATOM      3  N   UNL     1       1.226   2.675  31.135  0.00  0.00    -0.279 N 
ATOM      4  H   UNL     1       1.533   3.337  30.436  0.00  0.00    +0.152 HD
ENDROOT
BRANCH   1   5
ATOM      5  O   UNL     1       0.215   1.534  29.338  0.00  0.00    -0.444 OA
BRANCH   5   6
ATOM      6  C   UNL     1      -0.155   2.822  28.840  0.00  0.00    +0.292 C 
BRANCH   6   8
ATOM      7  N   UNL     1       2.060   3.624  28.081  0.00  0.00    -0.131 NA
ATOM      8  C   UNL     1       0.777   3.248  27.781  0.00  0.00    +0.120 A 
ATOM      9  C   UNL     1       0.583   3.353  26.421  0.00  0.00    +0.137 A 
ATOM     10  N   UNL     1       1.783   3.797  25.955  0.00  0.00    -0.251 N 
ATOM     11  N   UNL     1       2.668   3.961  26.951  0.00  0.00    -0.065 NA
BRANCH  10  12
ATOM     12  C   UNL     1       2.141   4.124  24.592  0.00  0.00    +0.145 C 
BRANCH  12  13
ATOM     13  C   UNL     1       0.943   4.670  23.822  0.00  0.00    +0.023 C 
BRANCH  13  14
ATOM     14  C   UNL     1       1.364   5.380  22.538  0.00  0.00    +0.002 C 
BRANCH  14  15
ATOM     15  C   UNL     1       1.878   4.365  21.518  0.00  0.00    +0.000 C 
BRANCH  15  16
ATOM     16  C   UNL     1       0.900   3.209  21.325  0.00  0.00    +0.000 C 
BRANCH  16  17
ATOM     17  C   UNL     1       1.562   2.060  20.564  0.00  0.00    +0.000 C 
BRANCH  17  18
ATOM     18  C   UNL     1       2.306   2.577  19.335  0.00  0.00    +0.000 C 
BRANCH  18  19
ATOM     19  C   UNL     1       1.887   1.833  18.067  0.00  0.00    +0.001 C 
BRANCH  19  20
ATOM     20  C   UNL     1       0.714   2.545  17.394  0.00  0.00    +0.011 C 
BRANCH  20  21
ATOM     21  C   UNL     1       1.037   4.003  17.078  0.00  0.00    +0.120 C 
BRANCH  21  22
ATOM     22  C   UNL     1      -0.123   4.912  17.414  0.00  0.00    +0.305 C 
ATOM     23  O   UNL     1      -0.672   4.987  18.503  0.00  0.00    -0.251 OA
BRANCH  22  24
ATOM     24  O   UNL     1      -0.511   5.663  16.359  0.00  0.00    -0.481 OA
ATOM     25  H   UNL     1       0.086   5.598  15.591  0.00  0.00    +0.295 HD
ENDBRANCH  22  24
ENDBRANCH  21  22
ENDBRANCH  20  21
ENDBRANCH  19  20
ENDBRANCH  18  19
ENDBRANCH  17  18
ENDBRANCH  16  17
ENDBRANCH  15  16
ENDBRANCH  14  15
ENDBRANCH  13  14
ENDBRANCH  12  13
ENDBRANCH  10  12
ENDBRANCH   6   8
ENDBRANCH   5   6
ENDBRANCH   1   5
BRANCH   3  26
ATOM     26  C   UNL     1       1.600   2.921  32.533  0.00  0.00    +0.141 C 
BRANCH  26  27
ATOM     27  C   UNL     1       3.069   3.305  32.670  0.00  0.00    +0.163 C 
BRANCH  27  28
ATOM     28  O   UNL     1       3.284   4.624  32.141  0.00  0.00    -0.388 OA
ATOM     29  H   UNL     1       2.456   4.971  31.799  0.00  0.00    +0.210 HD
ENDBRANCH  27  28
BRANCH  27  30
ATOM     30  C   UNL     1       3.485   3.231  34.149  0.00  0.00    +0.175 C 
BRANCH  30  31
ATOM     31  C   UNL     1       5.008   3.309  34.326  0.00  0.00    +0.176 C 
ATOM     32  O   UNL     1       5.417   4.683  34.086  0.00  0.00    -0.332 OA
ATOM     33  C   UNL     1       6.836   4.971  34.315  0.00  0.00    +0.277 C 
ATOM     34  C   UNL     1       7.724   4.009  33.488  0.00  0.00    +0.110 C 
ATOM     35  C   UNL     1       7.306   2.537  33.687  0.00  0.00    +0.143 C 
ATOM     36  C   UNL     1       5.811   2.351  33.426  0.00  0.00    +0.133 C 
BRANCH  36  37
ATOM     37  N   UNL     1       5.408   0.963  33.703  0.00  0.00    -0.308 N 
ATOM     38  H   UNL     1       5.453   0.641  34.659  0.00  0.00    +0.149 HD
ATOM     39  C   UNL     1       4.988   0.102  32.773  0.00  0.00    +0.210 C 
ATOM     40  C   UNL     1       4.956   0.615  31.321  0.00  0.00    +0.109 C 
ATOM     41  O   UNL     1       4.643  -1.051  33.036  0.00  0.00    -0.276 OA
ENDBRANCH  36  37
BRANCH  33  42
ATOM     42  C   UNL     1       7.187   4.839  35.811  0.00  0.00    +0.414 C 
ATOM     43  O   UNL     1       8.362   4.751  36.167  0.00  0.00    -0.240 OA
ATOM     44  O   UNL     1       6.297   4.821  36.662  0.00  0.00    -0.240 OA
ENDBRANCH  33  42
BRANCH  35  45
ATOM     45  O   UNL     1       8.046   1.701  32.796  0.00  0.00    -0.390 OA
ATOM     46  H   UNL     1       8.959   1.998  32.761  0.00  0.00    +0.210 HD
ENDBRANCH  35  45
BRANCH  33  47
ATOM     47  O   UNL     1       7.096   6.328  33.870  0.00  0.00    -0.343 OA
ATOM     48  C   UNL     1       6.168   7.324  34.370  0.00  0.00    +0.198 C 
ENDBRANCH  33  47
ENDBRANCH  30  31
BRANCH  30  49
ATOM     49  O   UNL     1       2.976   2.023  34.748  0.00  0.00    -0.387 OA
ATOM     50  H   UNL     1       2.251   2.240  35.340  0.00  0.00    +0.210 HD
ENDBRANCH  30  49
ENDBRANCH  27  30
ENDBRANCH  26  27
ENDBRANCH   3  26
TORSDOF 25
