REMARK VINA RESULT:    -6.707      1.986      3.291
REMARK INTER + INTRA:         -14.966
REMARK INTER:                 -12.647
REMARK INTRA:                  -2.318
REMARK UNBOUND:                -2.378
REMARK  Name = lig_assembled_68.pdb
REMARK  19 active torsions:
REMARK  status: ('A' for Active; 'I' for Inactive)
REMARK    1  A    between atoms: _2  and  _9
REMARK    2  A    between atoms: _4  and  _21
REMARK    3  A    between atoms: _6  and  _7
REMARK    4  A    between atoms: _6  and  _21
REMARK    5  A    between atoms: _9  and  _10
REMARK    6  A    between atoms: _10  and  _11
REMARK    7  A    between atoms: _10  and  _16
REMARK    8  A    between atoms: _17  and  _37
REMARK    9  A    between atoms: _19  and  _25
REMARK   10  A    between atoms: _20  and  _24
REMARK   11  A    between atoms: _24  and  _25
REMARK   12  A    between atoms: _27  and  _28
REMARK   13  A    between atoms: _29  and  _30
REMARK   14  A    between atoms: _31  and  _33
REMARK   15  A    between atoms: _33  and  _34
REMARK   16  A    between atoms: _33  and  _35
REMARK   17  A    between atoms: _35  and  _36
REMARK   18  A    between atoms: _35  and  _37
REMARK   19  A    between atoms: _38  and  _40
REMARK                            x       y       z     vdW  Elec       q    Type
REMARK                         _______ _______ _______ _____ _____    ______ ____
ROOT
ATOM      1  C   UNL     1       2.739   2.598  32.701  0.00  0.00    +0.163 C 
ENDROOT
BRANCH   1   2
ATOM      2  O   UNL     1       2.442   1.474  33.545  0.00  0.00    -0.388 OA
ATOM      3  H   UNL     1       2.465   1.749  34.465  0.00  0.00    +0.210 HD
ENDBRANCH   1   2
BRANCH   1   4
ATOM      4  C   UNL     1       3.775   3.524  33.362  0.00  0.00    +0.175 C 
BRANCH   4   5
ATOM      5  C   UNL     1       3.448   3.797  34.837  0.00  0.00    +0.176 C 
ATOM      6  O   UNL     1       2.012   3.999  34.947  0.00  0.00    -0.332 OA
ATOM      7  C   UNL     1       1.498   4.170  36.309  0.00  0.00    +0.277 C 
ATOM      8  C   UNL     1       2.244   5.320  37.029  0.00  0.00    +0.110 C 
ATOM      9  C   UNL     1       3.775   5.166  36.912  0.00  0.00    +0.143 C 
ATOM     10  C   UNL     1       4.200   4.992  35.454  0.00  0.00    +0.133 C 
BRANCH  10  11
ATOM     11  N   UNL     1       5.650   4.759  35.363  0.00  0.00    -0.308 N 
ATOM     12  H   UNL     1       6.008   3.876  35.699  0.00  0.00    +0.149 HD
ATOM     13  C   UNL     1       6.524   5.638  34.866  0.00  0.00    +0.210 C 
ATOM     14  C   UNL     1       5.950   6.985  34.386  0.00  0.00    +0.109 C 
ATOM     15  O   UNL     1       7.732   5.410  34.789  0.00  0.00    -0.276 OA
ENDBRANCH  10  11
BRANCH   7  16
ATOM     16  C   UNL     1       1.654   2.867  37.120  0.00  0.00    +0.414 C 
ATOM     17  O   UNL     1       1.698   2.903  38.349  0.00  0.00    -0.240 OA
ATOM     18  O   UNL     1       1.736   1.780  36.546  0.00  0.00    -0.240 OA
ENDBRANCH   7  16
BRANCH   7  19
ATOM     19  O   UNL     1       0.094   4.523  36.218  0.00  0.00    -0.343 OA
ATOM     20  C   UNL     1      -0.607   3.958  35.081  0.00  0.00    +0.198 C 
ENDBRANCH   7  19
BRANCH   9  21
ATOM     21  O   UNL     1       4.418   6.320  37.455  0.00  0.00    -0.390 OA
ATOM     22  H   UNL     1       4.253   6.365  38.399  0.00  0.00    +0.210 HD
ENDBRANCH   9  21
ENDBRANCH   4   5
BRANCH   4  23
ATOM     23  O   UNL     1       3.867   4.766  32.635  0.00  0.00    -0.387 OA
ATOM     24  H   UNL     1       3.617   4.620  31.720  0.00  0.00    +0.210 HD
ENDBRANCH   4  23
ENDBRANCH   1   4
BRANCH   1  25
ATOM     25  C   UNL     1       3.272   2.115  31.356  0.00  0.00    +0.141 C 
BRANCH  25  28
ATOM     26  C   UNL     1       2.171   2.639  29.207  0.00  0.00    +0.401 C 
ATOM     27  O   UNL     1       1.753   1.492  29.035  0.00  0.00    -0.226 OA
ATOM     28  N   UNL     1       2.895   3.017  30.261  0.00  0.00    -0.279 N 
ATOM     29  H   UNL     1       3.201   3.979  30.310  0.00  0.00    +0.152 HD
BRANCH  26  30
ATOM     30  O   UNL     1       1.879   3.639  28.229  0.00  0.00    -0.444 OA
BRANCH  30  31
ATOM     31  C   UNL     1       0.666   3.303  27.549  0.00  0.00    +0.292 C 
BRANCH  31  33
ATOM     32  N   UNL     1      -0.414   5.010  26.111  0.00  0.00    -0.131 NA
ATOM     33  C   UNL     1       0.556   4.056  26.287  0.00  0.00    +0.120 A 
ATOM     34  C   UNL     1       1.311   3.967  25.141  0.00  0.00    +0.137 A 
ATOM     35  N   UNL     1       0.758   4.896  24.310  0.00  0.00    -0.249 N 
ATOM     36  N   UNL     1      -0.285   5.514  24.891  0.00  0.00    -0.065 NA
BRANCH  35  37
ATOM     37  C   UNL     1       1.105   5.171  22.931  0.00  0.00    +0.181 C 
BRANCH  37  38
ATOM     38  C   UNL     1      -0.017   4.777  21.962  0.00  0.00    +0.166 C 
BRANCH  38  39
ATOM     39  C   UNL     1       0.457   4.448  20.554  0.00  0.00    -0.017 A 
ATOM     40  C   UNL     1       1.703   3.815  20.387  0.00  0.00    +0.006 A 
ATOM     41  C   UNL     1       2.164   3.472  19.115  0.00  0.00    +0.000 A 
ATOM     42  C   UNL     1       1.389   3.747  17.992  0.00  0.00    +0.000 A 
ATOM     43  C   UNL     1       0.148   4.355  18.140  0.00  0.00    +0.000 A 
ATOM     44  C   UNL     1      -0.319   4.699  19.412  0.00  0.00    +0.006 A 
ENDBRANCH  38  39
BRANCH  38  45
ATOM     45  O   UNL     1      -0.954   5.856  21.871  0.00  0.00    -0.385 OA
ATOM     46  H   UNL     1      -0.658   6.567  22.463  0.00  0.00    +0.210 HD
ENDBRANCH  38  45
ENDBRANCH  37  38
ENDBRANCH  35  37
ENDBRANCH  31  33
ENDBRANCH  30  31
ENDBRANCH  26  30
ENDBRANCH  25  28
ENDBRANCH   1  25
TORSDOF 17
