REMARK VINA RESULT:    -6.180     22.156     25.216
REMARK INTER + INTRA:         -12.610
REMARK INTER:                 -10.133
REMARK INTRA:                  -2.477
REMARK UNBOUND:                -1.914
REMARK  Name = lig_assembled_56.pdb
REMARK  16 active torsions:
REMARK  status: ('A' for Active; 'I' for Inactive)
REMARK    1  A    between atoms: _2  and  _10
REMARK    2  A    between atoms: _5  and  _18
REMARK    3  A    between atoms: _7  and  _8
REMARK    4  A    between atoms: _7  and  _18
REMARK    5  A    between atoms: _14  and  _34
REMARK    6  A    between atoms: _16  and  _22
REMARK    7  A    between atoms: _17  and  _21
REMARK    8  A    between atoms: _21  and  _22
REMARK    9  A    between atoms: _24  and  _25
REMARK   10  A    between atoms: _26  and  _27
REMARK   11  A    between atoms: _28  and  _30
REMARK   12  A    between atoms: _30  and  _31
REMARK   13  A    between atoms: _30  and  _32
REMARK   14  A    between atoms: _32  and  _33
REMARK   15  A    between atoms: _32  and  _34
REMARK   16  A    between atoms: _35  and  _37
REMARK                            x       y       z     vdW  Elec       q    Type
REMARK                         _______ _______ _______ _____ _____    ______ ____
ROOT
ATOM      1  C   UNL     1      18.446  10.423  29.520  0.00  0.00    +0.163 C 
ENDROOT
BRANCH   1   2
ATOM      2  O   UNL     1      17.165  10.736  30.089  0.00  0.00    -0.388 OA
ATOM      3  H   UNL     1      17.030  11.687  30.072  0.00  0.00    +0.210 HD
ENDBRANCH   1   2
BRANCH   1   4
ATOM      4  C   UNL     1      18.455  10.767  28.034  0.00  0.00    +0.141 C 
BRANCH   4   7
ATOM      5  C   UNL     1      19.880   9.607  26.382  0.00  0.00    +0.401 C 
ATOM      6  O   UNL     1      20.633  10.569  26.216  0.00  0.00    -0.226 OA
ATOM      7  N   UNL     1      18.832   9.614  27.207  0.00  0.00    -0.279 N 
ATOM      8  H   UNL     1      18.267   8.779  27.268  0.00  0.00    +0.152 HD
BRANCH   5   9
ATOM      9  O   UNL     1      20.121   8.401  25.651  0.00  0.00    -0.444 OA
BRANCH   9  10
ATOM     10  C   UNL     1      19.294   7.355  26.168  0.00  0.00    +0.292 C 
BRANCH  10  12
ATOM     11  N   UNL     1      18.277   7.021  23.938  0.00  0.00    -0.131 NA
ATOM     12  C   UNL     1      18.817   6.490  25.074  0.00  0.00    +0.121 A 
ATOM     13  C   UNL     1      18.817   5.117  24.972  0.00  0.00    +0.143 A 
ATOM     14  N   UNL     1      18.277   4.853  23.734  0.00  0.00    -0.220 N 
ATOM     15  N   UNL     1      17.949   6.022  23.130  0.00  0.00    -0.060 NA
BRANCH  14  16
ATOM     16  C   UNL     1      18.071   3.602  23.103  0.00  0.00    +0.070 A 
ATOM     17  C   UNL     1      18.771   2.465  23.515  0.00  0.00    +0.047 A 
ATOM     18  C   UNL     1      18.532   1.276  22.843  0.00  0.00    +0.113 A 
ATOM     19  N   UNL     1      17.664   1.152  21.817  0.00  0.00    -0.263 NA
ATOM     20  C   UNL     1      16.999   2.265  21.441  0.00  0.00    +0.113 A 
ATOM     21  C   UNL     1      17.163   3.500  22.045  0.00  0.00    +0.047 A 
ENDBRANCH  14  16
ENDBRANCH  10  12
ENDBRANCH   9  10
ENDBRANCH   5   9
ENDBRANCH   4   7
ENDBRANCH   1   4
BRANCH   1  22
ATOM     22  C   UNL     1      18.781   8.933  29.704  0.00  0.00    +0.175 C 
BRANCH  22  23
ATOM     23  C   UNL     1      18.130   8.346  30.965  0.00  0.00    +0.176 C 
ATOM     24  O   UNL     1      18.323   9.295  32.050  0.00  0.00    -0.332 OA
ATOM     25  C   UNL     1      17.671   8.949  33.318  0.00  0.00    +0.277 C 
ATOM     26  C   UNL     1      18.100   7.534  33.778  0.00  0.00    +0.110 C 
ATOM     27  C   UNL     1      17.943   6.496  32.647  0.00  0.00    +0.143 C 
ATOM     28  C   UNL     1      18.656   6.958  31.376  0.00  0.00    +0.133 C 
BRANCH  28  29
ATOM     29  N   UNL     1      18.427   6.002  30.280  0.00  0.00    -0.308 N 
ATOM     30  H   UNL     1      17.487   5.916  29.919  0.00  0.00    +0.149 HD
ATOM     31  C   UNL     1      19.379   5.242  29.733  0.00  0.00    +0.210 C 
ATOM     32  C   UNL     1      20.795   5.378  30.324  0.00  0.00    +0.109 C 
ATOM     33  O   UNL     1      19.161   4.461  28.807  0.00  0.00    -0.276 OA
ENDBRANCH  28  29
BRANCH  25  34
ATOM     34  C   UNL     1      16.136   9.003  33.176  0.00  0.00    +0.414 C 
ATOM     35  O   UNL     1      15.427   8.231  33.821  0.00  0.00    -0.240 OA
ATOM     36  O   UNL     1      15.607   9.817  32.418  0.00  0.00    -0.240 OA
ENDBRANCH  25  34
BRANCH  27  37
ATOM     37  O   UNL     1      18.489   5.244  33.064  0.00  0.00    -0.390 OA
ATOM     38  H   UNL     1      17.874   4.539  32.849  0.00  0.00    +0.210 HD
ENDBRANCH  27  37
BRANCH  25  39
ATOM     39  O   UNL     1      18.103   9.906  34.319  0.00  0.00    -0.343 OA
ATOM     40  C   UNL     1      18.271  11.263  33.838  0.00  0.00    +0.198 C 
ENDBRANCH  25  39
ENDBRANCH  22  23
BRANCH  22  41
ATOM     41  O   UNL     1      20.210   8.747  29.750  0.00  0.00    -0.387 OA
ATOM     42  H   UNL     1      20.541   9.016  30.611  0.00  0.00    +0.210 HD
ENDBRANCH  22  41
ENDBRANCH   1  22
TORSDOF 14
