REMARK VINA RESULT:    -5.932     14.935     17.387
REMARK INTER + INTRA:         -14.854
REMARK INTER:                 -12.579
REMARK INTRA:                  -2.275
REMARK UNBOUND:                -2.852
REMARK  Name = lig_assembled_11.pdb
REMARK  22 active torsions:
REMARK  status: ('A' for Active; 'I' for Inactive)
REMARK    1  A    between atoms: _2  and  _9
REMARK    2  A    between atoms: _4  and  _21
REMARK    3  A    between atoms: _5  and  _9
REMARK    4  A    between atoms: _5  and  _13
REMARK    5  A    between atoms: _6  and  _7
REMARK    6  A    between atoms: _6  and  _21
REMARK    7  A    between atoms: _9  and  _10
REMARK    8  A    between atoms: _10  and  _11
REMARK    9  A    between atoms: _11  and  _12
REMARK   10  A    between atoms: _12  and  _15
REMARK   11  A    between atoms: _17  and  _37
REMARK   12  A    between atoms: _19  and  _25
REMARK   13  A    between atoms: _20  and  _24
REMARK   14  A    between atoms: _24  and  _25
REMARK   15  A    between atoms: _27  and  _28
REMARK   16  A    between atoms: _29  and  _30
REMARK   17  A    between atoms: _31  and  _33
REMARK   18  A    between atoms: _33  and  _34
REMARK   19  A    between atoms: _33  and  _35
REMARK   20  A    between atoms: _35  and  _36
REMARK   21  A    between atoms: _35  and  _37
REMARK   22  A    between atoms: _38  and  _40
REMARK                            x       y       z     vdW  Elec       q    Type
REMARK                         _______ _______ _______ _____ _____    ______ ____
ROOT
ATOM      1  C   UNL     1       3.204   2.962  32.851  0.00  0.00    +0.163 C 
ENDROOT
BRANCH   1   2
ATOM      2  O   UNL     1       3.921   2.140  31.915  0.00  0.00    -0.388 OA
ATOM      3  H   UNL     1       3.496   2.188  31.056  0.00  0.00    +0.210 HD
ENDBRANCH   1   2
BRANCH   1   4
ATOM      4  C   UNL     1       4.139   3.994  33.505  0.00  0.00    +0.175 C 
BRANCH   4   5
ATOM      5  C   UNL     1       5.560   3.445  33.701  0.00  0.00    +0.176 C 
ATOM      6  O   UNL     1       5.448   2.083  34.197  0.00  0.00    -0.332 OA
ATOM      7  C   UNL     1       6.713   1.356  34.344  0.00  0.00    +0.277 C 
ATOM      8  C   UNL     1       7.698   2.157  35.231  0.00  0.00    +0.110 C 
ATOM      9  C   UNL     1       7.825   3.621  34.761  0.00  0.00    +0.143 C 
ATOM     10  C   UNL     1       6.451   4.280  34.639  0.00  0.00    +0.133 C 
BRANCH  10  11
ATOM     11  N   UNL     1       6.579   5.646  34.108  0.00  0.00    -0.308 N 
ATOM     12  H   UNL     1       6.845   5.752  33.139  0.00  0.00    +0.149 HD
ATOM     13  C   UNL     1       6.368   6.755  34.822  0.00  0.00    +0.210 C 
ATOM     14  C   UNL     1       5.990   6.560  36.303  0.00  0.00    +0.109 C 
ATOM     15  O   UNL     1       6.469   7.886  34.346  0.00  0.00    -0.276 OA
ENDBRANCH  10  11
BRANCH   7  16
ATOM     16  C   UNL     1       7.356   1.093  32.967  0.00  0.00    +0.414 C 
ATOM     17  O   UNL     1       6.652   0.820  31.996  0.00  0.00    -0.240 OA
ATOM     18  O   UNL     1       8.578   1.155  32.827  0.00  0.00    -0.240 OA
ENDBRANCH   7  16
BRANCH   7  19
ATOM     19  O   UNL     1       6.431   0.093  35.000  0.00  0.00    -0.343 OA
ATOM     20  C   UNL     1       5.108  -0.446  34.749  0.00  0.00    +0.198 C 
ENDBRANCH   7  19
BRANCH   9  21
ATOM     21  O   UNL     1       8.620   4.358  35.691  0.00  0.00    -0.390 OA
ATOM     22  H   UNL     1       8.602   5.290  35.459  0.00  0.00    +0.210 HD
ENDBRANCH   9  21
ENDBRANCH   4   5
BRANCH   4  23
ATOM     23  O   UNL     1       3.596   4.426  34.769  0.00  0.00    -0.387 OA
ATOM     24  H   UNL     1       4.304   4.507  35.412  0.00  0.00    +0.210 HD
ENDBRANCH   4  23
ENDBRANCH   1   4
BRANCH   1  25
ATOM     25  C   UNL     1       2.063   3.685  32.143  0.00  0.00    +0.141 C 
BRANCH  25  28
ATOM     26  C   UNL     1       1.149   3.887  29.856  0.00  0.00    +0.401 C 
ATOM     27  O   UNL     1       0.103   4.428  30.221  0.00  0.00    -0.226 OA
ATOM     28  N   UNL     1       2.118   3.501  30.688  0.00  0.00    -0.279 N 
ATOM     29  H   UNL     1       2.935   3.057  30.294  0.00  0.00    +0.152 HD
BRANCH  26  30
ATOM     30  O   UNL     1       1.357   3.645  28.462  0.00  0.00    -0.444 OA
BRANCH  30  31
ATOM     31  C   UNL     1       0.114   3.292  27.849  0.00  0.00    +0.292 C 
BRANCH  31  33
ATOM     32  N   UNL     1      -0.705   5.179  26.471  0.00  0.00    -0.131 NA
ATOM     33  C   UNL     1      -0.038   3.987  26.557  0.00  0.00    +0.120 A 
ATOM     34  C   UNL     1       0.413   3.634  25.305  0.00  0.00    +0.138 A 
ATOM     35  N   UNL     1      -0.047   4.627  24.489  0.00  0.00    -0.238 N 
ATOM     36  N   UNL     1      -0.693   5.569  25.203  0.00  0.00    -0.065 NA
BRANCH  35  37
ATOM     37  C   UNL     1       0.179   4.862  23.067  0.00  0.00    +0.217 C 
BRANCH  37  38
ATOM     38  C   UNL     1      -1.098   4.907  22.241  0.00  0.00    +0.330 C 
ATOM     39  O   UNL     1      -1.775   5.900  22.024  0.00  0.00    -0.249 OA
BRANCH  38  40
ATOM     40  O   UNL     1      -1.470   3.704  21.734  0.00  0.00    -0.479 OA
ATOM     41  H   UNL     1      -1.411   2.932  22.330  0.00  0.00    +0.295 HD
ENDBRANCH  38  40
ENDBRANCH  37  38
BRANCH  37  42
ATOM     42  C   UNL     1       1.227   3.896  22.485  0.00  0.00    +0.049 C 
BRANCH  42  43
ATOM     43  C   UNL     1       1.916   4.385  21.205  0.00  0.00    +0.123 C 
BRANCH  43  44
ATOM     44  C   UNL     1       1.604   3.474  20.040  0.00  0.00    +0.305 C 
ATOM     45  O   UNL     1       0.847   2.519  20.087  0.00  0.00    -0.251 OA
BRANCH  44  46
ATOM     46  O   UNL     1       2.278   3.814  18.919  0.00  0.00    -0.481 OA
ATOM     47  H   UNL     1       3.035   3.234  18.710  0.00  0.00    +0.295 HD
ENDBRANCH  44  46
ENDBRANCH  43  44
ENDBRANCH  42  43
ENDBRANCH  37  42
ENDBRANCH  35  37
ENDBRANCH  31  33
ENDBRANCH  30  31
ENDBRANCH  26  30
ENDBRANCH  25  28
ENDBRANCH   1  25
TORSDOF 20
