REMARK VINA RESULT:    -6.318      1.461      3.621
REMARK INTER + INTRA:         -13.305
REMARK INTER:                 -11.745
REMARK INTRA:                  -1.560
REMARK UNBOUND:                -2.370
REMARK  Name = lig_assembled_87.pdb
REMARK  17 active torsions:
REMARK  status: ('A' for Active; 'I' for Inactive)
REMARK    1  A    between atoms: _2  and  _10
REMARK    2  A    between atoms: _3  and  _13
REMARK    3  A    between atoms: _5  and  _21
REMARK    4  A    between atoms: _7  and  _8
REMARK    5  A    between atoms: _7  and  _21
REMARK    6  A    between atoms: _17  and  _37
REMARK    7  A    between atoms: _19  and  _25
REMARK    8  A    between atoms: _20  and  _24
REMARK    9  A    between atoms: _24  and  _25
REMARK   10  A    between atoms: _27  and  _28
REMARK   11  A    between atoms: _29  and  _30
REMARK   12  A    between atoms: _31  and  _33
REMARK   13  A    between atoms: _33  and  _34
REMARK   14  A    between atoms: _33  and  _35
REMARK   15  A    between atoms: _35  and  _36
REMARK   16  A    between atoms: _35  and  _37
REMARK   17  A    between atoms: _38  and  _40
REMARK                            x       y       z     vdW  Elec       q    Type
REMARK                         _______ _______ _______ _____ _____    ______ ____
ROOT
ATOM      1  C   UNL     1       4.030   3.621  32.285  0.00  0.00    +0.163 C 
ENDROOT
BRANCH   1   2
ATOM      2  O   UNL     1       3.217   4.008  33.404  0.00  0.00    -0.388 OA
ATOM      3  H   UNL     1       2.325   4.197  33.103  0.00  0.00    +0.210 HD
ENDBRANCH   1   2
BRANCH   1   4
ATOM      4  C   UNL     1       3.270   2.633  31.405  0.00  0.00    +0.141 C 
BRANCH   4   7
ATOM      5  C   UNL     1       1.455   3.029  29.775  0.00  0.00    +0.401 C 
ATOM      6  O   UNL     1       0.691   2.206  30.285  0.00  0.00    -0.226 OA
ATOM      7  N   UNL     1       2.682   3.288  30.230  0.00  0.00    -0.279 N 
ATOM      8  H   UNL     1       3.238   3.973  29.738  0.00  0.00    +0.152 HD
BRANCH   5   9
ATOM      9  O   UNL     1       1.023   3.757  28.623  0.00  0.00    -0.444 OA
BRANCH   9  10
ATOM     10  C   UNL     1       1.715   3.278  27.467  0.00  0.00    +0.292 C 
BRANCH  10  12
ATOM     11  N   UNL     1       0.149   4.814  26.330  0.00  0.00    -0.131 NA
ATOM     12  C   UNL     1       1.142   3.877  26.249  0.00  0.00    +0.120 A 
ATOM     13  C   UNL     1       1.454   3.665  24.925  0.00  0.00    +0.137 A 
ATOM     14  N   UNL     1       0.706   4.592  24.248  0.00  0.00    -0.248 N 
ATOM     15  N   UNL     1      -0.154   5.189  25.100  0.00  0.00    -0.065 NA
BRANCH  14  16
ATOM     16  C   UNL     1       0.704   4.984  22.827  0.00  0.00    +0.112 C 
ATOM     17  C   UNL     1      -0.696   4.992  22.154  0.00  0.00    +0.045 C 
ATOM     18  C   UNL     1      -0.861   4.054  20.946  0.00  0.00    +0.059 C 
ATOM     19  C   UNL     1      -0.236   4.640  19.673  0.00  0.00    +0.020 C 
ATOM     20  C   UNL     1       1.157   4.015  19.603  0.00  0.00    +0.020 C 
ATOM     21  C   UNL     1       1.290   3.263  20.928  0.00  0.00    +0.059 C 
ATOM     22  N   UNL     1      -0.093   2.823  21.083  0.00  0.00    -0.299 NA
ATOM     23  C   UNL     1      -0.403   1.962  22.204  0.00  0.00    +0.105 C 
ATOM     24  C   UNL     1       1.790   4.201  22.028  0.00  0.00    +0.045 C 
ENDBRANCH  14  16
ENDBRANCH  10  12
ENDBRANCH   9  10
ENDBRANCH   5   9
ENDBRANCH   4   7
ENDBRANCH   1   4
BRANCH   1  25
ATOM     25  C   UNL     1       5.347   2.980  32.756  0.00  0.00    +0.175 C 
BRANCH  25  26
ATOM     26  C   UNL     1       5.839   3.580  34.082  0.00  0.00    +0.176 C 
ATOM     27  O   UNL     1       6.219   4.962  33.833  0.00  0.00    -0.332 OA
ATOM     28  C   UNL     1       6.618   5.732  35.015  0.00  0.00    +0.277 C 
ATOM     29  C   UNL     1       7.754   5.005  35.776  0.00  0.00    +0.110 C 
ATOM     30  C   UNL     1       7.409   3.524  36.035  0.00  0.00    +0.143 C 
ATOM     31  C   UNL     1       7.005   2.820  34.740  0.00  0.00    +0.133 C 
BRANCH  31  32
ATOM     32  N   UNL     1       6.595   1.433  35.013  0.00  0.00    -0.308 N 
ATOM     33  H   UNL     1       5.870   1.282  35.700  0.00  0.00    +0.149 HD
ATOM     34  C   UNL     1       7.120   0.361  34.413  0.00  0.00    +0.210 C 
ATOM     35  C   UNL     1       8.242   0.622  33.391  0.00  0.00    +0.109 C 
ATOM     36  O   UNL     1       6.746  -0.788  34.651  0.00  0.00    -0.276 OA
ENDBRANCH  31  32
BRANCH  28  37
ATOM     37  C   UNL     1       5.418   5.944  35.960  0.00  0.00    +0.414 C 
ATOM     38  O   UNL     1       5.601   6.145  37.160  0.00  0.00    -0.240 OA
ATOM     39  O   UNL     1       4.266   5.915  35.524  0.00  0.00    -0.240 OA
ENDBRANCH  28  37
BRANCH  30  40
ATOM     40  O   UNL     1       8.539   2.858  36.601  0.00  0.00    -0.390 OA
ATOM     41  H   UNL     1       8.856   2.189  35.989  0.00  0.00    +0.210 HD
ENDBRANCH  30  40
BRANCH  28  42
ATOM     42  O   UNL     1       7.119   7.017  34.565  0.00  0.00    -0.343 OA
ATOM     43  C   UNL     1       7.919   7.737  35.536  0.00  0.00    +0.198 C 
ENDBRANCH  28  42
ENDBRANCH  25  26
BRANCH  25  44
ATOM     44  O   UNL     1       6.360   3.122  31.740  0.00  0.00    -0.387 OA
ATOM     45  H   UNL     1       7.226   2.986  32.131  0.00  0.00    +0.210 HD
ENDBRANCH  25  44
ENDBRANCH   1  25
TORSDOF 14
