REMARK VINA RESULT:    -6.270      5.007      6.162
REMARK INTER + INTRA:         -13.186
REMARK INTER:                 -11.056
REMARK INTRA:                  -2.130
REMARK UNBOUND:                -2.334
REMARK  Name = lig_assembled_15.pdb
REMARK  16 active torsions:
REMARK  status: ('A' for Active; 'I' for Inactive)
REMARK    1  A    between atoms: _2  and  _9
REMARK    2  A    between atoms: _4  and  _18
REMARK    3  A    between atoms: _6  and  _7
REMARK    4  A    between atoms: _6  and  _18
REMARK    5  A    between atoms: _14  and  _34
REMARK    6  A    between atoms: _16  and  _22
REMARK    7  A    between atoms: _17  and  _21
REMARK    8  A    between atoms: _21  and  _22
REMARK    9  A    between atoms: _24  and  _25
REMARK   10  A    between atoms: _26  and  _27
REMARK   11  A    between atoms: _28  and  _30
REMARK   12  A    between atoms: _30  and  _31
REMARK   13  A    between atoms: _30  and  _32
REMARK   14  A    between atoms: _32  and  _33
REMARK   15  A    between atoms: _32  and  _34
REMARK   16  A    between atoms: _35  and  _37
REMARK                            x       y       z     vdW  Elec       q    Type
REMARK                         _______ _______ _______ _____ _____    ______ ____
ROOT
ATOM      1  C   UNL     1       7.827   2.380  34.191  0.00  0.00    +0.163 C 
ENDROOT
BRANCH   1   2
ATOM      2  O   UNL     1       8.623   2.602  35.366  0.00  0.00    -0.388 OA
ATOM      3  H   UNL     1       8.901   3.521  35.396  0.00  0.00    +0.210 HD
ENDBRANCH   1   2
BRANCH   1   4
ATOM      4  C   UNL     1       8.394   1.212  33.390  0.00  0.00    +0.141 C 
BRANCH   4   7
ATOM      5  C   UNL     1       6.794  -0.665  33.233  0.00  0.00    +0.401 C 
ATOM      6  O   UNL     1       7.129  -1.164  34.310  0.00  0.00    -0.226 OA
ATOM      7  N   UNL     1       7.337   0.441  32.723  0.00  0.00    -0.279 N 
ATOM      8  H   UNL     1       7.002   0.768  31.827  0.00  0.00    +0.152 HD
BRANCH   5   9
ATOM      9  O   UNL     1       5.767  -1.297  32.465  0.00  0.00    -0.444 OA
BRANCH   9  10
ATOM     10  C   UNL     1       5.503  -0.522  31.291  0.00  0.00    +0.292 C 
BRANCH  10  12
ATOM     11  N   UNL     1       7.344  -1.666  30.096  0.00  0.00    -0.131 NA
ATOM     12  C   UNL     1       6.065  -1.189  30.101  0.00  0.00    +0.121 A 
ATOM     13  C   UNL     1       5.484  -1.452  28.882  0.00  0.00    +0.143 A 
ATOM     14  N   UNL     1       6.447  -2.126  28.167  0.00  0.00    -0.220 N 
ATOM     15  N   UNL     1       7.571  -2.228  28.917  0.00  0.00    -0.060 NA
BRANCH  14  16
ATOM     16  C   UNL     1       6.356  -2.686  26.865  0.00  0.00    +0.067 A 
ATOM     17  C   UNL     1       7.216  -2.269  25.840  0.00  0.00    +0.029 A 
ATOM     18  C   UNL     1       7.084  -2.803  24.554  0.00  0.00    +0.017 A 
ATOM     19  C   UNL     1       6.100  -3.754  24.293  0.00  0.00    +0.018 A 
ATOM     20 BR   UNL     1       5.912  -4.451  22.545  0.00  0.00    -0.050 Br
ATOM     21  C   UNL     1       5.250  -4.187  25.308  0.00  0.00    +0.017 A 
ATOM     22  C   UNL     1       5.378  -3.657  26.595  0.00  0.00    +0.029 A 
ENDBRANCH  14  16
ENDBRANCH  10  12
ENDBRANCH   9  10
ENDBRANCH   5   9
ENDBRANCH   4   7
ENDBRANCH   1   4
BRANCH   1  23
ATOM     23  C   UNL     1       7.788   3.638  33.307  0.00  0.00    +0.175 C 
BRANCH  23  24
ATOM     24  C   UNL     1       6.955   4.763  33.939  0.00  0.00    +0.176 C 
ATOM     25  O   UNL     1       7.733   5.340  35.024  0.00  0.00    -0.332 OA
ATOM     26  C   UNL     1       7.137   6.507  35.681  0.00  0.00    +0.277 C 
ATOM     27  C   UNL     1       5.709   6.175  36.181  0.00  0.00    +0.110 C 
ATOM     28  C   UNL     1       4.853   5.529  35.071  0.00  0.00    +0.143 C 
ATOM     29  C   UNL     1       5.570   4.328  34.454  0.00  0.00    +0.133 C 
BRANCH  29  30
ATOM     30  N   UNL     1       4.784   3.775  33.340  0.00  0.00    -0.308 N 
ATOM     31  H   UNL     1       4.692   4.334  32.504  0.00  0.00    +0.149 HD
ATOM     32  C   UNL     1       4.182   2.582  33.363  0.00  0.00    +0.210 C 
ATOM     33  C   UNL     1       4.319   1.765  34.662  0.00  0.00    +0.109 C 
ATOM     34  O   UNL     1       3.542   2.138  32.409  0.00  0.00    -0.276 OA
ENDBRANCH  29  30
BRANCH  26  35
ATOM     35  C   UNL     1       7.079   7.709  34.716  0.00  0.00    +0.414 C 
ATOM     36  O   UNL     1       8.117   8.228  34.309  0.00  0.00    -0.240 OA
ATOM     37  O   UNL     1       5.994   8.158  34.343  0.00  0.00    -0.240 OA
ENDBRANCH  26  35
BRANCH  28  38
ATOM     38  O   UNL     1       3.603   5.103  35.614  0.00  0.00    -0.390 OA
ATOM     39  H   UNL     1       2.885   5.533  35.142  0.00  0.00    +0.210 HD
ENDBRANCH  28  38
BRANCH  26  40
ATOM     40  O   UNL     1       7.957   6.843  36.830  0.00  0.00    -0.343 OA
ATOM     41  C   UNL     1       9.107   5.983  37.033  0.00  0.00    +0.198 C 
ENDBRANCH  26  40
ENDBRANCH  23  24
BRANCH  23  42
ATOM     42  O   UNL     1       7.271   3.312  32.001  0.00  0.00    -0.387 OA
ATOM     43  H   UNL     1       6.928   2.416  32.007  0.00  0.00    +0.210 HD
ENDBRANCH  23  42
ENDBRANCH   1  23
TORSDOF 14
