REMARK VINA RESULT:    -5.921      4.821     10.559
REMARK INTER + INTRA:         -14.083
REMARK INTER:                 -11.597
REMARK INTRA:                  -2.486
REMARK UNBOUND:                -2.450
REMARK  Name = lig_assembled_10.pdb
REMARK  21 active torsions:
REMARK  status: ('A' for Active; 'I' for Inactive)
REMARK    1  A    between atoms: _2  and  _9
REMARK    2  A    between atoms: _4  and  _20
REMARK    3  A    between atoms: _5  and  _9
REMARK    4  A    between atoms: _5  and  _12
REMARK    5  A    between atoms: _6  and  _7
REMARK    6  A    between atoms: _6  and  _20
REMARK    7  A    between atoms: _9  and  _10
REMARK    8  A    between atoms: _10  and  _11
REMARK    9  A    between atoms: _11  and  _14
REMARK   10  A    between atoms: _16  and  _36
REMARK   11  A    between atoms: _18  and  _24
REMARK   12  A    between atoms: _19  and  _23
REMARK   13  A    between atoms: _23  and  _24
REMARK   14  A    between atoms: _26  and  _27
REMARK   15  A    between atoms: _28  and  _29
REMARK   16  A    between atoms: _30  and  _32
REMARK   17  A    between atoms: _32  and  _33
REMARK   18  A    between atoms: _32  and  _34
REMARK   19  A    between atoms: _34  and  _35
REMARK   20  A    between atoms: _34  and  _36
REMARK   21  A    between atoms: _37  and  _39
REMARK                            x       y       z     vdW  Elec       q    Type
REMARK                         _______ _______ _______ _____ _____    ______ ____
ROOT
ATOM      1  C   UNL     1      18.815   5.384  24.370  0.00  0.00    +0.163 C 
ENDROOT
BRANCH   1   2
ATOM      2  O   UNL     1      17.974   5.730  23.258  0.00  0.00    -0.388 OA
ATOM      3  H   UNL     1      17.685   6.642  23.345  0.00  0.00    +0.210 HD
ENDBRANCH   1   2
BRANCH   1   4
ATOM      4  C   UNL     1      19.919   4.402  23.940  0.00  0.00    +0.175 C 
BRANCH   4   5
ATOM      5  C   UNL     1      19.399   2.962  23.828  0.00  0.00    +0.176 C 
ATOM      6  O   UNL     1      18.525   2.890  22.668  0.00  0.00    -0.332 OA
ATOM      7  C   UNL     1      18.015   1.556  22.340  0.00  0.00    +0.277 C 
ATOM      8  C   UNL     1      17.308   0.930  23.567  0.00  0.00    +0.110 C 
ATOM      9  C   UNL     1      18.187   1.011  24.833  0.00  0.00    +0.143 C 
ATOM     10  C   UNL     1      18.665   2.443  25.078  0.00  0.00    +0.133 C 
BRANCH  10  11
ATOM     11  N   UNL     1      19.571   2.492  26.237  0.00  0.00    -0.308 N 
ATOM     12  H   UNL     1      20.493   2.093  26.131  0.00  0.00    +0.149 HD
ATOM     13  C   UNL     1      19.254   3.029  27.418  0.00  0.00    +0.210 C 
ATOM     14  C   UNL     1      17.832   3.605  27.555  0.00  0.00    +0.109 C 
ATOM     15  O   UNL     1      20.039   3.069  28.366  0.00  0.00    -0.276 OA
ENDBRANCH  10  11
BRANCH   7  16
ATOM     16  C   UNL     1      19.160   0.631  21.877  0.00  0.00    +0.414 C 
ATOM     17  O   UNL     1      19.144  -0.566  22.162  0.00  0.00    -0.240 OA
ATOM     18  O   UNL     1      20.099   1.081  21.220  0.00  0.00    -0.240 OA
ENDBRANCH   7  16
BRANCH   7  19
ATOM     19  O   UNL     1      17.041   1.697  21.274  0.00  0.00    -0.343 OA
ATOM     20  C   UNL     1      16.360   2.977  21.233  0.00  0.00    +0.198 C 
ENDBRANCH   7  19
BRANCH   9  21
ATOM     21  O   UNL     1      17.441   0.563  25.966  0.00  0.00    -0.390 OA
ATOM     22  H   UNL     1      17.705  -0.332  26.190  0.00  0.00    +0.210 HD
ENDBRANCH   9  21
ENDBRANCH   4   5
BRANCH   4  23
ATOM     23  O   UNL     1      21.024   4.462  24.865  0.00  0.00    -0.387 OA
ATOM     24  H   UNL     1      20.803   5.049  25.591  0.00  0.00    +0.210 HD
ENDBRANCH   4  23
ENDBRANCH   1   4
BRANCH   1  25
ATOM     25  C   UNL     1      19.451   6.642  24.954  0.00  0.00    +0.141 C 
BRANCH  25  28
ATOM     26  C   UNL     1      18.993   7.678  27.149  0.00  0.00    +0.401 C 
ATOM     27  O   UNL     1      18.601   8.745  26.670  0.00  0.00    -0.226 OA
ATOM     28  N   UNL     1      19.414   6.643  26.421  0.00  0.00    -0.279 N 
ATOM     29  H   UNL     1      19.725   5.813  26.906  0.00  0.00    +0.152 HD
BRANCH  26  30
ATOM     30  O   UNL     1      19.008   7.520  28.570  0.00  0.00    -0.444 OA
BRANCH  30  31
ATOM     31  C   UNL     1      19.667   8.639  29.169  0.00  0.00    +0.292 C 
BRANCH  31  33
ATOM     32  N   UNL     1      17.887  10.323  29.529  0.00  0.00    -0.131 NA
ATOM     33  C   UNL     1      18.733   9.376  30.040  0.00  0.00    +0.120 A 
ATOM     34  C   UNL     1      18.528   9.274  31.397  0.00  0.00    +0.138 A 
ATOM     35  N   UNL     1      17.517  10.150  31.649  0.00  0.00    -0.237 N 
ATOM     36  N   UNL     1      17.152  10.797  30.524  0.00  0.00    -0.065 NA
BRANCH  35  37
ATOM     37  C   UNL     1      16.816  10.468  32.883  0.00  0.00    +0.227 C 
BRANCH  37  38
ATOM     38  C   UNL     1      17.348  11.681  33.615  0.00  0.00    +0.330 C 
ATOM     39  O   UNL     1      17.176  11.835  34.819  0.00  0.00    -0.249 OA
BRANCH  38  40
ATOM     40  O   UNL     1      18.064  12.574  32.899  0.00  0.00    -0.479 OA
ATOM     41  H   UNL     1      18.964  12.804  33.246  0.00  0.00    +0.295 HD
ENDBRANCH  38  40
ENDBRANCH  37  38
BRANCH  37  42
ATOM     42  C   UNL     1      16.610   9.268  33.818  0.00  0.00    +0.158 C 
BRANCH  42  43
ATOM     43  C   UNL     1      15.303   8.570  33.562  0.00  0.00    +0.307 C 
ATOM     44  O   UNL     1      15.037   7.451  33.982  0.00  0.00    -0.251 OA
BRANCH  43  45
ATOM     45  O   UNL     1      14.410   9.324  32.894  0.00  0.00    -0.481 OA
ATOM     46  H   UNL     1      14.318  10.243  33.214  0.00  0.00    +0.295 HD
ENDBRANCH  43  45
ENDBRANCH  42  43
ENDBRANCH  37  42
ENDBRANCH  35  37
ENDBRANCH  31  33
ENDBRANCH  30  31
ENDBRANCH  26  30
ENDBRANCH  25  28
ENDBRANCH   1  25
TORSDOF 19
