REMARK VINA RESULT:    -6.369     20.233     24.478
REMARK INTER + INTRA:         -13.140
REMARK INTER:                 -10.332
REMARK INTRA:                  -2.808
REMARK UNBOUND:                -2.118
REMARK  Name = lig_assembled_7.pdb
REMARK  19 active torsions:
REMARK  status: ('A' for Active; 'I' for Inactive)
REMARK    1  A    between atoms: _2  and  _9
REMARK    2  A    between atoms: _4  and  _21
REMARK    3  A    between atoms: _5  and  _16
REMARK    4  A    between atoms: _6  and  _7
REMARK    5  A    between atoms: _6  and  _21
REMARK    6  A    between atoms: _10  and  _11
REMARK    7  A    between atoms: _13  and  _14
REMARK    8  A    between atoms: _17  and  _37
REMARK    9  A    between atoms: _19  and  _25
REMARK   10  A    between atoms: _20  and  _24
REMARK   11  A    between atoms: _24  and  _25
REMARK   12  A    between atoms: _27  and  _28
REMARK   13  A    between atoms: _29  and  _30
REMARK   14  A    between atoms: _31  and  _33
REMARK   15  A    between atoms: _33  and  _34
REMARK   16  A    between atoms: _33  and  _35
REMARK   17  A    between atoms: _35  and  _36
REMARK   18  A    between atoms: _35  and  _37
REMARK   19  A    between atoms: _38  and  _40
REMARK                            x       y       z     vdW  Elec       q    Type
REMARK                         _______ _______ _______ _____ _____    ______ ____
ROOT
ATOM      1  C   UNL     1       5.080  23.234  16.143  0.00  0.00    +0.163 C 
ENDROOT
BRANCH   1   2
ATOM      2  O   UNL     1       5.543  21.878  16.260  0.00  0.00    -0.388 OA
ATOM      3  H   UNL     1       6.401  21.796  15.837  0.00  0.00    +0.210 HD
ENDBRANCH   1   2
BRANCH   1   4
ATOM      4  C   UNL     1       5.108  23.913  17.508  0.00  0.00    +0.141 C 
BRANCH   4   7
ATOM      5  C   UNL     1       3.543  23.977  19.420  0.00  0.00    +0.401 C 
ATOM      6  O   UNL     1       4.429  23.874  20.270  0.00  0.00    -0.226 OA
ATOM      7  N   UNL     1       3.769  23.997  18.105  0.00  0.00    -0.279 N 
ATOM      8  H   UNL     1       2.975  24.075  17.486  0.00  0.00    +0.152 HD
BRANCH   5   9
ATOM      9  O   UNL     1       2.181  24.077  19.844  0.00  0.00    -0.444 OA
BRANCH   9  10
ATOM     10  C   UNL     1       1.317  23.970  18.710  0.00  0.00    +0.292 C 
BRANCH  10  12
ATOM     11  N   UNL     1       0.270  21.995  17.670  0.00  0.00    -0.131 NA
ATOM     12  C   UNL     1       0.523  22.730  18.786  0.00  0.00    +0.121 A 
ATOM     13  C   UNL     1      -0.062  22.107  19.871  0.00  0.00    +0.143 A 
ATOM     14  N   UNL     1      -0.711  21.005  19.354  0.00  0.00    -0.219 N 
ATOM     15  N   UNL     1      -0.449  20.943  18.024  0.00  0.00    -0.060 NA
BRANCH  14  16
ATOM     16  C   UNL     1      -1.528  20.031  20.016  0.00  0.00    +0.073 A 
ATOM     17  C   UNL     1      -2.944  20.064  19.833  0.00  0.00    -0.024 A 
ATOM     18  C   UNL     1      -3.756  19.109  20.481  0.00  0.00    +0.008 A 
ATOM     19  C   UNL     1      -3.209  18.118  21.293  0.00  0.00    -0.050 A 
ATOM     20  C   UNL     1      -4.101  17.117  21.964  0.00  0.00    +0.044 C 
ATOM     21  C   UNL     1      -1.828  18.089  21.467  0.00  0.00    +0.008 A 
ATOM     22  C   UNL     1      -3.670  21.040  18.933  0.00  0.00    +0.046 C 
ATOM     23  C   UNL     1      -0.971  19.038  20.863  0.00  0.00    -0.024 A 
ATOM     24  C   UNL     1       0.471  18.904  21.281  0.00  0.00    +0.046 C 
ENDBRANCH  14  16
ENDBRANCH  10  12
ENDBRANCH   9  10
ENDBRANCH   5   9
ENDBRANCH   4   7
ENDBRANCH   1   4
BRANCH   1  25
ATOM     25  C   UNL     1       3.651  23.279  15.575  0.00  0.00    +0.175 C 
BRANCH  25  26
ATOM     26  C   UNL     1       3.432  22.230  14.476  0.00  0.00    +0.176 C 
ATOM     27  O   UNL     1       4.652  22.145  13.690  0.00  0.00    -0.332 OA
ATOM     28  C   UNL     1       4.666  21.110  12.651  0.00  0.00    +0.277 C 
ATOM     29  C   UNL     1       3.447  21.271  11.710  0.00  0.00    +0.110 C 
ATOM     30  C   UNL     1       2.129  21.398  12.503  0.00  0.00    +0.143 C 
ATOM     31  C   UNL     1       2.226  22.501  13.557  0.00  0.00    +0.133 C 
BRANCH  31  32
ATOM     32  N   UNL     1       0.996  22.553  14.363  0.00  0.00    -0.308 N 
ATOM     33  H   UNL     1       0.822  21.794  15.007  0.00  0.00    +0.149 HD
ATOM     34  C   UNL     1       0.095  23.537  14.299  0.00  0.00    +0.210 C 
ATOM     35  C   UNL     1       0.377  24.665  13.289  0.00  0.00    +0.109 C 
ATOM     36  O   UNL     1      -0.919  23.562  14.997  0.00  0.00    -0.276 OA
ENDBRANCH  31  32
BRANCH  28  37
ATOM     37  C   UNL     1       4.648  19.702  13.281  0.00  0.00    +0.414 C 
ATOM     38  O   UNL     1       4.138  18.759  12.678  0.00  0.00    -0.240 OA
ATOM     39  O   UNL     1       5.143  19.509  14.393  0.00  0.00    -0.240 OA
ENDBRANCH  28  37
BRANCH  30  40
ATOM     40  O   UNL     1       1.056  21.695  11.608  0.00  0.00    -0.390 OA
ATOM     41  H   UNL     1       1.277  21.384  10.728  0.00  0.00    +0.210 HD
ENDBRANCH  30  40
BRANCH  28  42
ATOM     42  O   UNL     1       5.875  21.278  11.866  0.00  0.00    -0.343 OA
ATOM     43  C   UNL     1       5.984  22.548  11.175  0.00  0.00    +0.198 C 
ENDBRANCH  28  42
ENDBRANCH  25  26
BRANCH  25  44
ATOM     44  O   UNL     1       3.360  24.597  15.069  0.00  0.00    -0.387 OA
ATOM     45  H   UNL     1       3.967  25.231  15.458  0.00  0.00    +0.210 HD
ENDBRANCH  25  44
ENDBRANCH   1  25
TORSDOF 14
