REMARK VINA RESULT:    -5.565      8.504     13.193
REMARK INTER + INTRA:         -13.755
REMARK INTER:                 -11.250
REMARK INTRA:                  -2.504
REMARK UNBOUND:                -2.172
REMARK  Name = lig_assembled_54.pdb
REMARK  24 active torsions:
REMARK  status: ('A' for Active; 'I' for Inactive)
REMARK    1  A    between atoms: _2  and  _9
REMARK    2  A    between atoms: _4  and  _21
REMARK    3  A    between atoms: _5  and  _14
REMARK    4  A    between atoms: _6  and  _7
REMARK    5  A    between atoms: _6  and  _21
REMARK    6  A    between atoms: _9  and  _10
REMARK    7  A    between atoms: _10  and  _11
REMARK    8  A    between atoms: _11  and  _15
REMARK    9  A    between atoms: _11  and  _16
REMARK   10  A    between atoms: _12  and  _13
REMARK   11  A    between atoms: _12  and  _16
REMARK   12  A    between atoms: _14  and  _15
REMARK   13  A    between atoms: _17  and  _37
REMARK   14  A    between atoms: _19  and  _25
REMARK   15  A    between atoms: _20  and  _24
REMARK   16  A    between atoms: _24  and  _25
REMARK   17  A    between atoms: _27  and  _28
REMARK   18  A    between atoms: _29  and  _30
REMARK   19  A    between atoms: _31  and  _33
REMARK   20  A    between atoms: _33  and  _34
REMARK   21  A    between atoms: _33  and  _35
REMARK   22  A    between atoms: _35  and  _36
REMARK   23  A    between atoms: _35  and  _37
REMARK   24  A    between atoms: _38  and  _40
REMARK                            x       y       z     vdW  Elec       q    Type
REMARK                         _______ _______ _______ _____ _____    ______ ____
ROOT
ATOM      1  C   UNL     1       8.719   4.542  38.535  0.00  0.00    +0.163 C 
ENDROOT
BRANCH   1   2
ATOM      2  O   UNL     1       8.674   5.918  38.126  0.00  0.00    -0.388 OA
ATOM      3  H   UNL     1       9.552   6.302  38.195  0.00  0.00    +0.210 HD
ENDBRANCH   1   2
BRANCH   1   4
ATOM      4  C   UNL     1       8.270   3.613  37.394  0.00  0.00    +0.175 C 
BRANCH   4   5
ATOM      5  C   UNL     1       7.776   4.398  36.171  0.00  0.00    +0.176 C 
ATOM      6  O   UNL     1       6.387   4.761  36.404  0.00  0.00    -0.332 OA
ATOM      7  C   UNL     1       5.773   5.612  35.380  0.00  0.00    +0.277 C 
ATOM      8  C   UNL     1       5.917   4.965  33.981  0.00  0.00    +0.110 C 
ATOM      9  C   UNL     1       7.372   4.533  33.700  0.00  0.00    +0.143 C 
ATOM     10  C   UNL     1       7.911   3.654  34.829  0.00  0.00    +0.133 C 
BRANCH  10  11
ATOM     11  N   UNL     1       9.325   3.321  34.593  0.00  0.00    -0.308 N 
ATOM     12  H   UNL     1       9.973   4.085  34.458  0.00  0.00    +0.149 HD
ATOM     13  C   UNL     1       9.807   2.077  34.544  0.00  0.00    +0.210 C 
ATOM     14  C   UNL     1       8.789   0.935  34.727  0.00  0.00    +0.109 C 
ATOM     15  O   UNL     1      10.999   1.828  34.359  0.00  0.00    -0.276 OA
ENDBRANCH  10  11
BRANCH   7  16
ATOM     16  C   UNL     1       6.424   7.011  35.370  0.00  0.00    +0.414 C 
ATOM     17  O   UNL     1       7.102   7.387  36.326  0.00  0.00    -0.240 OA
ATOM     18  O   UNL     1       6.271   7.764  34.407  0.00  0.00    -0.240 OA
ENDBRANCH   7  16
BRANCH   9  19
ATOM     19  O   UNL     1       7.430   3.808  32.471  0.00  0.00    -0.390 OA
ATOM     20  H   UNL     1       7.428   4.425  31.735  0.00  0.00    +0.210 HD
ENDBRANCH   9  19
BRANCH   7  21
ATOM     21  O   UNL     1       4.360   5.733  35.685  0.00  0.00    -0.343 OA
ATOM     22  C   UNL     1       4.034   5.705  37.097  0.00  0.00    +0.198 C 
ENDBRANCH   7  21
ENDBRANCH   4   5
BRANCH   4  23
ATOM     23  O   UNL     1       7.241   2.717  37.858  0.00  0.00    -0.387 OA
ATOM     24  H   UNL     1       7.500   1.810  37.676  0.00  0.00    +0.210 HD
ENDBRANCH   4  23
ENDBRANCH   1   4
BRANCH   1  25
ATOM     25  C   UNL     1      10.134   4.171  38.967  0.00  0.00    +0.141 C 
BRANCH  25  28
ATOM     26  C   UNL     1      11.858   3.537  37.314  0.00  0.00    +0.401 C 
ATOM     27  O   UNL     1      11.798   2.333  37.574  0.00  0.00    -0.226 OA
ATOM     28  N   UNL     1      11.121   4.468  37.920  0.00  0.00    -0.279 N 
ATOM     29  H   UNL     1      11.248   5.431  37.644  0.00  0.00    +0.152 HD
BRANCH  26  30
ATOM     30  O   UNL     1      12.769   3.985  36.307  0.00  0.00    -0.444 OA
BRANCH  30  31
ATOM     31  C   UNL     1      13.723   4.877  36.889  0.00  0.00    +0.292 C 
BRANCH  31  33
ATOM     32  N   UNL     1      14.534   5.039  34.554  0.00  0.00    -0.131 NA
ATOM     33  C   UNL     1      14.507   5.540  35.829  0.00  0.00    +0.120 A 
ATOM     34  C   UNL     1      15.273   6.685  35.879  0.00  0.00    +0.137 A 
ATOM     35  N   UNL     1      15.706   6.847  34.598  0.00  0.00    -0.251 N 
ATOM     36  N   UNL     1      15.266   5.853  33.806  0.00  0.00    -0.065 NA
BRANCH  35  37
ATOM     37  C   UNL     1      16.481   7.937  34.042  0.00  0.00    +0.150 C 
BRANCH  37  38
ATOM     38  C   UNL     1      15.633   8.836  33.155  0.00  0.00    +0.084 C 
BRANCH  38  39
ATOM     39  C   UNL     1      16.136  10.283  33.094  0.00  0.00    +0.252 C 
BRANCH  39  40
ATOM     40  O   UNL     1      16.561  10.602  31.767  0.00  0.00    -0.352 OA
BRANCH  40  41
ATOM     41  C   UNL     1      17.876  10.148  31.451  0.00  0.00    +0.159 C 
ATOM     42  C   UNL     1      18.136  10.392  29.978  0.00  0.00    +0.034 C 
ENDBRANCH  40  41
ENDBRANCH  39  40
BRANCH  39  43
ATOM     43  O   UNL     1      17.240  10.397  33.999  0.00  0.00    -0.352 OA
BRANCH  43  44
ATOM     44  C   UNL     1      17.160  11.568  34.815  0.00  0.00    +0.159 C 
ATOM     45  C   UNL     1      16.701  11.174  36.205  0.00  0.00    +0.034 C 
ENDBRANCH  43  44
ENDBRANCH  39  43
ENDBRANCH  38  39
ENDBRANCH  37  38
ENDBRANCH  35  37
ENDBRANCH  31  33
ENDBRANCH  30  31
ENDBRANCH  26  30
ENDBRANCH  25  28
ENDBRANCH   1  25
TORSDOF 20
