REMARK VINA RESULT:    -5.896     14.584     18.081
REMARK INTER + INTRA:         -13.156
REMARK INTER:                 -10.613
REMARK INTRA:                  -2.543
REMARK UNBOUND:                -2.608
REMARK  Name = lig_assembled_4.pdb
REMARK  19 active torsions:
REMARK  status: ('A' for Active; 'I' for Inactive)
REMARK    1  A    between atoms: _2  and  _9
REMARK    2  A    between atoms: _4  and  _21
REMARK    3  A    between atoms: _6  and  _7
REMARK    4  A    between atoms: _6  and  _21
REMARK    5  A    between atoms: _10  and  _11
REMARK    6  A    between atoms: _11  and  _12
REMARK    7  A    between atoms: _11  and  _13
REMARK    8  A    between atoms: _17  and  _37
REMARK    9  A    between atoms: _19  and  _25
REMARK   10  A    between atoms: _20  and  _24
REMARK   11  A    between atoms: _24  and  _25
REMARK   12  A    between atoms: _27  and  _28
REMARK   13  A    between atoms: _29  and  _30
REMARK   14  A    between atoms: _31  and  _33
REMARK   15  A    between atoms: _33  and  _34
REMARK   16  A    between atoms: _33  and  _35
REMARK   17  A    between atoms: _35  and  _36
REMARK   18  A    between atoms: _35  and  _37
REMARK   19  A    between atoms: _38  and  _40
REMARK                            x       y       z     vdW  Elec       q    Type
REMARK                         _______ _______ _______ _____ _____    ______ ____
ROOT
ATOM      1  C   UNL     1      16.961   1.590  26.861  0.00  0.00    +0.163 C 
ENDROOT
BRANCH   1   2
ATOM      2  O   UNL     1      16.804   2.852  26.191  0.00  0.00    -0.388 OA
ATOM      3  H   UNL     1      15.961   2.868  25.732  0.00  0.00    +0.210 HD
ENDBRANCH   1   2
BRANCH   1   4
ATOM      4  C   UNL     1      18.404   1.422  27.325  0.00  0.00    +0.141 C 
BRANCH   4   7
ATOM      5  C   UNL     1      20.478   2.762  27.398  0.00  0.00    +0.401 C 
ATOM      6  O   UNL     1      21.054   2.002  28.181  0.00  0.00    -0.226 OA
ATOM      7  N   UNL     1      19.237   2.572  26.951  0.00  0.00    -0.279 N 
ATOM      8  H   UNL     1      18.847   3.257  26.318  0.00  0.00    +0.152 HD
BRANCH   5   9
ATOM      9  O   UNL     1      21.164   3.928  26.933  0.00  0.00    -0.444 OA
BRANCH   9  10
ATOM     10  C   UNL     1      20.210   4.933  26.577  0.00  0.00    +0.292 C 
BRANCH  10  12
ATOM     11  N   UNL     1      21.260   6.314  28.332  0.00  0.00    -0.131 NA
ATOM     12  C   UNL     1      20.157   5.988  27.605  0.00  0.00    +0.121 A 
ATOM     13  C   UNL     1      19.094   6.752  28.031  0.00  0.00    +0.143 A 
ATOM     14  N   UNL     1      19.573   7.448  29.125  0.00  0.00    -0.219 N 
ATOM     15  N   UNL     1      20.900   7.220  29.233  0.00  0.00    -0.060 NA
BRANCH  14  16
ATOM     16  C   UNL     1      18.827   8.260  30.031  0.00  0.00    +0.070 A 
ATOM     17  C   UNL     1      18.683   9.667  29.881  0.00  0.00    -0.019 A 
ATOM     18  C   UNL     1      17.944  10.355  30.870  0.00  0.00    +0.006 A 
ATOM     19  C   UNL     1      17.381   9.699  31.966  0.00  0.00    +0.000 A 
ATOM     20  C   UNL     1      17.522   8.327  32.098  0.00  0.00    +0.002 A 
ATOM     21  C   UNL     1      18.240   7.612  31.141  0.00  0.00    +0.028 A 
BRANCH  17  22
ATOM     22  C   UNL     1      19.282  10.477  28.730  0.00  0.00    +0.015 C 
ATOM     23  C   UNL     1      20.075  11.724  29.154  0.00  0.00    +0.012 C 
ATOM     24  C   UNL     1      18.182  10.873  27.742  0.00  0.00    +0.012 C 
ENDBRANCH  17  22
ENDBRANCH  14  16
ENDBRANCH  10  12
ENDBRANCH   9  10
ENDBRANCH   5   9
ENDBRANCH   4   7
ENDBRANCH   1   4
BRANCH   1  25
ATOM     25  C   UNL     1      16.581   0.424  25.932  0.00  0.00    +0.175 C 
BRANCH  25  26
ATOM     26  C   UNL     1      17.486   0.352  24.694  0.00  0.00    +0.176 C 
ATOM     27  O   UNL     1      17.111   1.438  23.803  0.00  0.00    -0.332 OA
ATOM     28  C   UNL     1      17.944   1.593  22.606  0.00  0.00    +0.277 C 
ATOM     29  C   UNL     1      18.006   0.264  21.814  0.00  0.00    +0.110 C 
ATOM     30  C   UNL     1      18.370  -0.926  22.727  0.00  0.00    +0.143 C 
ATOM     31  C   UNL     1      17.443  -0.991  23.941  0.00  0.00    +0.133 C 
BRANCH  31  32
ATOM     32  N   UNL     1      17.854  -2.075  24.847  0.00  0.00    -0.308 N 
ATOM     33  H   UNL     1      18.790  -2.044  25.226  0.00  0.00    +0.149 HD
ATOM     34  C   UNL     1      17.071  -3.098  25.200  0.00  0.00    +0.210 C 
ATOM     35  C   UNL     1      15.659  -3.131  24.585  0.00  0.00    +0.109 C 
ATOM     36  O   UNL     1      17.437  -3.985  25.972  0.00  0.00    -0.276 OA
ENDBRANCH  31  32
BRANCH  28  37
ATOM     37  C   UNL     1      19.373   2.032  22.988  0.00  0.00    +0.414 C 
ATOM     38  O   UNL     1      20.332   1.691  22.297  0.00  0.00    -0.240 OA
ATOM     39  O   UNL     1      19.567   2.728  23.986  0.00  0.00    -0.240 OA
ENDBRANCH  28  37
BRANCH  30  40
ATOM     40  O   UNL     1      18.267  -2.146  21.991  0.00  0.00    -0.390 OA
ATOM     41  H   UNL     1      18.498  -2.884  22.560  0.00  0.00    +0.210 HD
ENDBRANCH  30  40
BRANCH  28  42
ATOM     42  O   UNL     1      17.333   2.601  21.761  0.00  0.00    -0.343 OA
ATOM     43  C   UNL     1      16.763   2.100  20.525  0.00  0.00    +0.198 C 
ENDBRANCH  28  42
ENDBRANCH  25  26
BRANCH  25  44
ATOM     44  O   UNL     1      15.200   0.537  25.533  0.00  0.00    -0.387 OA
ATOM     45  H   UNL     1      15.133   1.121  24.774  0.00  0.00    +0.210 HD
ENDBRANCH  25  44
ENDBRANCH   1  25
TORSDOF 15
