REMARK VINA RESULT:    -6.403     21.712     23.971
REMARK INTER + INTRA:         -13.218
REMARK INTER:                 -10.824
REMARK INTRA:                  -2.394
REMARK UNBOUND:                -2.135
REMARK  Name = lig_assembled_51.pdb
REMARK  16 active torsions:
REMARK  status: ('A' for Active; 'I' for Inactive)
REMARK    1  A    between atoms: _2  and  _9
REMARK    2  A    between atoms: _4  and  _22
REMARK    3  A    between atoms: _6  and  _7
REMARK    4  A    between atoms: _6  and  _22
REMARK    5  A    between atoms: _18  and  _38
REMARK    6  A    between atoms: _20  and  _26
REMARK    7  A    between atoms: _21  and  _25
REMARK    8  A    between atoms: _25  and  _26
REMARK    9  A    between atoms: _28  and  _29
REMARK   10  A    between atoms: _30  and  _31
REMARK   11  A    between atoms: _32  and  _34
REMARK   12  A    between atoms: _34  and  _35
REMARK   13  A    between atoms: _34  and  _36
REMARK   14  A    between atoms: _36  and  _37
REMARK   15  A    between atoms: _36  and  _38
REMARK   16  A    between atoms: _39  and  _41
REMARK                            x       y       z     vdW  Elec       q    Type
REMARK                         _______ _______ _______ _____ _____    ______ ____
ROOT
ATOM      1  C   UNL     1      12.413  23.297  25.751  0.00  0.00    +0.163 C 
ENDROOT
BRANCH   1   2
ATOM      2  O   UNL     1      11.909  22.999  27.064  0.00  0.00    -0.388 OA
ATOM      3  H   UNL     1      11.384  22.196  27.031  0.00  0.00    +0.210 HD
ENDBRANCH   1   2
BRANCH   1   4
ATOM      4  C   UNL     1      13.934  23.399  25.787  0.00  0.00    +0.141 C 
BRANCH   4   7
ATOM      5  C   UNL     1      15.528  22.088  24.428  0.00  0.00    +0.401 C 
ATOM      6  O   UNL     1      16.042  21.530  25.400  0.00  0.00    -0.226 OA
ATOM      7  N   UNL     1      14.541  22.980  24.518  0.00  0.00    -0.279 N 
ATOM      8  H   UNL     1      14.191  23.392  23.664  0.00  0.00    +0.152 HD
BRANCH   5   9
ATOM      9  O   UNL     1      16.005  21.779  23.116  0.00  0.00    -0.444 OA
BRANCH   9  10
ATOM     10  C   UNL     1      16.473  22.974  22.484  0.00  0.00    +0.292 C 
BRANCH  10  12
ATOM     11  N   UNL     1      14.506  24.270  21.725  0.00  0.00    -0.131 NA
ATOM     12  C   UNL     1      15.527  23.407  21.439  0.00  0.00    +0.120 A 
ATOM     13  C   UNL     1      15.473  23.074  20.105  0.00  0.00    +0.137 A 
ATOM     14  N   UNL     1      14.392  23.762  19.628  0.00  0.00    -0.245 N 
ATOM     15  N   UNL     1      13.818  24.480  20.611  0.00  0.00    -0.065 NA
BRANCH  14  16
ATOM     16  C   UNL     1      13.862  23.764  18.263  0.00  0.00    +0.066 C 
ATOM     17  C   UNL     1      13.182  22.401  17.953  0.00  0.00    +0.034 C 
ATOM     18  C   UNL     1      12.577  22.399  16.539  0.00  0.00    -0.008 C 
ATOM     19  C   UNL     1      11.537  23.527  16.431  0.00  0.00    +0.007 C 
ATOM     20  C   UNL     1      12.205  24.887  16.689  0.00  0.00    -0.008 C 
ATOM     21  C   UNL     1      13.322  25.110  15.659  0.00  0.00    +0.007 C 
ATOM     22  C   UNL     1      14.369  23.991  15.771  0.00  0.00    -0.008 C 
ATOM     23  C   UNL     1      13.692  22.636  15.509  0.00  0.00    +0.007 C 
ATOM     24  C   UNL     1      12.808  24.895  18.104  0.00  0.00    +0.034 C 
ATOM     25  C   UNL     1      14.967  23.994  17.188  0.00  0.00    +0.034 C 
ENDBRANCH  14  16
ENDBRANCH  10  12
ENDBRANCH   9  10
ENDBRANCH   5   9
ENDBRANCH   4   7
ENDBRANCH   1   4
BRANCH   1  26
ATOM     26  C   UNL     1      11.822  24.614  25.221  0.00  0.00    +0.175 C 
BRANCH  26  27
ATOM     27  C   UNL     1      10.287  24.582  25.175  0.00  0.00    +0.176 C 
ATOM     28  O   UNL     1       9.870  25.001  23.846  0.00  0.00    -0.332 OA
ATOM     29  C   UNL     1       8.430  24.930  23.582  0.00  0.00    +0.277 C 
ATOM     30  C   UNL     1       7.644  25.727  24.652  0.00  0.00    +0.110 C 
ATOM     31  C   UNL     1       8.075  25.339  26.082  0.00  0.00    +0.143 C 
ATOM     32  C   UNL     1       9.592  25.445  26.245  0.00  0.00    +0.133 C 
BRANCH  32  33
ATOM     33  N   UNL     1       9.999  24.990  27.584  0.00  0.00    -0.308 N 
ATOM     34  H   UNL     1       9.828  24.024  27.826  0.00  0.00    +0.149 HD
ATOM     35  C   UNL     1      10.580  25.770  28.500  0.00  0.00    +0.210 C 
ATOM     36  C   UNL     1      10.803  27.243  28.109  0.00  0.00    +0.109 C 
ATOM     37  O   UNL     1      10.924  25.357  29.608  0.00  0.00    -0.276 OA
ENDBRANCH  32  33
BRANCH  29  38
ATOM     38  C   UNL     1       7.947  23.465  23.572  0.00  0.00    +0.414 C 
ATOM     39  O   UNL     1       7.026  23.110  24.307  0.00  0.00    -0.240 OA
ATOM     40  O   UNL     1       8.477  22.638  22.829  0.00  0.00    -0.240 OA
ENDBRANCH  29  38
BRANCH  31  41
ATOM     41  O   UNL     1       7.439  26.200  27.027  0.00  0.00    -0.390 OA
ATOM     42  H   UNL     1       6.691  25.745  27.422  0.00  0.00    +0.210 HD
ENDBRANCH  31  41
BRANCH  29  43
ATOM     43  O   UNL     1       8.182  25.535  22.287  0.00  0.00    -0.343 OA
ATOM     44  C   UNL     1       9.271  26.339  21.767  0.00  0.00    +0.198 C 
ENDBRANCH  29  43
ENDBRANCH  26  27
BRANCH  26  45
ATOM     45  O   UNL     1      12.352  24.905  23.912  0.00  0.00    -0.387 OA
ATOM     46  H   UNL     1      13.281  24.665  23.883  0.00  0.00    +0.210 HD
ENDBRANCH  26  45
ENDBRANCH   1  26
TORSDOF 14
