REMARK VINA RESULT:    -5.551     13.575     15.798
REMARK INTER + INTRA:         -12.097
REMARK INTER:                  -9.607
REMARK INTRA:                  -2.491
REMARK UNBOUND:                -2.491
REMARK  Name = lig_assembled_57.pdb
REMARK  17 active torsions:
REMARK  status: ('A' for Active; 'I' for Inactive)
REMARK    1  A    between atoms: _2  and  _10
REMARK    2  A    between atoms: _3  and  _13
REMARK    3  A    between atoms: _5  and  _19
REMARK    4  A    between atoms: _7  and  _8
REMARK    5  A    between atoms: _7  and  _19
REMARK    6  A    between atoms: _15  and  _35
REMARK    7  A    between atoms: _17  and  _23
REMARK    8  A    between atoms: _18  and  _22
REMARK    9  A    between atoms: _22  and  _23
REMARK   10  A    between atoms: _25  and  _26
REMARK   11  A    between atoms: _27  and  _28
REMARK   12  A    between atoms: _29  and  _31
REMARK   13  A    between atoms: _31  and  _32
REMARK   14  A    between atoms: _31  and  _33
REMARK   15  A    between atoms: _33  and  _34
REMARK   16  A    between atoms: _33  and  _35
REMARK   17  A    between atoms: _36  and  _38
REMARK                            x       y       z     vdW  Elec       q    Type
REMARK                         _______ _______ _______ _____ _____    ______ ____
ROOT
ATOM      1  C   UNL     1      18.436  10.307  30.387  0.00  0.00    +0.163 C 
ENDROOT
BRANCH   1   2
ATOM      2  O   UNL     1      17.069  10.645  30.674  0.00  0.00    -0.388 OA
ATOM      3  H   UNL     1      16.804  10.232  31.500  0.00  0.00    +0.210 HD
ENDBRANCH   1   2
BRANCH   1   4
ATOM      4  C   UNL     1      18.823  10.829  29.007  0.00  0.00    +0.141 C 
BRANCH   4   7
ATOM      5  C   UNL     1      19.568   9.769  26.903  0.00  0.00    +0.401 C 
ATOM      6  O   UNL     1      20.366  10.666  26.623  0.00  0.00    -0.226 OA
ATOM      7  N   UNL     1      18.801   9.766  27.994  0.00  0.00    -0.279 N 
ATOM      8  H   UNL     1      18.170   8.990  28.132  0.00  0.00    +0.152 HD
BRANCH   5   9
ATOM      9  O   UNL     1      19.436   8.655  26.015  0.00  0.00    -0.444 OA
BRANCH   9  10
ATOM     10  C   UNL     1      19.337   7.448  26.775  0.00  0.00    +0.292 C 
BRANCH  10  12
ATOM     11  N   UNL     1      18.897   6.490  24.542  0.00  0.00    -0.131 NA
ATOM     12  C   UNL     1      19.134   6.299  25.873  0.00  0.00    +0.120 A 
ATOM     13  C   UNL     1      19.164   4.946  26.137  0.00  0.00    +0.137 A 
ATOM     14  N   UNL     1      19.028   4.365  24.912  0.00  0.00    -0.248 N 
ATOM     15  N   UNL     1      18.794   5.302  23.969  0.00  0.00    -0.065 NA
BRANCH  14  16
ATOM     16  C   UNL     1      19.156   2.974  24.491  0.00  0.00    +0.111 C 
ATOM     17  C   UNL     1      18.825   2.023  25.651  0.00  0.00    +0.042 C 
ATOM     18  C   UNL     1      17.318   1.989  25.902  0.00  0.00    +0.086 C 
ATOM     19  N   UNL     1      16.553   1.560  24.726  0.00  0.00    -0.305 NA
ATOM     20  C   UNL     1      16.851   2.360  23.538  0.00  0.00    +0.086 C 
ATOM     21  C   UNL     1      16.664   0.124  24.487  0.00  0.00    +0.104 C 
ATOM     22  C   UNL     1      18.346   2.562  23.251  0.00  0.00    +0.042 C 
ENDBRANCH  14  16
ENDBRANCH  10  12
ENDBRANCH   9  10
ENDBRANCH   5   9
ENDBRANCH   4   7
ENDBRANCH   1   4
BRANCH   1  23
ATOM     23  C   UNL     1      18.649   8.784  30.439  0.00  0.00    +0.175 C 
BRANCH  23  24
ATOM     24  C   UNL     1      17.833   8.125  31.560  0.00  0.00    +0.176 C 
ATOM     25  O   UNL     1      17.822   9.031  32.698  0.00  0.00    -0.332 OA
ATOM     26  C   UNL     1      16.997   8.612  33.834  0.00  0.00    +0.277 C 
ATOM     27  C   UNL     1      17.399   7.191  34.300  0.00  0.00    +0.110 C 
ATOM     28  C   UNL     1      17.455   6.199  33.120  0.00  0.00    +0.143 C 
ATOM     29  C   UNL     1      18.338   6.736  31.993  0.00  0.00    +0.133 C 
BRANCH  29  30
ATOM     30  N   UNL     1      18.314   5.823  30.840  0.00  0.00    -0.308 N 
ATOM     31  H   UNL     1      17.460   5.765  30.301  0.00  0.00    +0.149 HD
ATOM     32  C   UNL     1      19.345   5.065  30.458  0.00  0.00    +0.210 C 
ATOM     33  C   UNL     1      20.622   5.156  31.314  0.00  0.00    +0.109 C 
ATOM     34  O   UNL     1      19.301   4.320  29.478  0.00  0.00    -0.276 OA
ENDBRANCH  29  30
BRANCH  26  35
ATOM     35  C   UNL     1      15.501   8.627  33.458  0.00  0.00    +0.414 C 
ATOM     36  O   UNL     1      15.062   9.483  32.691  0.00  0.00    -0.240 OA
ATOM     37  O   UNL     1      14.732   7.783  33.921  0.00  0.00    -0.240 OA
ENDBRANCH  26  35
BRANCH  28  38
ATOM     38  O   UNL     1      17.973   4.946  33.568  0.00  0.00    -0.390 OA
ATOM     39  H   UNL     1      17.365   4.243  33.329  0.00  0.00    +0.210 HD
ENDBRANCH  28  38
BRANCH  26  40
ATOM     40  O   UNL     1      17.235   9.536  34.927  0.00  0.00    -0.343 OA
ATOM     41  C   UNL     1      17.804  10.812  34.537  0.00  0.00    +0.198 C 
ENDBRANCH  26  40
ENDBRANCH  23  24
BRANCH  23  42
ATOM     42  O   UNL     1      20.049   8.484  30.601  0.00  0.00    -0.387 OA
ATOM     43  H   UNL     1      20.344   7.930  29.874  0.00  0.00    +0.210 HD
ENDBRANCH  23  42
ENDBRANCH   1  23
TORSDOF 14
