REMARK VINA RESULT:    -6.173     15.330     17.624
REMARK INTER + INTRA:         -12.875
REMARK INTER:                 -10.594
REMARK INTRA:                  -2.281
REMARK UNBOUND:                -2.191
REMARK  Name = lig_assembled_48.pdb
REMARK  16 active torsions:
REMARK  status: ('A' for Active; 'I' for Inactive)
REMARK    1  A    between atoms: _2  and  _9
REMARK    2  A    between atoms: _4  and  _18
REMARK    3  A    between atoms: _6  and  _7
REMARK    4  A    between atoms: _6  and  _18
REMARK    5  A    between atoms: _14  and  _34
REMARK    6  A    between atoms: _16  and  _22
REMARK    7  A    between atoms: _17  and  _21
REMARK    8  A    between atoms: _21  and  _22
REMARK    9  A    between atoms: _24  and  _25
REMARK   10  A    between atoms: _26  and  _27
REMARK   11  A    between atoms: _28  and  _30
REMARK   12  A    between atoms: _30  and  _31
REMARK   13  A    between atoms: _30  and  _32
REMARK   14  A    between atoms: _32  and  _33
REMARK   15  A    between atoms: _32  and  _34
REMARK   16  A    between atoms: _35  and  _37
REMARK                            x       y       z     vdW  Elec       q    Type
REMARK                         _______ _______ _______ _____ _____    ______ ____
ROOT
ATOM      1  C   UNL     1      18.127  -1.062  22.266  0.00  0.00    +0.163 C 
ENDROOT
BRANCH   1   2
ATOM      2  O   UNL     1      18.797  -2.310  22.021  0.00  0.00    -0.388 OA
ATOM      3  H   UNL     1      19.270  -2.580  22.812  0.00  0.00    +0.210 HD
ENDBRANCH   1   2
BRANCH   1   4
ATOM      4  C   UNL     1      18.632  -0.000  21.295  0.00  0.00    +0.141 C 
BRANCH   4   7
ATOM      5  C   UNL     1      17.192   1.867  20.554  0.00  0.00    +0.401 C 
ATOM      6  O   UNL     1      16.996   1.395  19.432  0.00  0.00    -0.226 OA
ATOM      7  N   UNL     1      17.948   1.285  21.486  0.00  0.00    -0.279 N 
ATOM      8  H   UNL     1      18.057   1.755  22.374  0.00  0.00    +0.152 HD
BRANCH   5   9
ATOM      9  O   UNL     1      16.586   3.115  20.898  0.00  0.00    -0.444 OA
BRANCH   9  10
ATOM     10  C   UNL     1      16.502   3.230  22.321  0.00  0.00    +0.292 C 
BRANCH  10  12
ATOM     11  N   UNL     1      17.182   5.592  22.578  0.00  0.00    -0.131 NA
ATOM     12  C   UNL     1      17.433   4.268  22.801  0.00  0.00    +0.120 A 
ATOM     13  C   UNL     1      18.605   4.145  23.516  0.00  0.00    +0.137 A 
ATOM     14  N   UNL     1      18.971   5.432  23.781  0.00  0.00    -0.248 N 
ATOM     15  N   UNL     1      18.148   6.296  23.148  0.00  0.00    -0.065 NA
BRANCH  14  16
ATOM     16  C   UNL     1      20.020   5.965  24.642  0.00  0.00    +0.109 C 
ATOM     17  C   UNL     1      19.601   7.316  25.253  0.00  0.00    +0.027 C 
ATOM     18  C   UNL     1      18.528   7.137  26.324  0.00  0.00    +0.002 C 
ATOM     19  C   UNL     1      19.031   6.244  27.452  0.00  0.00    +0.000 C 
ATOM     20  C   UNL     1      19.546   4.898  26.947  0.00  0.00    +0.002 C 
ATOM     21  C   UNL     1      20.510   5.025  25.762  0.00  0.00    +0.027 C 
ENDBRANCH  14  16
ENDBRANCH  10  12
ENDBRANCH   9  10
ENDBRANCH   5   9
ENDBRANCH   4   7
ENDBRANCH   1   4
BRANCH   1  22
ATOM     22  C   UNL     1      18.358  -0.589  23.711  0.00  0.00    +0.175 C 
BRANCH  22  23
ATOM     23  C   UNL     1      18.105  -1.706  24.733  0.00  0.00    +0.176 C 
ATOM     24  O   UNL     1      16.958  -2.477  24.278  0.00  0.00    -0.332 OA
ATOM     25  C   UNL     1      16.631  -3.660  25.080  0.00  0.00    +0.277 C 
ATOM     26  C   UNL     1      16.443  -3.270  26.567  0.00  0.00    +0.110 C 
ATOM     27  C   UNL     1      17.622  -2.422  27.087  0.00  0.00    +0.143 C 
ATOM     28  C   UNL     1      17.878  -1.220  26.177  0.00  0.00    +0.133 C 
BRANCH  28  29
ATOM     29  N   UNL     1      19.058  -0.469  26.634  0.00  0.00    -0.308 N 
ATOM     30  H   UNL     1      19.959  -0.922  26.570  0.00  0.00    +0.149 HD
ATOM     31  C   UNL     1      19.016   0.771  27.127  0.00  0.00    +0.210 C 
ATOM     32  C   UNL     1      17.624   1.424  27.236  0.00  0.00    +0.109 C 
ATOM     33  O   UNL     1      20.022   1.382  27.488  0.00  0.00    -0.276 OA
ENDBRANCH  28  29
BRANCH  25  34
ATOM     34  C   UNL     1      17.741  -4.725  24.963  0.00  0.00    +0.414 C 
ATOM     35  O   UNL     1      18.538  -4.689  24.026  0.00  0.00    -0.240 OA
ATOM     36  O   UNL     1      17.840  -5.619  25.804  0.00  0.00    -0.240 OA
ENDBRANCH  25  34
BRANCH  27  37
ATOM     37  O   UNL     1      17.338  -1.960  28.408  0.00  0.00    -0.390 OA
ATOM     38  H   UNL     1      17.478  -2.673  29.035  0.00  0.00    +0.210 HD
ENDBRANCH  27  37
BRANCH  25  39
ATOM     39  O   UNL     1      15.379  -4.203  24.588  0.00  0.00    -0.343 OA
ATOM     40  C   UNL     1      15.301  -4.353  23.148  0.00  0.00    +0.198 C 
ENDBRANCH  25  39
ENDBRANCH  22  23
BRANCH  22  41
ATOM     41  O   UNL     1      17.520   0.548  24.001  0.00  0.00    -0.387 OA
ATOM     42  H   UNL     1      18.057   1.259  24.359  0.00  0.00    +0.210 HD
ENDBRANCH  22  41
ENDBRANCH   1  22
TORSDOF 14
