REMARK VINA RESULT:    -6.912     14.297     18.164
REMARK INTER + INTRA:         -14.490
REMARK INTER:                 -13.045
REMARK INTRA:                  -1.446
REMARK UNBOUND:                -1.921
REMARK  Name = lig_assembled_23.pdb
REMARK  18 active torsions:
REMARK  status: ('A' for Active; 'I' for Inactive)
REMARK    1  A    between atoms: _2  and  _10
REMARK    2  A    between atoms: _3  and  _41
REMARK    3  A    between atoms: _5  and  _21
REMARK    4  A    between atoms: _7  and  _8
REMARK    5  A    between atoms: _7  and  _21
REMARK    6  A    between atoms: _12  and  _41
REMARK    7  A    between atoms: _17  and  _37
REMARK    8  A    between atoms: _19  and  _25
REMARK    9  A    between atoms: _20  and  _24
REMARK   10  A    between atoms: _24  and  _25
REMARK   11  A    between atoms: _27  and  _28
REMARK   12  A    between atoms: _29  and  _30
REMARK   13  A    between atoms: _31  and  _33
REMARK   14  A    between atoms: _33  and  _34
REMARK   15  A    between atoms: _33  and  _35
REMARK   16  A    between atoms: _35  and  _36
REMARK   17  A    between atoms: _35  and  _37
REMARK   18  A    between atoms: _38  and  _40
REMARK                            x       y       z     vdW  Elec       q    Type
REMARK                         _______ _______ _______ _____ _____    ______ ____
ROOT
ATOM      1  C   UNL     1       4.433   2.892  32.676  0.00  0.00    +0.141 C 
ENDROOT
BRANCH   1   4
ATOM      2  C   UNL     1       2.371   3.268  31.367  0.00  0.00    +0.401 C 
ATOM      3  O   UNL     1       2.142   4.371  31.869  0.00  0.00    -0.226 OA
ATOM      4  N   UNL     1       3.416   2.505  31.690  0.00  0.00    -0.279 N 
ATOM      5  H   UNL     1       3.514   1.611  31.230  0.00  0.00    +0.152 HD
BRANCH   2   6
ATOM      6  O   UNL     1       1.474   2.754  30.379  0.00  0.00    -0.444 OA
BRANCH   6   7
ATOM      7  C   UNL     1       2.185   2.528  29.160  0.00  0.00    +0.292 C 
BRANCH   7   9
ATOM      8  N   UNL     1       0.284   3.789  28.207  0.00  0.00    -0.131 NA
ATOM      9  C   UNL     1       1.499   3.191  28.036  0.00  0.00    +0.121 A 
ATOM     10  C   UNL     1       1.890   3.337  26.724  0.00  0.00    +0.143 A 
ATOM     11  N   UNL     1       0.875   4.047  26.127  0.00  0.00    -0.220 N 
ATOM     12  N   UNL     1      -0.090   4.303  27.044  0.00  0.00    -0.060 NA
BRANCH  11  13
ATOM     13  C   UNL     1       0.760   4.476  24.780  0.00  0.00    +0.069 A 
ATOM     14  C   UNL     1      -0.512   4.602  24.203  0.00  0.00    +0.056 A 
ATOM     15  C   UNL     1      -0.628   4.991  22.864  0.00  0.00    +0.107 A 
ATOM     16  C   UNL     1       0.504   5.282  22.101  0.00  0.00    +0.028 A 
ATOM     17  C   UNL     1       1.767   5.171  22.680  0.00  0.00    +0.004 A 
ATOM     18  C   UNL     1       1.899   4.765  24.013  0.00  0.00    +0.028 A 
BRANCH  15  19
ATOM     19  S   UNL     1      -2.236   5.089  22.136  0.00  0.00    +0.056 S 
ATOM     20  O   UNL     1      -2.886   6.291  22.603  0.00  0.00    -0.153 OA
ATOM     21  O   UNL     1      -2.147   4.742  20.736  0.00  0.00    -0.153 OA
BRANCH  19  22
ATOM     22  N   UNL     1      -3.027   3.799  22.865  0.00  0.00    -0.204 NA
ATOM     23  H   UNL     1      -2.856   3.808  23.869  0.00  0.00    +0.144 HD
ATOM     24  H   UNL     1      -2.767   2.925  22.406  0.00  0.00    +0.144 HD
ENDBRANCH  19  22
ENDBRANCH  15  19
ENDBRANCH  11  13
ENDBRANCH   7   9
ENDBRANCH   6   7
ENDBRANCH   2   6
ENDBRANCH   1   4
BRANCH   1  25
ATOM     25  C   UNL     1       5.559   1.867  32.764  0.00  0.00    +0.163 C 
BRANCH  25  26
ATOM     26  O   UNL     1       5.580   1.058  31.576  0.00  0.00    -0.388 OA
ATOM     27  H   UNL     1       6.369   1.257  31.067  0.00  0.00    +0.210 HD
ENDBRANCH  25  26
BRANCH  25  28
ATOM     28  C   UNL     1       6.901   2.594  32.958  0.00  0.00    +0.175 C 
BRANCH  28  29
ATOM     29  C   UNL     1       6.889   3.510  34.191  0.00  0.00    +0.176 C 
ATOM     30  O   UNL     1       7.083   4.877  33.734  0.00  0.00    -0.332 OA
ATOM     31  C   UNL     1       6.994   5.910  34.769  0.00  0.00    +0.277 C 
ATOM     32  C   UNL     1       7.975   5.601  35.927  0.00  0.00    +0.110 C 
ATOM     33  C   UNL     1       7.828   4.148  36.426  0.00  0.00    +0.143 C 
ATOM     34  C   UNL     1       7.933   3.157  35.266  0.00  0.00    +0.133 C 
BRANCH  34  35
ATOM     35  N   UNL     1       7.705   1.783  35.741  0.00  0.00    -0.308 N 
ATOM     36  H   UNL     1       6.794   1.559  36.118  0.00  0.00    +0.149 HD
ATOM     37  C   UNL     1       8.622   0.812  35.705  0.00  0.00    +0.210 C 
ATOM     38  C   UNL     1      10.007   1.192  35.149  0.00  0.00    +0.109 C 
ATOM     39  O   UNL     1       8.397  -0.334  36.096  0.00  0.00    -0.276 OA
ENDBRANCH  34  35
BRANCH  31  40
ATOM     40  C   UNL     1       5.557   6.008  35.323  0.00  0.00    +0.414 C 
ATOM     41  O   UNL     1       4.593   5.884  34.569  0.00  0.00    -0.240 OA
ATOM     42  O   UNL     1       5.363   6.210  36.522  0.00  0.00    -0.240 OA
ENDBRANCH  31  40
BRANCH  33  43
ATOM     43  O   UNL     1       8.848   3.862  37.384  0.00  0.00    -0.390 OA
ATOM     44  H   UNL     1       8.461   3.413  38.139  0.00  0.00    +0.210 HD
ENDBRANCH  33  43
BRANCH  31  45
ATOM     45  O   UNL     1       7.375   7.177  34.173  0.00  0.00    -0.343 OA
ATOM     46  C   UNL     1       7.773   8.203  35.118  0.00  0.00    +0.198 C 
ENDBRANCH  31  45
ENDBRANCH  28  29
BRANCH  28  47
ATOM     47  O   UNL     1       7.230   3.353  31.778  0.00  0.00    -0.387 OA
ATOM     48  H   UNL     1       6.536   3.993  31.605  0.00  0.00    +0.210 HD
ENDBRANCH  28  47
ENDBRANCH  25  28
ENDBRANCH   1  25
TORSDOF 16
