REMARK VINA RESULT:    -5.765     14.829     18.671
REMARK INTER + INTRA:         -12.731
REMARK INTER:                 -11.083
REMARK INTRA:                  -1.647
REMARK UNBOUND:                -2.078
REMARK  Name = lig_assembled_14.pdb
REMARK  18 active torsions:
REMARK  status: ('A' for Active; 'I' for Inactive)
REMARK    1  A    between atoms: _2  and  _10
REMARK    2  A    between atoms: _3  and  _11
REMARK    3  A    between atoms: _5  and  _19
REMARK    4  A    between atoms: _7  and  _8
REMARK    5  A    between atoms: _7  and  _19
REMARK    6  A    between atoms: _10  and  _11
REMARK    7  A    between atoms: _15  and  _35
REMARK    8  A    between atoms: _17  and  _23
REMARK    9  A    between atoms: _18  and  _22
REMARK   10  A    between atoms: _22  and  _23
REMARK   11  A    between atoms: _25  and  _26
REMARK   12  A    between atoms: _27  and  _28
REMARK   13  A    between atoms: _29  and  _31
REMARK   14  A    between atoms: _31  and  _32
REMARK   15  A    between atoms: _31  and  _33
REMARK   16  A    between atoms: _33  and  _34
REMARK   17  A    between atoms: _33  and  _35
REMARK   18  A    between atoms: _36  and  _38
REMARK                            x       y       z     vdW  Elec       q    Type
REMARK                         _______ _______ _______ _____ _____    ______ ____
ROOT
ATOM      1  C   UNL     1       2.138   2.341  32.893  0.00  0.00    +0.163 C 
ENDROOT
BRANCH   1   2
ATOM      2  O   UNL     1       2.324   1.072  32.244  0.00  0.00    -0.388 OA
ATOM      3  H   UNL     1       2.018   1.129  31.335  0.00  0.00    +0.210 HD
ENDBRANCH   1   2
BRANCH   1   4
ATOM      4  C   UNL     1       3.310   3.291  32.589  0.00  0.00    +0.175 C 
BRANCH   4   5
ATOM      5  C   UNL     1       4.107   3.648  33.851  0.00  0.00    +0.176 C 
ATOM      6  O   UNL     1       4.464   5.056  33.771  0.00  0.00    -0.332 OA
ATOM      7  C   UNL     1       5.143   5.605  34.948  0.00  0.00    +0.277 C 
ATOM      8  C   UNL     1       6.399   4.765  35.290  0.00  0.00    +0.110 C 
ATOM      9  C   UNL     1       6.075   3.258  35.354  0.00  0.00    +0.143 C 
ATOM     10  C   UNL     1       5.367   2.794  34.081  0.00  0.00    +0.133 C 
BRANCH  10  11
ATOM     11  N   UNL     1       4.987   1.376  34.190  0.00  0.00    -0.308 N 
ATOM     12  H   UNL     1       4.251   1.135  34.838  0.00  0.00    +0.149 HD
ATOM     13  C   UNL     1       5.551   0.389  33.490  0.00  0.00    +0.210 C 
ATOM     14  C   UNL     1       6.689   0.787  32.530  0.00  0.00    +0.109 C 
ATOM     15  O   UNL     1       5.202  -0.787  33.591  0.00  0.00    -0.276 OA
ENDBRANCH  10  11
BRANCH   7  16
ATOM     16  C   UNL     1       4.195   5.632  36.165  0.00  0.00    +0.414 C 
ATOM     17  O   UNL     1       4.621   5.941  37.277  0.00  0.00    -0.240 OA
ATOM     18  O   UNL     1       3.004   5.344  36.035  0.00  0.00    -0.240 OA
ENDBRANCH   7  16
BRANCH   9  19
ATOM     19  O   UNL     1       7.282   2.513  35.520  0.00  0.00    -0.390 OA
ATOM     20  H   UNL     1       8.002   3.112  35.732  0.00  0.00    +0.210 HD
ENDBRANCH   9  19
BRANCH   7  21
ATOM     21  O   UNL     1       5.569   6.956  34.631  0.00  0.00    -0.343 OA
ATOM     22  C   UNL     1       6.987   7.207  34.802  0.00  0.00    +0.198 C 
ENDBRANCH   7  21
ENDBRANCH   4   5
BRANCH   4  23
ATOM     23  O   UNL     1       2.824   4.489  31.952  0.00  0.00    -0.387 OA
ATOM     24  H   UNL     1       2.236   4.253  31.230  0.00  0.00    +0.210 HD
ENDBRANCH   4  23
ENDBRANCH   1   4
BRANCH   1  25
ATOM     25  C   UNL     1       0.832   2.978  32.430  0.00  0.00    +0.141 C 
BRANCH  25  28
ATOM     26  C   UNL     1       0.220   3.475  30.089  0.00  0.00    +0.401 C 
ATOM     27  O   UNL     1       0.210   4.698  30.252  0.00  0.00    -0.226 OA
ATOM     28  N   UNL     1       0.495   2.597  31.054  0.00  0.00    -0.279 N 
ATOM     29  H   UNL     1       0.469   1.613  30.824  0.00  0.00    +0.152 HD
BRANCH  26  30
ATOM     30  O   UNL     1      -0.081   2.945  28.795  0.00  0.00    -0.444 OA
BRANCH  30  31
ATOM     31  C   UNL     1      -0.988   3.820  28.120  0.00  0.00    +0.292 C 
BRANCH  31  33
ATOM     32  N   UNL     1      -0.945   5.345  26.171  0.00  0.00    -0.131 NA
ATOM     33  C   UNL     1      -0.406   4.281  26.845  0.00  0.00    +0.120 A 
ATOM     34  C   UNL     1       0.666   3.792  26.133  0.00  0.00    +0.137 A 
ATOM     35  N   UNL     1       0.718   4.593  25.033  0.00  0.00    -0.250 N 
ATOM     36  N   UNL     1      -0.245   5.530  25.062  0.00  0.00    -0.065 NA
BRANCH  35  37
ATOM     37  C   UNL     1       1.609   4.497  23.896  0.00  0.00    +0.160 C 
BRANCH  37  38
ATOM     38  C   UNL     1       1.655   3.074  23.326  0.00  0.00    +0.107 C 
BRANCH  38  39
ATOM     39  N   UNL     1       1.328   3.019  21.890  0.00  0.00    -0.301 NA
ATOM     40  C   UNL     1       1.810   4.186  21.145  0.00  0.00    +0.084 C 
ATOM     41  C   UNL     1       1.736   3.712  19.708  0.00  0.00    +0.017 C 
ATOM     42  C   UNL     1       2.159   2.256  19.785  0.00  0.00    +0.017 C 
ATOM     43  C   UNL     1       1.934   1.849  21.238  0.00  0.00    +0.084 C 
ENDBRANCH  38  39
ENDBRANCH  37  38
ENDBRANCH  35  37
ENDBRANCH  31  33
ENDBRANCH  30  31
ENDBRANCH  26  30
ENDBRANCH  25  28
ENDBRANCH   1  25
TORSDOF 16
