REMARK VINA RESULT:    -5.599      2.592     10.653
REMARK INTER + INTRA:         -15.853
REMARK INTER:                 -12.642
REMARK INTRA:                  -3.211
REMARK UNBOUND:                -2.725
REMARK  Name = lig_assembled_30.pdb
REMARK  27 active torsions:
REMARK  status: ('A' for Active; 'I' for Inactive)
REMARK    1  A    between atoms: _2  and  _9
REMARK    2  A    between atoms: _4  and  _25
REMARK    3  A    between atoms: _5  and  _18
REMARK    4  A    between atoms: _5  and  _19
REMARK    5  A    between atoms: _6  and  _7
REMARK    6  A    between atoms: _6  and  _25
REMARK    7  A    between atoms: _9  and  _10
REMARK    8  A    between atoms: _10  and  _11
REMARK    9  A    between atoms: _11  and  _12
REMARK   10  A    between atoms: _12  and  _13
REMARK   11  A    between atoms: _13  and  _14
REMARK   12  A    between atoms: _14  and  _15
REMARK   13  A    between atoms: _15  and  _16
REMARK   14  A    between atoms: _16  and  _17
REMARK   15  A    between atoms: _17  and  _18
REMARK   16  A    between atoms: _21  and  _41
REMARK   17  A    between atoms: _23  and  _29
REMARK   18  A    between atoms: _24  and  _28
REMARK   19  A    between atoms: _28  and  _29
REMARK   20  A    between atoms: _31  and  _32
REMARK   21  A    between atoms: _33  and  _34
REMARK   22  A    between atoms: _35  and  _37
REMARK   23  A    between atoms: _37  and  _38
REMARK   24  A    between atoms: _37  and  _39
REMARK   25  A    between atoms: _39  and  _40
REMARK   26  A    between atoms: _39  and  _41
REMARK   27  A    between atoms: _42  and  _44
REMARK                            x       y       z     vdW  Elec       q    Type
REMARK                         _______ _______ _______ _____ _____    ______ ____
ROOT
ATOM      1  C   UNL     1      17.545   5.414  22.944  0.00  0.00    +0.401 C 
ATOM      2  O   UNL     1      16.753   5.464  22.000  0.00  0.00    -0.226 OA
ATOM      3  N   UNL     1      17.942   4.281  23.525  0.00  0.00    -0.279 N 
ATOM      4  H   UNL     1      18.602   4.341  24.287  0.00  0.00    +0.152 HD
ENDROOT
BRANCH   1   5
ATOM      5  O   UNL     1      18.088   6.632  23.461  0.00  0.00    -0.444 OA
BRANCH   5   6
ATOM      6  C   UNL     1      19.409   6.394  23.955  0.00  0.00    +0.292 C 
BRANCH   6   8
ATOM      7  N   UNL     1      20.818   7.776  25.449  0.00  0.00    -0.131 NA
ATOM      8  C   UNL     1      19.629   7.140  25.207  0.00  0.00    +0.120 A 
ATOM      9  C   UNL     1      18.787   7.332  26.281  0.00  0.00    +0.137 A 
ATOM     10  N   UNL     1      19.525   8.091  27.139  0.00  0.00    -0.251 N 
ATOM     11  N   UNL     1      20.743   8.356  26.640  0.00  0.00    -0.065 NA
BRANCH  10  12
ATOM     12  C   UNL     1      19.152   8.560  28.455  0.00  0.00    +0.145 C 
BRANCH  12  13
ATOM     13  C   UNL     1      18.907  10.065  28.457  0.00  0.00    +0.023 C 
BRANCH  13  14
ATOM     14  C   UNL     1      18.300  10.545  29.773  0.00  0.00    +0.002 C 
BRANCH  14  15
ATOM     15  C   UNL     1      19.387  11.137  30.669  0.00  0.00    +0.000 C 
BRANCH  15  16
ATOM     16  C   UNL     1      19.209  10.723  32.127  0.00  0.00    +0.000 C 
BRANCH  16  17
ATOM     17  C   UNL     1      17.957  11.367  32.726  0.00  0.00    +0.000 C 
BRANCH  17  18
ATOM     18  C   UNL     1      17.807  11.000  34.199  0.00  0.00    +0.000 C 
BRANCH  18  19
ATOM     19  C   UNL     1      16.372  10.593  34.535  0.00  0.00    +0.001 C 
BRANCH  19  20
ATOM     20  C   UNL     1      15.579  10.327  33.257  0.00  0.00    +0.011 C 
BRANCH  20  21
ATOM     21  C   UNL     1      15.014   8.909  33.221  0.00  0.00    +0.120 C 
BRANCH  21  22
ATOM     22  C   UNL     1      16.021   7.927  32.669  0.00  0.00    +0.305 C 
ATOM     23  O   UNL     1      16.756   8.127  31.714  0.00  0.00    -0.251 OA
BRANCH  22  24
ATOM     24  O   UNL     1      16.033   6.761  33.354  0.00  0.00    -0.481 OA
ATOM     25  H   UNL     1      15.154   6.344  33.435  0.00  0.00    +0.295 HD
ENDBRANCH  22  24
ENDBRANCH  21  22
ENDBRANCH  20  21
ENDBRANCH  19  20
ENDBRANCH  18  19
ENDBRANCH  17  18
ENDBRANCH  16  17
ENDBRANCH  15  16
ENDBRANCH  14  15
ENDBRANCH  13  14
ENDBRANCH  12  13
ENDBRANCH  10  12
ENDBRANCH   6   8
ENDBRANCH   5   6
ENDBRANCH   1   5
BRANCH   3  26
ATOM     26  C   UNL     1      17.472   2.950  23.119  0.00  0.00    +0.141 C 
BRANCH  26  27
ATOM     27  C   UNL     1      18.629   2.024  22.759  0.00  0.00    +0.163 C 
BRANCH  27  28
ATOM     28  O   UNL     1      19.878   2.634  23.123  0.00  0.00    -0.388 OA
ATOM     29  H   UNL     1      20.445   2.689  22.350  0.00  0.00    +0.210 HD
ENDBRANCH  27  28
BRANCH  27  30
ATOM     30  C   UNL     1      18.447   0.674  23.473  0.00  0.00    +0.175 C 
BRANCH  30  31
ATOM     31  C   UNL     1      18.152   0.846  24.971  0.00  0.00    +0.176 C 
ATOM     32  O   UNL     1      19.364   1.331  25.612  0.00  0.00    -0.332 OA
ATOM     33  C   UNL     1      19.241   1.656  27.036  0.00  0.00    +0.277 C 
ATOM     34  C   UNL     1      18.681   0.445  27.822  0.00  0.00    +0.110 C 
ATOM     35  C   UNL     1      17.409  -0.125  27.159  0.00  0.00    +0.143 C 
ATOM     36  C   UNL     1      17.649  -0.425  25.679  0.00  0.00    +0.133 C 
BRANCH  36  37
ATOM     37  N   UNL     1      16.406  -0.885  25.039  0.00  0.00    -0.308 N 
ATOM     38  H   UNL     1      15.603  -0.273  25.075  0.00  0.00    +0.149 HD
ATOM     39  C   UNL     1      16.271  -2.057  24.414  0.00  0.00    +0.210 C 
ATOM     40  C   UNL     1      17.506  -2.977  24.399  0.00  0.00    +0.109 C 
ATOM     41  O   UNL     1      15.222  -2.410  23.874  0.00  0.00    -0.276 OA
ENDBRANCH  36  37
BRANCH  33  42
ATOM     42  C   UNL     1      18.318   2.875  27.240  0.00  0.00    +0.414 C 
ATOM     43  O   UNL     1      17.544   2.913  28.196  0.00  0.00    -0.240 OA
ATOM     44  O   UNL     1      18.346   3.819  26.450  0.00  0.00    -0.240 OA
ENDBRANCH  33  42
BRANCH  35  45
ATOM     45  O   UNL     1      17.016  -1.325  27.825  0.00  0.00    -0.390 OA
ATOM     46  H   UNL     1      17.723  -1.617  28.405  0.00  0.00    +0.210 HD
ENDBRANCH  35  45
BRANCH  33  47
ATOM     47  O   UNL     1      20.567   1.958  27.543  0.00  0.00    -0.343 OA
ATOM     48  C   UNL     1      20.806   1.546  28.913  0.00  0.00    +0.198 C 
ENDBRANCH  33  47
ENDBRANCH  30  31
BRANCH  30  49
ATOM     49  O   UNL     1      19.618  -0.147  23.289  0.00  0.00    -0.387 OA
ATOM     50  H   UNL     1      20.105  -0.199  24.114  0.00  0.00    +0.210 HD
ENDBRANCH  30  49
ENDBRANCH  27  30
ENDBRANCH  26  27
ENDBRANCH   3  26
TORSDOF 25
