REMARK VINA RESULT:    -5.932      7.906     12.682
REMARK INTER + INTRA:         -13.987
REMARK INTER:                  -9.479
REMARK INTRA:                  -4.509
REMARK UNBOUND:                -1.813
REMARK  Name = lig_assembled_33.pdb
REMARK  22 active torsions:
REMARK  status: ('A' for Active; 'I' for Inactive)
REMARK    1  A    between atoms: _2  and  _9
REMARK    2  A    between atoms: _4  and  _20
REMARK    3  A    between atoms: _5  and  _13
REMARK    4  A    between atoms: _5  and  _14
REMARK    5  A    between atoms: _6  and  _7
REMARK    6  A    between atoms: _6  and  _20
REMARK    7  A    between atoms: _9  and  _10
REMARK    8  A    between atoms: _10  and  _11
REMARK    9  A    between atoms: _11  and  _12
REMARK   10  A    between atoms: _12  and  _13
REMARK   11  A    between atoms: _16  and  _36
REMARK   12  A    between atoms: _18  and  _24
REMARK   13  A    between atoms: _19  and  _23
REMARK   14  A    between atoms: _23  and  _24
REMARK   15  A    between atoms: _26  and  _27
REMARK   16  A    between atoms: _28  and  _29
REMARK   17  A    between atoms: _30  and  _32
REMARK   18  A    between atoms: _32  and  _33
REMARK   19  A    between atoms: _32  and  _34
REMARK   20  A    between atoms: _34  and  _35
REMARK   21  A    between atoms: _34  and  _36
REMARK   22  A    between atoms: _37  and  _39
REMARK                            x       y       z     vdW  Elec       q    Type
REMARK                         _______ _______ _______ _____ _____    ______ ____
ROOT
ATOM      1  C   UNL     1       8.228   2.173  36.057  0.00  0.00    +0.163 C 
ENDROOT
BRANCH   1   2
ATOM      2  O   UNL     1       8.437   2.370  37.465  0.00  0.00    -0.388 OA
ATOM      3  H   UNL     1       8.368   1.527  37.920  0.00  0.00    +0.210 HD
ENDBRANCH   1   2
BRANCH   1   4
ATOM      4  C   UNL     1       8.795   3.352  35.247  0.00  0.00    +0.175 C 
BRANCH   4   5
ATOM      5  C   UNL     1       7.748   4.451  35.015  0.00  0.00    +0.176 C 
ATOM      6  O   UNL     1       7.575   5.175  36.263  0.00  0.00    -0.332 OA
ATOM      7  C   UNL     1       6.683   6.337  36.204  0.00  0.00    +0.277 C 
ATOM      8  C   UNL     1       5.300   5.929  35.640  0.00  0.00    +0.110 C 
ATOM      9  C   UNL     1       5.434   5.128  34.328  0.00  0.00    +0.143 C 
ATOM     10  C   UNL     1       6.386   3.945  34.502  0.00  0.00    +0.133 C 
BRANCH  10  11
ATOM     11  N   UNL     1       6.573   3.241  33.223  0.00  0.00    -0.308 N 
ATOM     12  H   UNL     1       7.093   3.714  32.496  0.00  0.00    +0.149 HD
ATOM     13  C   UNL     1       6.102   2.020  32.960  0.00  0.00    +0.210 C 
ATOM     14  C   UNL     1       5.293   1.337  34.079  0.00  0.00    +0.109 C 
ATOM     15  O   UNL     1       6.287   1.449  31.885  0.00  0.00    -0.276 OA
ENDBRANCH  10  11
BRANCH   7  16
ATOM     16  C   UNL     1       7.291   7.449  35.324  0.00  0.00    +0.414 C 
ATOM     17  O   UNL     1       8.494   7.701  35.386  0.00  0.00    -0.240 OA
ATOM     18  O   UNL     1       6.579   8.094  34.553  0.00  0.00    -0.240 OA
ENDBRANCH   7  16
BRANCH   9  19
ATOM     19  O   UNL     1       4.152   4.645  33.925  0.00  0.00    -0.390 OA
ATOM     20  H   UNL     1       3.676   4.320  34.694  0.00  0.00    +0.210 HD
ENDBRANCH   9  19
BRANCH   7  21
ATOM     21  O   UNL     1       6.498   6.830  37.556  0.00  0.00    -0.343 OA
ATOM     22  C   UNL     1       7.674   6.755  38.401  0.00  0.00    +0.198 C 
ENDBRANCH   7  21
ENDBRANCH   4   5
BRANCH   4  23
ATOM     23  O   UNL     1       9.313   2.884  33.985  0.00  0.00    -0.387 OA
ATOM     24  H   UNL     1       8.664   2.316  33.564  0.00  0.00    +0.210 HD
ENDBRANCH   4  23
ENDBRANCH   1   4
BRANCH   1  25
ATOM     25  C   UNL     1       8.895   0.878  35.606  0.00  0.00    +0.141 C 
BRANCH  25  28
ATOM     26  C   UNL     1      10.978  -0.230  36.343  0.00  0.00    +0.401 C 
ATOM     27  O   UNL     1      10.445  -1.329  36.509  0.00  0.00    -0.226 OA
ATOM     28  N   UNL     1      10.327   0.859  35.929  0.00  0.00    -0.279 N 
ATOM     29  H   UNL     1      10.849   1.718  35.831  0.00  0.00    +0.152 HD
BRANCH  26  30
ATOM     30  O   UNL     1      12.376  -0.088  36.607  0.00  0.00    -0.444 OA
BRANCH  30  31
ATOM     31  C   UNL     1      13.079   0.100  35.376  0.00  0.00    +0.292 C 
BRANCH  31  33
ATOM     32  N   UNL     1      12.471   2.372  34.610  0.00  0.00    -0.131 NA
ATOM     33  C   UNL     1      13.390   1.527  35.174  0.00  0.00    +0.120 A 
ATOM     34  C   UNL     1      14.536   2.237  35.465  0.00  0.00    +0.137 A 
ATOM     35  N   UNL     1      14.244   3.505  35.063  0.00  0.00    -0.251 N 
ATOM     36  N   UNL     1      13.011   3.580  34.534  0.00  0.00    -0.065 NA
BRANCH  35  37
ATOM     37  C   UNL     1      15.082   4.684  35.135  0.00  0.00    +0.145 C 
BRANCH  37  38
ATOM     38  C   UNL     1      14.499   5.747  36.064  0.00  0.00    +0.023 C 
BRANCH  38  39
ATOM     39  C   UNL     1      14.865   5.512  37.532  0.00  0.00    +0.002 C 
BRANCH  39  40
ATOM     40  C   UNL     1      13.640   5.006  38.299  0.00  0.00    +0.011 C 
BRANCH  40  41
ATOM     41  C   UNL     1      12.334   5.224  37.540  0.00  0.00    +0.120 C 
BRANCH  41  42
ATOM     42  C   UNL     1      11.295   4.196  37.929  0.00  0.00    +0.305 C 
ATOM     43  O   UNL     1      10.311   4.411  38.619  0.00  0.00    -0.251 OA
BRANCH  42  44
ATOM     44  O   UNL     1      11.565   2.972  37.419  0.00  0.00    -0.481 OA
ATOM     45  H   UNL     1      12.044   2.386  38.031  0.00  0.00    +0.295 HD
ENDBRANCH  42  44
ENDBRANCH  41  42
ENDBRANCH  40  41
ENDBRANCH  39  40
ENDBRANCH  38  39
ENDBRANCH  37  38
ENDBRANCH  35  37
ENDBRANCH  31  33
ENDBRANCH  30  31
ENDBRANCH  26  30
ENDBRANCH  25  28
ENDBRANCH   1  25
TORSDOF 20
