REMARK VINA RESULT:    -5.461      2.234      4.195
REMARK INTER + INTRA:         -13.538
REMARK INTER:                 -11.380
REMARK INTRA:                  -2.158
REMARK UNBOUND:                -2.172
REMARK  Name = lig_assembled_54.pdb
REMARK  24 active torsions:
REMARK  status: ('A' for Active; 'I' for Inactive)
REMARK    1  A    between atoms: _2  and  _9
REMARK    2  A    between atoms: _4  and  _21
REMARK    3  A    between atoms: _5  and  _14
REMARK    4  A    between atoms: _6  and  _7
REMARK    5  A    between atoms: _6  and  _21
REMARK    6  A    between atoms: _9  and  _10
REMARK    7  A    between atoms: _10  and  _11
REMARK    8  A    between atoms: _11  and  _15
REMARK    9  A    between atoms: _11  and  _16
REMARK   10  A    between atoms: _12  and  _13
REMARK   11  A    between atoms: _12  and  _16
REMARK   12  A    between atoms: _14  and  _15
REMARK   13  A    between atoms: _17  and  _37
REMARK   14  A    between atoms: _19  and  _25
REMARK   15  A    between atoms: _20  and  _24
REMARK   16  A    between atoms: _24  and  _25
REMARK   17  A    between atoms: _27  and  _28
REMARK   18  A    between atoms: _29  and  _30
REMARK   19  A    between atoms: _31  and  _33
REMARK   20  A    between atoms: _33  and  _34
REMARK   21  A    between atoms: _33  and  _35
REMARK   22  A    between atoms: _35  and  _36
REMARK   23  A    between atoms: _35  and  _37
REMARK   24  A    between atoms: _38  and  _40
REMARK                            x       y       z     vdW  Elec       q    Type
REMARK                         _______ _______ _______ _____ _____    ______ ____
ROOT
ATOM      1  C   UNL     1       6.942   2.348  33.435  0.00  0.00    +0.163 C 
ENDROOT
BRANCH   1   2
ATOM      2  O   UNL     1       8.251   2.143  32.878  0.00  0.00    -0.388 OA
ATOM      3  H   UNL     1       8.912   2.519  33.464  0.00  0.00    +0.210 HD
ENDBRANCH   1   2
BRANCH   1   4
ATOM      4  C   UNL     1       7.032   2.738  34.921  0.00  0.00    +0.175 C 
BRANCH   4   5
ATOM      5  C   UNL     1       6.455   4.136  35.187  0.00  0.00    +0.176 C 
ATOM      6  O   UNL     1       7.542   4.990  35.639  0.00  0.00    -0.332 OA
ATOM      7  C   UNL     1       7.197   6.400  35.843  0.00  0.00    +0.277 C 
ATOM      8  C   UNL     1       5.995   6.529  36.809  0.00  0.00    +0.110 C 
ATOM      9  C   UNL     1       4.825   5.615  36.388  0.00  0.00    +0.143 C 
ATOM     10  C   UNL     1       5.296   4.172  36.201  0.00  0.00    +0.133 C 
BRANCH  10  11
ATOM     11  N   UNL     1       4.192   3.329  35.715  0.00  0.00    -0.308 N 
ATOM     12  H   UNL     1       3.821   3.521  34.795  0.00  0.00    +0.149 HD
ATOM     13  C   UNL     1       3.648   2.327  36.411  0.00  0.00    +0.210 C 
ATOM     14  C   UNL     1       4.218   2.077  37.821  0.00  0.00    +0.109 C 
ATOM     15  O   UNL     1       2.734   1.628  35.973  0.00  0.00    -0.276 OA
ENDBRANCH  10  11
BRANCH   7  16
ATOM     16  C   UNL     1       6.855   7.079  34.500  0.00  0.00    +0.414 C 
ATOM     17  O   UNL     1       7.296   6.625  33.445  0.00  0.00    -0.240 OA
ATOM     18  O   UNL     1       6.139   8.080  34.472  0.00  0.00    -0.240 OA
ENDBRANCH   7  16
BRANCH   9  19
ATOM     19  O   UNL     1       3.802   5.651  37.384  0.00  0.00    -0.390 OA
ATOM     20  H   UNL     1       3.227   4.889  37.281  0.00  0.00    +0.210 HD
ENDBRANCH   9  19
BRANCH   7  21
ATOM     21  O   UNL     1       8.341   7.059  36.445  0.00  0.00    -0.343 OA
ATOM     22  C   UNL     1       8.440   6.918  37.885  0.00  0.00    +0.198 C 
ENDBRANCH   7  21
ENDBRANCH   4   5
BRANCH   4  23
ATOM     23  O   UNL     1       8.400   2.671  35.370  0.00  0.00    -0.387 OA
ATOM     24  H   UNL     1       8.465   3.041  36.254  0.00  0.00    +0.210 HD
ENDBRANCH   4  23
ENDBRANCH   1   4
BRANCH   1  25
ATOM     25  C   UNL     1       6.213   3.444  32.664  0.00  0.00    +0.141 C 
BRANCH  25  28
ATOM     26  C   UNL     1       3.809   3.304  32.111  0.00  0.00    +0.401 C 
ATOM     27  O   UNL     1       3.470   4.138  32.953  0.00  0.00    -0.226 OA
ATOM     28  N   UNL     1       5.069   2.915  31.911  0.00  0.00    -0.279 N 
ATOM     29  H   UNL     1       5.247   2.216  31.203  0.00  0.00    +0.152 HD
BRANCH  26  30
ATOM     30  O   UNL     1       2.807   2.700  31.289  0.00  0.00    -0.444 OA
BRANCH  30  31
ATOM     31  C   UNL     1       1.587   3.438  31.402  0.00  0.00    +0.292 C 
BRANCH  31  33
ATOM     32  N   UNL     1      -0.202   4.293  29.919  0.00  0.00    -0.131 NA
ATOM     33  C   UNL     1       0.965   3.593  30.073  0.00  0.00    +0.120 A 
ATOM     34  C   UNL     1       1.385   3.140  28.841  0.00  0.00    +0.137 A 
ATOM     35  N   UNL     1       0.453   3.629  27.976  0.00  0.00    -0.251 N 
ATOM     36  N   UNL     1      -0.503   4.316  28.627  0.00  0.00    -0.065 NA
BRANCH  35  37
ATOM     37  C   UNL     1       0.434   3.540  26.530  0.00  0.00    +0.150 C 
BRANCH  37  38
ATOM     38  C   UNL     1       1.754   3.022  25.980  0.00  0.00    +0.084 C 
BRANCH  38  39
ATOM     39  C   UNL     1       1.816   3.017  24.448  0.00  0.00    +0.252 C 
BRANCH  39  40
ATOM     40  O   UNL     1       2.749   2.033  23.995  0.00  0.00    -0.352 OA
BRANCH  40  41
ATOM     41  C   UNL     1       2.689   0.801  24.710  0.00  0.00    +0.159 C 
ATOM     42  C   UNL     1       2.175  -0.280  23.780  0.00  0.00    +0.034 C 
ENDBRANCH  40  41
ENDBRANCH  39  40
BRANCH  39  43
ATOM     43  O   UNL     1       2.241   4.319  24.027  0.00  0.00    -0.352 OA
BRANCH  43  44
ATOM     44  C   UNL     1       1.392   4.874  23.021  0.00  0.00    +0.159 C 
ATOM     45  C   UNL     1       1.867   4.409  21.659  0.00  0.00    +0.034 C 
ENDBRANCH  43  44
ENDBRANCH  39  43
ENDBRANCH  38  39
ENDBRANCH  37  38
ENDBRANCH  35  37
ENDBRANCH  31  33
ENDBRANCH  30  31
ENDBRANCH  26  30
ENDBRANCH  25  28
ENDBRANCH   1  25
TORSDOF 20
