REMARK VINA RESULT:    -5.528     19.156     22.053
REMARK INTER + INTRA:         -13.205
REMARK INTER:                  -8.254
REMARK INTRA:                  -4.950
REMARK UNBOUND:                -3.313
REMARK  Name = lig_assembled_71.pdb
REMARK  17 active torsions:
REMARK  status: ('A' for Active; 'I' for Inactive)
REMARK    1  A    between atoms: _2  and  _12
REMARK    2  A    between atoms: _7  and  _22
REMARK    3  A    between atoms: _9  and  _10
REMARK    4  A    between atoms: _9  and  _22
REMARK    5  A    between atoms: _12  and  _13
REMARK    6  A    between atoms: _18  and  _38
REMARK    7  A    between atoms: _20  and  _26
REMARK    8  A    between atoms: _21  and  _25
REMARK    9  A    between atoms: _25  and  _26
REMARK   10  A    between atoms: _28  and  _29
REMARK   11  A    between atoms: _30  and  _31
REMARK   12  A    between atoms: _32  and  _34
REMARK   13  A    between atoms: _34  and  _35
REMARK   14  A    between atoms: _34  and  _36
REMARK   15  A    between atoms: _36  and  _37
REMARK   16  A    between atoms: _36  and  _38
REMARK   17  A    between atoms: _39  and  _41
REMARK                            x       y       z     vdW  Elec       q    Type
REMARK                         _______ _______ _______ _____ _____    ______ ____
ROOT
ATOM      1  C   UNL     1      -3.075  24.030  22.893  0.00  0.00    +0.163 C 
ENDROOT
BRANCH   1   2
ATOM      2  O   UNL     1      -2.068  25.050  22.786  0.00  0.00    -0.388 OA
ATOM      3  H   UNL     1      -2.347  25.827  23.277  0.00  0.00    +0.210 HD
ENDBRANCH   1   2
BRANCH   1   4
ATOM      4  C   UNL     1      -3.670  24.028  24.297  0.00  0.00    +0.141 C 
BRANCH   4   7
ATOM      5  C   UNL     1      -3.419  22.732  26.386  0.00  0.00    +0.401 C 
ATOM      6  O   UNL     1      -3.929  23.601  27.097  0.00  0.00    -0.226 OA
ATOM      7  N   UNL     1      -3.252  22.851  25.068  0.00  0.00    -0.279 N 
ATOM      8  H   UNL     1      -2.814  22.088  24.572  0.00  0.00    +0.152 HD
BRANCH   5   9
ATOM      9  O   UNL     1      -2.966  21.517  26.989  0.00  0.00    -0.444 OA
BRANCH   9  10
ATOM     10  C   UNL     1      -4.079  20.643  27.195  0.00  0.00    +0.292 C 
BRANCH  10  12
ATOM     11  N   UNL     1      -3.625  19.888  24.874  0.00  0.00    -0.131 NA
ATOM     12  C   UNL     1      -4.502  20.042  25.916  0.00  0.00    +0.120 A 
ATOM     13  C   UNL     1      -5.732  19.556  25.540  0.00  0.00    +0.137 A 
ATOM     14  N   UNL     1      -5.548  19.135  24.255  0.00  0.00    -0.242 N 
ATOM     15  N   UNL     1      -4.275  19.323  23.863  0.00  0.00    -0.065 NA
BRANCH  14  16
ATOM     16  C   UNL     1      -6.481  18.449  23.385  0.00  0.00    +0.241 C 
BRANCH  16  17
ATOM     17  C   UNL     1      -6.097  18.587  21.935  0.00  0.00    +0.241 C 
ATOM     18  O   UNL     1      -5.907  17.583  21.249  0.00  0.00    -0.273 OA
ATOM     19  N   UNL     1      -5.916  19.886  21.512  0.00  0.00    -0.253 N 
ATOM     20  H   UNL     1      -5.884  20.662  22.155  0.00  0.00    +0.158 HD
ATOM     21  C   UNL     1      -5.583  20.238  20.208  0.00  0.00    +0.221 A 
ATOM     22  N   UNL     1      -5.164  21.501  20.043  0.00  0.00    -0.223 NA
ATOM     23  C   UNL     1      -4.766  21.838  18.797  0.00  0.00    +0.116 A 
ATOM     24  C   UNL     1      -4.799  20.979  17.726  0.00  0.00    +0.039 A 
ATOM     25  C   UNL     1      -5.288  19.728  17.995  0.00  0.00    +0.116 A 
ATOM     26  N   UNL     1      -5.680  19.344  19.219  0.00  0.00    -0.223 NA
ENDBRANCH  16  17
ENDBRANCH  14  16
ENDBRANCH  10  12
ENDBRANCH   9  10
ENDBRANCH   5   9
ENDBRANCH   4   7
ENDBRANCH   1   4
BRANCH   1  27
ATOM     27  C   UNL     1      -2.486  22.642  22.583  0.00  0.00    +0.175 C 
BRANCH  27  28
ATOM     28  C   UNL     1      -1.616  22.653  21.318  0.00  0.00    +0.176 C 
ATOM     29  O   UNL     1      -2.188  23.615  20.390  0.00  0.00    -0.332 OA
ATOM     30  C   UNL     1      -1.424  23.840  19.159  0.00  0.00    +0.277 C 
ATOM     31  C   UNL     1      -1.167  22.498  18.429  0.00  0.00    +0.110 C 
ATOM     32  C   UNL     1      -0.588  21.433  19.384  0.00  0.00    +0.143 C 
ATOM     33  C   UNL     1      -1.459  21.283  20.632  0.00  0.00    +0.133 C 
BRANCH  33  34
ATOM     34  N   UNL     1      -0.851  20.329  21.573  0.00  0.00    -0.308 N 
ATOM     35  H   UNL     1      -0.061  20.644  22.119  0.00  0.00    +0.149 HD
ATOM     36  C   UNL     1      -1.275  19.076  21.753  0.00  0.00    +0.210 C 
ATOM     37  C   UNL     1      -2.464  18.619  20.887  0.00  0.00    +0.109 C 
ATOM     38  O   UNL     1      -0.755  18.303  22.559  0.00  0.00    -0.276 OA
ENDBRANCH  33  34
BRANCH  30  39
ATOM     39  C   UNL     1      -0.077  24.525  19.468  0.00  0.00    +0.414 C 
ATOM     40  O   UNL     1       0.873  24.402  18.696  0.00  0.00    -0.240 OA
ATOM     41  O   UNL     1       0.060  25.201  20.489  0.00  0.00    -0.240 OA
ENDBRANCH  30  39
BRANCH  30  42
ATOM     42  O   UNL     1      -2.216  24.689  18.288  0.00  0.00    -0.343 OA
ATOM     43  C   UNL     1      -3.345  25.337  18.926  0.00  0.00    +0.198 C 
ENDBRANCH  30  42
BRANCH  32  44
ATOM     44  O   UNL     1      -0.509  20.176  18.712  0.00  0.00    -0.390 OA
ATOM     45  H   UNL     1      -0.952  20.238  17.862  0.00  0.00    +0.210 HD
ENDBRANCH  32  44
ENDBRANCH  27  28
BRANCH  27  46
ATOM     46  O   UNL     1      -3.545  21.673  22.449  0.00  0.00    -0.387 OA
ATOM     47  H   UNL     1      -4.065  21.872  21.667  0.00  0.00    +0.210 HD
ENDBRANCH  27  46
ENDBRANCH   1  27
TORSDOF 15
