REMARK VINA RESULT:    -5.986      6.820     10.225
REMARK INTER + INTRA:         -12.928
REMARK INTER:                 -11.164
REMARK INTRA:                  -1.764
REMARK UNBOUND:                -2.568
REMARK  Name = lig_assembled_27.pdb
REMARK  16 active torsions:
REMARK  status: ('A' for Active; 'I' for Inactive)
REMARK    1  A    between atoms: _2  and  _9
REMARK    2  A    between atoms: _4  and  _18
REMARK    3  A    between atoms: _6  and  _7
REMARK    4  A    between atoms: _6  and  _18
REMARK    5  A    between atoms: _14  and  _34
REMARK    6  A    between atoms: _16  and  _22
REMARK    7  A    between atoms: _17  and  _21
REMARK    8  A    between atoms: _21  and  _22
REMARK    9  A    between atoms: _24  and  _25
REMARK   10  A    between atoms: _26  and  _27
REMARK   11  A    between atoms: _28  and  _30
REMARK   12  A    between atoms: _30  and  _31
REMARK   13  A    between atoms: _30  and  _32
REMARK   14  A    between atoms: _32  and  _33
REMARK   15  A    between atoms: _32  and  _34
REMARK   16  A    between atoms: _35  and  _37
REMARK                            x       y       z     vdW  Elec       q    Type
REMARK                         _______ _______ _______ _____ _____    ______ ____
ROOT
ATOM      1  C   UNL     1       9.933   3.046  34.927  0.00  0.00    +0.163 C 
ENDROOT
BRANCH   1   2
ATOM      2  O   UNL     1       9.700   2.127  33.847  0.00  0.00    -0.388 OA
ATOM      3  H   UNL     1      10.297   1.379  33.928  0.00  0.00    +0.210 HD
ENDBRANCH   1   2
BRANCH   1   4
ATOM      4  C   UNL     1      11.088   2.552  35.792  0.00  0.00    +0.141 C 
BRANCH   4   7
ATOM      5  C   UNL     1      13.066   3.981  35.408  0.00  0.00    +0.401 C 
ATOM      6  O   UNL     1      13.386   3.418  34.358  0.00  0.00    -0.226 OA
ATOM      7  N   UNL     1      12.010   3.637  36.146  0.00  0.00    -0.279 N 
ATOM      8  H   UNL     1      11.835   4.153  36.997  0.00  0.00    +0.152 HD
BRANCH   5   9
ATOM      9  O   UNL     1      13.864   5.069  35.884  0.00  0.00    -0.444 OA
BRANCH   9  10
ATOM     10  C   UNL     1      15.203   4.924  35.405  0.00  0.00    +0.292 C 
BRANCH  10  12
ATOM     11  N   UNL     1      15.301   6.086  33.222  0.00  0.00    -0.131 NA
ATOM     12  C   UNL     1      15.574   6.074  34.560  0.00  0.00    +0.121 A 
ATOM     13  C   UNL     1      16.198   7.251  34.901  0.00  0.00    +0.143 A 
ATOM     14  N   UNL     1      16.281   7.965  33.727  0.00  0.00    -0.220 N 
ATOM     15  N   UNL     1      15.735   7.236  32.723  0.00  0.00    -0.060 NA
BRANCH  14  16
ATOM     16  C   UNL     1      16.829   9.255  33.508  0.00  0.00    +0.068 A 
ATOM     17  C   UNL     1      16.562  10.288  34.421  0.00  0.00    +0.028 A 
ATOM     18  C   UNL     1      17.093  11.564  34.215  0.00  0.00    +0.003 A 
ATOM     19  C   UNL     1      17.890  11.817  33.099  0.00  0.00    +0.020 A 
ATOM     20  C   UNL     1      18.157  10.793  32.194  0.00  0.00    +0.043 A 
ATOM     21 CL   UNL     1      19.142  11.105  30.818  0.00  0.00    -0.083 Cl
ATOM     22  C   UNL     1      17.633   9.513  32.390  0.00  0.00    +0.047 A 
ENDBRANCH  14  16
ENDBRANCH  10  12
ENDBRANCH   9  10
ENDBRANCH   5   9
ENDBRANCH   4   7
ENDBRANCH   1   4
BRANCH   1  23
ATOM     23  C   UNL     1       8.673   3.206  35.794  0.00  0.00    +0.175 C 
BRANCH  23  24
ATOM     24  C   UNL     1       7.848   4.438  35.393  0.00  0.00    +0.176 C 
ATOM     25  O   UNL     1       7.571   5.202  36.599  0.00  0.00    -0.332 OA
ATOM     26  C   UNL     1       6.878   6.478  36.396  0.00  0.00    +0.277 C 
ATOM     27  C   UNL     1       5.567   6.260  35.601  0.00  0.00    +0.110 C 
ATOM     28  C   UNL     1       5.806   5.425  34.326  0.00  0.00    +0.143 C 
ATOM     29  C   UNL     1       6.536   4.122  34.652  0.00  0.00    +0.133 C 
BRANCH  29  30
ATOM     30  N   UNL     1       6.835   3.376  33.420  0.00  0.00    -0.308 N 
ATOM     31  H   UNL     1       7.453   3.806  32.746  0.00  0.00    +0.149 HD
ATOM     32  C   UNL     1       6.343   2.167  33.133  0.00  0.00    +0.210 C 
ATOM     33  C   UNL     1       5.383   1.550  34.168  0.00  0.00    +0.109 C 
ATOM     34  O   UNL     1       6.622   1.560  32.099  0.00  0.00    -0.276 OA
ENDBRANCH  29  30
BRANCH  26  35
ATOM     35  C   UNL     1       7.779   7.476  35.640  0.00  0.00    +0.414 C 
ATOM     36  O   UNL     1       8.963   7.600  35.951  0.00  0.00    -0.240 OA
ATOM     37  O   UNL     1       7.323   8.156  34.720  0.00  0.00    -0.240 OA
ENDBRANCH  26  35
BRANCH  28  38
ATOM     38  O   UNL     1       4.555   5.121  33.707  0.00  0.00    -0.390 OA
ATOM     39  H   UNL     1       3.873   5.694  34.066  0.00  0.00    +0.210 HD
ENDBRANCH  28  38
BRANCH  26  40
ATOM     40  O   UNL     1       6.538   7.016  37.700  0.00  0.00    -0.343 OA
ATOM     41  C   UNL     1       7.388   6.571  38.787  0.00  0.00    +0.198 C 
ENDBRANCH  26  40
ENDBRANCH  23  24
BRANCH  23  42
ATOM     42  O   UNL     1       9.035   3.283  37.187  0.00  0.00    -0.387 OA
ATOM     43  H   UNL     1       9.973   3.100  37.285  0.00  0.00    +0.210 HD
ENDBRANCH  23  42
ENDBRANCH   1  23
TORSDOF 14
