REMARK VINA RESULT:    -5.921     13.649     18.444
REMARK INTER + INTRA:         -15.285
REMARK INTER:                 -12.668
REMARK INTRA:                  -2.617
REMARK UNBOUND:                -3.133
REMARK  Name = lig_assembled_90.pdb
REMARK  22 active torsions:
REMARK  status: ('A' for Active; 'I' for Inactive)
REMARK    1  A    between atoms: _2  and  _13
REMARK    2  A    between atoms: _3  and  _15
REMARK    3  A    between atoms: _4  and  _17
REMARK    4  A    between atoms: _8  and  _28
REMARK    5  A    between atoms: _10  and  _11
REMARK    6  A    between atoms: _10  and  _28
REMARK    7  A    between atoms: _13  and  _14
REMARK    8  A    between atoms: _15  and  _16
REMARK    9  A    between atoms: _16  and  _17
REMARK   10  A    between atoms: _16  and  _22
REMARK   11  A    between atoms: _24  and  _44
REMARK   12  A    between atoms: _26  and  _32
REMARK   13  A    between atoms: _27  and  _31
REMARK   14  A    between atoms: _31  and  _32
REMARK   15  A    between atoms: _34  and  _35
REMARK   16  A    between atoms: _36  and  _37
REMARK   17  A    between atoms: _38  and  _40
REMARK   18  A    between atoms: _40  and  _41
REMARK   19  A    between atoms: _40  and  _42
REMARK   20  A    between atoms: _42  and  _43
REMARK   21  A    between atoms: _42  and  _44
REMARK   22  A    between atoms: _45  and  _47
REMARK                            x       y       z     vdW  Elec       q    Type
REMARK                         _______ _______ _______ _____ _____    ______ ____
ROOT
ATOM      1  C   UNL     1       3.126   3.220  32.581  0.00  0.00    +0.401 C 
ATOM      2  O   UNL     1       3.022   2.258  33.345  0.00  0.00    -0.226 OA
ATOM      3  N   UNL     1       4.262   3.575  31.979  0.00  0.00    -0.279 N 
ATOM      4  H   UNL     1       4.246   4.374  31.361  0.00  0.00    +0.152 HD
ENDROOT
BRANCH   3   5
ATOM      5  C   UNL     1       5.536   2.869  32.163  0.00  0.00    +0.141 C 
BRANCH   5   6
ATOM      6  C   UNL     1       6.189   3.212  33.498  0.00  0.00    +0.163 C 
BRANCH   6   7
ATOM      7  O   UNL     1       6.047   2.112  34.412  0.00  0.00    -0.388 OA
ATOM      8  H   UNL     1       5.163   2.117  34.786  0.00  0.00    +0.210 HD
ENDBRANCH   6   7
BRANCH   6   9
ATOM      9  C   UNL     1       7.672   3.553  33.273  0.00  0.00    +0.175 C 
BRANCH   9  10
ATOM     10  C   UNL     1       8.445   3.673  34.595  0.00  0.00    +0.176 C 
ATOM     11  O   UNL     1       8.669   2.330  35.105  0.00  0.00    -0.332 OA
ATOM     12  C   UNL     1       9.489   2.241  36.317  0.00  0.00    +0.277 C 
ATOM     13  C   UNL     1       8.901   3.136  37.436  0.00  0.00    +0.110 C 
ATOM     14  C   UNL     1       8.617   4.566  36.931  0.00  0.00    +0.143 C 
ATOM     15  C   UNL     1       7.758   4.541  35.666  0.00  0.00    +0.133 C 
BRANCH  15  16
ATOM     16  N   UNL     1       7.566   5.904  35.146  0.00  0.00    -0.308 N 
ATOM     17  H   UNL     1       8.362   6.366  34.729  0.00  0.00    +0.149 HD
ATOM     18  C   UNL     1       6.410   6.570  35.189  0.00  0.00    +0.210 C 
ATOM     19  C   UNL     1       5.223   5.849  35.854  0.00  0.00    +0.109 C 
ATOM     20  O   UNL     1       6.275   7.706  34.732  0.00  0.00    -0.276 OA
ENDBRANCH  15  16
BRANCH  12  21
ATOM     21  C   UNL     1      10.943   2.669  36.025  0.00  0.00    +0.414 C 
ATOM     22  O   UNL     1      11.690   2.997  36.947  0.00  0.00    -0.240 OA
ATOM     23  O   UNL     1      11.368   2.687  34.870  0.00  0.00    -0.240 OA
ENDBRANCH  12  21
BRANCH  14  24
ATOM     24  O   UNL     1       7.939   5.309  37.945  0.00  0.00    -0.390 OA
ATOM     25  H   UNL     1       7.108   4.877  38.158  0.00  0.00    +0.210 HD
ENDBRANCH  14  24
BRANCH  12  26
ATOM     26  O   UNL     1       9.468   0.864  36.774  0.00  0.00    -0.343 OA
ATOM     27  C   UNL     1       8.791  -0.064  35.889  0.00  0.00    +0.198 C 
ENDBRANCH  12  26
ENDBRANCH   9  10
BRANCH   9  28
ATOM     28  O   UNL     1       7.791   4.773  32.515  0.00  0.00    -0.387 OA
ATOM     29  H   UNL     1       7.597   4.597  31.591  0.00  0.00    +0.210 HD
ENDBRANCH   9  28
ENDBRANCH   6   9
ENDBRANCH   5   6
ENDBRANCH   3   5
BRANCH   1  30
ATOM     30  O   UNL     1       1.971   4.017  32.305  0.00  0.00    -0.444 OA
BRANCH  30  31
ATOM     31  C   UNL     1       0.955   3.197  31.721  0.00  0.00    +0.292 C 
BRANCH  31  33
ATOM     32  N   UNL     1       0.008   4.085  29.607  0.00  0.00    -0.131 NA
ATOM     33  C   UNL     1       0.960   3.338  30.252  0.00  0.00    +0.120 A 
ATOM     34  C   UNL     1       1.822   2.809  29.319  0.00  0.00    +0.137 A 
ATOM     35  N   UNL     1       1.356   3.286  28.131  0.00  0.00    -0.242 N 
ATOM     36  N   UNL     1       0.254   4.037  28.304  0.00  0.00    -0.065 NA
BRANCH  35  37
ATOM     37  C   UNL     1       1.831   2.990  26.801  0.00  0.00    +0.240 C 
BRANCH  37  38
ATOM     38  C   UNL     1       0.746   3.197  25.770  0.00  0.00    +0.235 C 
ATOM     39  O   UNL     1      -0.070   2.323  25.480  0.00  0.00    -0.274 OA
ATOM     40  N   UNL     1       0.695   4.461  25.212  0.00  0.00    -0.311 N 
ATOM     41  H   UNL     1       1.524   5.049  25.264  0.00  0.00    +0.149 HD
BRANCH  40  42
ATOM     42  C   UNL     1      -0.251   4.761  24.146  0.00  0.00    +0.137 C 
BRANCH  42  43
ATOM     43  C   UNL     1       0.432   4.723  22.771  0.00  0.00    +0.151 C 
BRANCH  43  44
ATOM     44  O   UNL     1       1.845   4.587  22.964  0.00  0.00    -0.388 OA
ATOM     45  H   UNL     1       2.075   4.907  23.860  0.00  0.00    +0.210 HD
ENDBRANCH  43  44
BRANCH  43  46
ATOM     46  C   UNL     1      -0.122   3.593  21.894  0.00  0.00    +0.162 C 
BRANCH  46  47
ATOM     47  N   UNL     1       0.042   3.861  20.472  0.00  0.00    -0.269 N 
ATOM     48  C   UNL     1      -0.810   4.676  19.758  0.00  0.00    +0.113 A 
ATOM     49  C   UNL     1      -0.359   4.643  18.461  0.00  0.00    +0.137 A 
ATOM     50  N   UNL     1       0.741   3.833  18.352  0.00  0.00    -0.172 NA
ATOM     51  C   UNL     1       0.968   3.385  19.577  0.00  0.00    +0.450 A 
ATOM     52  N   UNL     1       2.064   2.497  19.883  0.00  0.00    +0.120 N 
ATOM     53  O   UNL     1       2.262   2.217  21.073  0.00  0.00    +0.045 OA
ATOM     54  O   UNL     1       2.726   2.065  18.932  0.00  0.00    -0.573 OA
ENDBRANCH  46  47
ENDBRANCH  43  46
ENDBRANCH  42  43
ENDBRANCH  40  42
ENDBRANCH  37  38
ENDBRANCH  35  37
ENDBRANCH  31  33
ENDBRANCH  30  31
ENDBRANCH   1  30
TORSDOF 20
