REMARK VINA RESULT:    -6.099      6.072     11.748
REMARK INTER + INTRA:         -13.520
REMARK INTER:                 -11.894
REMARK INTRA:                  -1.626
REMARK UNBOUND:                -2.608
REMARK  Name = lig_assembled_4.pdb
REMARK  19 active torsions:
REMARK  status: ('A' for Active; 'I' for Inactive)
REMARK    1  A    between atoms: _2  and  _9
REMARK    2  A    between atoms: _4  and  _21
REMARK    3  A    between atoms: _6  and  _7
REMARK    4  A    between atoms: _6  and  _21
REMARK    5  A    between atoms: _10  and  _11
REMARK    6  A    between atoms: _11  and  _12
REMARK    7  A    between atoms: _11  and  _13
REMARK    8  A    between atoms: _17  and  _37
REMARK    9  A    between atoms: _19  and  _25
REMARK   10  A    between atoms: _20  and  _24
REMARK   11  A    between atoms: _24  and  _25
REMARK   12  A    between atoms: _27  and  _28
REMARK   13  A    between atoms: _29  and  _30
REMARK   14  A    between atoms: _31  and  _33
REMARK   15  A    between atoms: _33  and  _34
REMARK   16  A    between atoms: _33  and  _35
REMARK   17  A    between atoms: _35  and  _36
REMARK   18  A    between atoms: _35  and  _37
REMARK   19  A    between atoms: _38  and  _40
REMARK                            x       y       z     vdW  Elec       q    Type
REMARK                         _______ _______ _______ _____ _____    ______ ____
ROOT
ATOM      1  C   UNL     1       7.315   2.417  34.442  0.00  0.00    +0.163 C 
ENDROOT
BRANCH   1   2
ATOM      2  O   UNL     1       7.214   2.486  35.874  0.00  0.00    -0.388 OA
ATOM      3  H   UNL     1       7.298   3.400  36.157  0.00  0.00    +0.210 HD
ENDBRANCH   1   2
BRANCH   1   4
ATOM      4  C   UNL     1       8.310   1.333  34.041  0.00  0.00    +0.141 C 
BRANCH   4   7
ATOM      5  C   UNL     1      10.520   2.031  34.899  0.00  0.00    +0.401 C 
ATOM      6  O   UNL     1      10.255   1.761  36.073  0.00  0.00    -0.226 OA
ATOM      7  N   UNL     1       9.669   1.868  33.886  0.00  0.00    -0.279 N 
ATOM      8  H   UNL     1       9.975   2.127  32.959  0.00  0.00    +0.152 HD
BRANCH   5   9
ATOM      9  O   UNL     1      11.812   2.555  34.582  0.00  0.00    -0.444 OA
BRANCH   9  10
ATOM     10  C   UNL     1      12.510   2.869  35.790  0.00  0.00    +0.292 C 
BRANCH  10  12
ATOM     11  N   UNL     1      13.439   5.112  36.236  0.00  0.00    -0.131 NA
ATOM     12  C   UNL     1      13.502   3.935  35.557  0.00  0.00    +0.121 A 
ATOM     13  C   UNL     1      14.557   3.978  34.674  0.00  0.00    +0.143 A 
ATOM     14  N   UNL     1      15.037   5.272  34.759  0.00  0.00    -0.219 N 
ATOM     15  N   UNL     1      14.391   5.906  35.762  0.00  0.00    -0.060 NA
BRANCH  14  16
ATOM     16  C   UNL     1      16.025   5.888  33.933  0.00  0.00    +0.070 A 
ATOM     17  C   UNL     1      17.363   5.418  33.835  0.00  0.00    -0.019 A 
ATOM     18  C   UNL     1      18.248   6.141  33.003  0.00  0.00    +0.006 A 
ATOM     19  C   UNL     1      17.847   7.283  32.309  0.00  0.00    +0.000 A 
ATOM     20  C   UNL     1      16.537   7.728  32.407  0.00  0.00    +0.002 A 
ATOM     21  C   UNL     1      15.633   7.039  33.213  0.00  0.00    +0.028 A 
BRANCH  17  22
ATOM     22  C   UNL     1      17.903   4.193  34.575  0.00  0.00    +0.015 C 
ATOM     23  C   UNL     1      18.259   4.428  36.051  0.00  0.00    +0.012 C 
ATOM     24  C   UNL     1      19.117   3.628  33.833  0.00  0.00    +0.012 C 
ENDBRANCH  17  22
ENDBRANCH  14  16
ENDBRANCH  10  12
ENDBRANCH   9  10
ENDBRANCH   5   9
ENDBRANCH   4   7
ENDBRANCH   1   4
BRANCH   1  25
ATOM     25  C   UNL     1       7.761   3.767  33.856  0.00  0.00    +0.175 C 
BRANCH  25  26
ATOM     26  C   UNL     1       7.131   4.956  34.596  0.00  0.00    +0.176 C 
ATOM     27  O   UNL     1       7.823   5.109  35.866  0.00  0.00    -0.332 OA
ATOM     28  C   UNL     1       7.423   6.269  36.669  0.00  0.00    +0.277 C 
ATOM     29  C   UNL     1       5.893   6.263  36.905  0.00  0.00    +0.110 C 
ATOM     30  C   UNL     1       5.115   6.070  35.586  0.00  0.00    +0.143 C 
ATOM     31  C   UNL     1       5.613   4.838  34.830  0.00  0.00    +0.133 C 
BRANCH  31  32
ATOM     32  N   UNL     1       4.925   4.714  33.535  0.00  0.00    -0.308 N 
ATOM     33  H   UNL     1       5.144   5.391  32.818  0.00  0.00    +0.149 HD
ATOM     34  C   UNL     1       4.030   3.765  33.246  0.00  0.00    +0.210 C 
ATOM     35  C   UNL     1       3.699   2.764  34.369  0.00  0.00    +0.109 C 
ATOM     36  O   UNL     1       3.480   3.677  32.148  0.00  0.00    -0.276 OA
ENDBRANCH  31  32
BRANCH  28  37
ATOM     37  C   UNL     1       7.833   7.583  35.974  0.00  0.00    +0.414 C 
ATOM     38  O   UNL     1       7.844   7.658  34.746  0.00  0.00    -0.240 OA
ATOM     39  O   UNL     1       8.151   8.569  36.640  0.00  0.00    -0.240 OA
ENDBRANCH  28  37
BRANCH  30  40
ATOM     40  O   UNL     1       3.723   5.919  35.866  0.00  0.00    -0.390 OA
ATOM     41  H   UNL     1       3.215   6.084  35.068  0.00  0.00    +0.210 HD
ENDBRANCH  30  40
BRANCH  28  42
ATOM     42  O   UNL     1       8.084   6.171  37.957  0.00  0.00    -0.343 OA
ATOM     43  C   UNL     1       7.200   6.230  39.105  0.00  0.00    +0.198 C 
ENDBRANCH  28  42
ENDBRANCH  25  26
BRANCH  25  44
ATOM     44  O   UNL     1       7.440   3.829  32.452  0.00  0.00    -0.387 OA
ATOM     45  H   UNL     1       8.251   3.838  31.938  0.00  0.00    +0.210 HD
ENDBRANCH  25  44
ENDBRANCH   1  25
TORSDOF 15
