REMARK VINA RESULT:    -6.050      8.034     11.941
REMARK INTER + INTRA:         -14.530
REMARK INTER:                 -11.886
REMARK INTRA:                  -2.643
REMARK UNBOUND:                -2.643
REMARK  Name = lig_assembled_37.pdb
REMARK  21 active torsions:
REMARK  status: ('A' for Active; 'I' for Inactive)
REMARK    1  A    between atoms: _2  and  _9
REMARK    2  A    between atoms: _4  and  _24
REMARK    3  A    between atoms: _6  and  _7
REMARK    4  A    between atoms: _6  and  _24
REMARK    5  A    between atoms: _9  and  _10
REMARK    6  A    between atoms: _9  and  _11
REMARK    7  A    between atoms: _11  and  _18
REMARK    8  A    between atoms: _12  and  _13
REMARK    9  A    between atoms: _12  and  _18
REMARK   10  A    between atoms: _20  and  _40
REMARK   11  A    between atoms: _22  and  _28
REMARK   12  A    between atoms: _23  and  _27
REMARK   13  A    between atoms: _27  and  _28
REMARK   14  A    between atoms: _30  and  _31
REMARK   15  A    between atoms: _32  and  _33
REMARK   16  A    between atoms: _34  and  _36
REMARK   17  A    between atoms: _36  and  _37
REMARK   18  A    between atoms: _36  and  _38
REMARK   19  A    between atoms: _38  and  _39
REMARK   20  A    between atoms: _38  and  _40
REMARK   21  A    between atoms: _41  and  _43
REMARK                            x       y       z     vdW  Elec       q    Type
REMARK                         _______ _______ _______ _____ _____    ______ ____
ROOT
ATOM      1  C   UNL     1       2.086   5.487  38.592  0.00  0.00    +0.141 C 
ENDROOT
BRANCH   1   4
ATOM      2  C   UNL     1       1.694   6.638  40.743  0.00  0.00    +0.401 C 
ATOM      3  O   UNL     1       1.137   5.671  41.267  0.00  0.00    -0.226 OA
ATOM      4  N   UNL     1       2.163   6.643  39.495  0.00  0.00    -0.279 N 
ATOM      5  H   UNL     1       2.596   7.488  39.150  0.00  0.00    +0.152 HD
BRANCH   2   6
ATOM      6  O   UNL     1       1.854   7.841  41.500  0.00  0.00    -0.444 OA
BRANCH   6   7
ATOM      7  C   UNL     1       3.136   8.412  41.224  0.00  0.00    +0.292 C 
BRANCH   7   9
ATOM      8  N   UNL     1       4.132  10.661  40.918  0.00  0.00    -0.131 NA
ATOM      9  C   UNL     1       3.020   9.869  41.027  0.00  0.00    +0.120 A 
ATOM     10  C   UNL     1       1.896  10.655  40.918  0.00  0.00    +0.138 A 
ATOM     11  N   UNL     1       2.386  11.919  40.773  0.00  0.00    -0.238 N 
ATOM     12  N   UNL     1       3.732  11.915  40.755  0.00  0.00    -0.065 NA
BRANCH  11  13
ATOM     13  C   UNL     1       1.672  13.166  40.579  0.00  0.00    +0.214 C 
ATOM     14  C   UNL     1       2.199  14.261  41.506  0.00  0.00    +0.045 C 
BRANCH  13  15
ATOM     15  C   UNL     1       1.746  13.620  39.138  0.00  0.00    +0.332 C 
ATOM     16  O   UNL     1       2.345  13.013  38.258  0.00  0.00    -0.248 OA
BRANCH  15  17
ATOM     17  O   UNL     1       1.065  14.783  38.955  0.00  0.00    -0.458 OA
BRANCH  17  18
ATOM     18  C   UNL     1      -0.357  14.665  38.800  0.00  0.00    +0.267 C 
BRANCH  18  19
ATOM     19  C   UNL     1      -0.758  15.067  37.404  0.00  0.00    -0.010 A 
ATOM     20  C   UNL     1      -0.642  16.401  36.988  0.00  0.00    +0.007 A 
ATOM     21  C   UNL     1      -0.986  16.770  35.687  0.00  0.00    +0.000 A 
ATOM     22  C   UNL     1      -1.453  15.811  34.789  0.00  0.00    +0.000 A 
ATOM     23  C   UNL     1      -1.578  14.484  35.193  0.00  0.00    +0.000 A 
ATOM     24  C   UNL     1      -1.236  14.113  36.495  0.00  0.00    +0.007 A 
ENDBRANCH  18  19
ENDBRANCH  17  18
ENDBRANCH  15  17
ENDBRANCH  13  15
ENDBRANCH  11  13
ENDBRANCH   7   9
ENDBRANCH   6   7
ENDBRANCH   2   6
ENDBRANCH   1   4
BRANCH   1  25
ATOM     25  C   UNL     1       3.299   5.403  37.672  0.00  0.00    +0.163 C 
BRANCH  25  26
ATOM     26  O   UNL     1       3.015   6.054  36.423  0.00  0.00    -0.388 OA
ATOM     27  H   UNL     1       3.838   6.239  35.963  0.00  0.00    +0.210 HD
ENDBRANCH  25  26
BRANCH  25  28
ATOM     28  C   UNL     1       4.514   6.044  38.363  0.00  0.00    +0.175 C 
BRANCH  28  29
ATOM     29  C   UNL     1       5.679   6.273  37.389  0.00  0.00    +0.176 C 
ATOM     30  O   UNL     1       5.670   5.191  36.418  0.00  0.00    -0.332 OA
ATOM     31  C   UNL     1       6.654   5.301  35.337  0.00  0.00    +0.277 C 
ATOM     32  C   UNL     1       8.079   5.469  35.919  0.00  0.00    +0.110 C 
ATOM     33  C   UNL     1       8.132   6.589  36.980  0.00  0.00    +0.143 C 
ATOM     34  C   UNL     1       7.064   6.378  38.054  0.00  0.00    +0.133 C 
BRANCH  34  35
ATOM     35  N   UNL     1       7.067   7.496  39.010  0.00  0.00    -0.308 N 
ATOM     36  H   UNL     1       6.726   8.391  38.690  0.00  0.00    +0.149 HD
ATOM     37  C   UNL     1       7.492   7.404  40.274  0.00  0.00    +0.210 C 
ATOM     38  C   UNL     1       8.030   6.033  40.723  0.00  0.00    +0.109 C 
ATOM     39  O   UNL     1       7.469   8.354  41.057  0.00  0.00    -0.276 OA
ENDBRANCH  34  35
BRANCH  31  40
ATOM     40  C   UNL     1       6.328   6.496  34.418  0.00  0.00    +0.414 C 
ATOM     41  O   UNL     1       5.161   6.748  34.120  0.00  0.00    -0.240 OA
ATOM     42  O   UNL     1       7.230   7.208  33.976  0.00  0.00    -0.240 OA
ENDBRANCH  31  40
BRANCH  31  43
ATOM     43  O   UNL     1       6.617   4.070  34.570  0.00  0.00    -0.343 OA
ATOM     44  C   UNL     1       7.893   3.648  34.026  0.00  0.00    +0.198 C 
ENDBRANCH  31  43
BRANCH  33  45
ATOM     45  O   UNL     1       9.421   6.608  37.596  0.00  0.00    -0.390 OA
ATOM     46  H   UNL     1       9.924   5.842  37.310  0.00  0.00    +0.210 HD
ENDBRANCH  33  45
ENDBRANCH  28  29
BRANCH  28  47
ATOM     47  O   UNL     1       4.946   5.225  39.469  0.00  0.00    -0.387 OA
ATOM     48  H   UNL     1       4.207   4.700  39.786  0.00  0.00    +0.210 HD
ENDBRANCH  28  47
ENDBRANCH  25  28
ENDBRANCH   1  25
TORSDOF 18
