REMARK VINA RESULT:    -5.984      2.324      4.331
REMARK INTER + INTRA:         -13.135
REMARK INTER:                 -11.091
REMARK INTRA:                  -2.043
REMARK UNBOUND:                -2.078
REMARK  Name = lig_assembled_14.pdb
REMARK  18 active torsions:
REMARK  status: ('A' for Active; 'I' for Inactive)
REMARK    1  A    between atoms: _2  and  _10
REMARK    2  A    between atoms: _3  and  _11
REMARK    3  A    between atoms: _5  and  _19
REMARK    4  A    between atoms: _7  and  _8
REMARK    5  A    between atoms: _7  and  _19
REMARK    6  A    between atoms: _10  and  _11
REMARK    7  A    between atoms: _15  and  _35
REMARK    8  A    between atoms: _17  and  _23
REMARK    9  A    between atoms: _18  and  _22
REMARK   10  A    between atoms: _22  and  _23
REMARK   11  A    between atoms: _25  and  _26
REMARK   12  A    between atoms: _27  and  _28
REMARK   13  A    between atoms: _29  and  _31
REMARK   14  A    between atoms: _31  and  _32
REMARK   15  A    between atoms: _31  and  _33
REMARK   16  A    between atoms: _33  and  _34
REMARK   17  A    between atoms: _33  and  _35
REMARK   18  A    between atoms: _36  and  _38
REMARK                            x       y       z     vdW  Elec       q    Type
REMARK                         _______ _______ _______ _____ _____    ______ ____
ROOT
ATOM      1  C   UNL     1      18.480   5.712  23.803  0.00  0.00    +0.163 C 
ENDROOT
BRANCH   1   2
ATOM      2  O   UNL     1      17.478   5.756  22.774  0.00  0.00    -0.388 OA
ATOM      3  H   UNL     1      17.896   5.927  21.927  0.00  0.00    +0.210 HD
ENDBRANCH   1   2
BRANCH   1   4
ATOM      4  C   UNL     1      19.190   4.348  23.823  0.00  0.00    +0.175 C 
BRANCH   4   5
ATOM      5  C   UNL     1      18.428   3.312  24.664  0.00  0.00    +0.176 C 
ATOM      6  O   UNL     1      19.296   2.896  25.754  0.00  0.00    -0.332 OA
ATOM      7  C   UNL     1      18.694   1.981  26.729  0.00  0.00    +0.277 C 
ATOM      8  C   UNL     1      18.115   0.735  26.015  0.00  0.00    +0.110 C 
ATOM      9  C   UNL     1      17.210   1.127  24.828  0.00  0.00    +0.143 C 
ATOM     10  C   UNL     1      17.934   2.083  23.879  0.00  0.00    +0.133 C 
BRANCH  10  11
ATOM     11  N   UNL     1      17.034   2.517  22.800  0.00  0.00    -0.308 N 
ATOM     12  H   UNL     1      16.254   3.110  23.046  0.00  0.00    +0.149 HD
ATOM     13  C   UNL     1      17.180   2.179  21.516  0.00  0.00    +0.210 C 
ATOM     14  C   UNL     1      18.363   1.253  21.176  0.00  0.00    +0.109 C 
ATOM     15  O   UNL     1      16.418   2.571  20.630  0.00  0.00    -0.276 OA
ENDBRANCH  10  11
BRANCH   7  16
ATOM     16  C   UNL     1      17.576   2.687  27.523  0.00  0.00    +0.414 C 
ATOM     17  O   UNL     1      17.857   3.445  28.450  0.00  0.00    -0.240 OA
ATOM     18  O   UNL     1      16.393   2.498  27.237  0.00  0.00    -0.240 OA
ENDBRANCH   7  16
BRANCH   9  19
ATOM     19  O   UNL     1      16.822  -0.045  24.110  0.00  0.00    -0.390 OA
ATOM     20  H   UNL     1      15.916  -0.271  24.332  0.00  0.00    +0.210 HD
ENDBRANCH   9  19
BRANCH   7  21
ATOM     21  O   UNL     1      19.738   1.544  27.637  0.00  0.00    -0.343 OA
ATOM     22  C   UNL     1      21.031   2.166  27.429  0.00  0.00    +0.198 C 
ENDBRANCH   7  21
ENDBRANCH   4   5
BRANCH   4  23
ATOM     23  O   UNL     1      20.536   4.495  24.317  0.00  0.00    -0.387 OA
ATOM     24  H   UNL     1      20.727   3.791  24.941  0.00  0.00    +0.210 HD
ENDBRANCH   4  23
ENDBRANCH   1   4
BRANCH   1  25
ATOM     25  C   UNL     1      19.507   6.817  23.578  0.00  0.00    +0.141 C 
BRANCH  25  28
ATOM     26  C   UNL     1      20.626   7.650  25.618  0.00  0.00    +0.401 C 
ATOM     27  O   UNL     1      21.557   6.845  25.549  0.00  0.00    -0.226 OA
ATOM     28  N   UNL     1      19.621   7.704  24.742  0.00  0.00    -0.279 N 
ATOM     29  H   UNL     1      18.898   8.394  24.888  0.00  0.00    +0.152 HD
BRANCH  26  30
ATOM     30  O   UNL     1      20.598   8.590  26.695  0.00  0.00    -0.444 OA
BRANCH  30  31
ATOM     31  C   UNL     1      19.398   9.365  26.623  0.00  0.00    +0.292 C 
BRANCH  31  33
ATOM     32  N   UNL     1      17.911  10.601  28.167  0.00  0.00    -0.131 NA
ATOM     33  C   UNL     1      18.902   9.674  27.977  0.00  0.00    +0.120 A 
ATOM     34  C   UNL     1      19.290   9.171  29.199  0.00  0.00    +0.137 A 
ATOM     35  N   UNL     1      18.507   9.840  30.089  0.00  0.00    -0.250 N 
ATOM     36  N   UNL     1      17.674  10.692  29.467  0.00  0.00    -0.065 NA
BRANCH  35  37
ATOM     37  C   UNL     1      18.531   9.768  31.534  0.00  0.00    +0.160 C 
BRANCH  37  38
ATOM     38  C   UNL     1      17.146   9.462  32.114  0.00  0.00    +0.107 C 
BRANCH  38  39
ATOM     39  N   UNL     1      16.807   8.029  32.071  0.00  0.00    -0.301 NA
ATOM     40  C   UNL     1      17.866   7.171  32.611  0.00  0.00    +0.084 C 
ATOM     41  C   UNL     1      17.142   5.860  32.842  0.00  0.00    +0.017 C 
ATOM     42  C   UNL     1      15.771   6.287  33.335  0.00  0.00    +0.017 C 
ATOM     43  C   UNL     1      15.606   7.728  32.864  0.00  0.00    +0.084 C 
ENDBRANCH  38  39
ENDBRANCH  37  38
ENDBRANCH  35  37
ENDBRANCH  31  33
ENDBRANCH  30  31
ENDBRANCH  26  30
ENDBRANCH  25  28
ENDBRANCH   1  25
TORSDOF 16
