REMARK VINA RESULT:    -6.656      2.023      4.266
REMARK INTER + INTRA:         -13.638
REMARK INTER:                 -11.574
REMARK INTRA:                  -2.064
REMARK UNBOUND:                -2.118
REMARK  Name = lig_assembled_7.pdb
REMARK  19 active torsions:
REMARK  status: ('A' for Active; 'I' for Inactive)
REMARK    1  A    between atoms: _2  and  _9
REMARK    2  A    between atoms: _4  and  _21
REMARK    3  A    between atoms: _5  and  _16
REMARK    4  A    between atoms: _6  and  _7
REMARK    5  A    between atoms: _6  and  _21
REMARK    6  A    between atoms: _10  and  _11
REMARK    7  A    between atoms: _13  and  _14
REMARK    8  A    between atoms: _17  and  _37
REMARK    9  A    between atoms: _19  and  _25
REMARK   10  A    between atoms: _20  and  _24
REMARK   11  A    between atoms: _24  and  _25
REMARK   12  A    between atoms: _27  and  _28
REMARK   13  A    between atoms: _29  and  _30
REMARK   14  A    between atoms: _31  and  _33
REMARK   15  A    between atoms: _33  and  _34
REMARK   16  A    between atoms: _33  and  _35
REMARK   17  A    between atoms: _35  and  _36
REMARK   18  A    between atoms: _35  and  _37
REMARK   19  A    between atoms: _38  and  _40
REMARK                            x       y       z     vdW  Elec       q    Type
REMARK                         _______ _______ _______ _____ _____    ______ ____
ROOT
ATOM      1  C   UNL     1       3.112   1.610  32.558  0.00  0.00    +0.163 C 
ENDROOT
BRANCH   1   2
ATOM      2  O   UNL     1       3.347   0.971  31.293  0.00  0.00    -0.388 OA
ATOM      3  H   UNL     1       4.215   1.218  30.965  0.00  0.00    +0.210 HD
ENDBRANCH   1   2
BRANCH   1   4
ATOM      4  C   UNL     1       1.906   2.538  32.459  0.00  0.00    +0.141 C 
BRANCH   4   7
ATOM      5  C   UNL     1       1.241   3.909  30.513  0.00  0.00    +0.401 C 
ATOM      6  O   UNL     1       1.365   4.982  31.108  0.00  0.00    -0.226 OA
ATOM      7  N   UNL     1       1.467   2.718  31.069  0.00  0.00    -0.279 N 
ATOM      8  H   UNL     1       1.328   1.893  30.503  0.00  0.00    +0.152 HD
BRANCH   5   9
ATOM      9  O   UNL     1       0.826   3.917  29.145  0.00  0.00    -0.444 OA
BRANCH   9  10
ATOM     10  C   UNL     1       1.831   3.297  28.337  0.00  0.00    +0.292 C 
BRANCH  10  12
ATOM     11  N   UNL     1       0.154   3.612  26.558  0.00  0.00    -0.131 NA
ATOM     12  C   UNL     1       1.434   3.324  26.918  0.00  0.00    +0.121 A 
ATOM     13  C   UNL     1       2.177   3.100  25.776  0.00  0.00    +0.143 A 
ATOM     14  N   UNL     1       1.286   3.217  24.730  0.00  0.00    -0.219 N 
ATOM     15  N   UNL     1       0.080   3.574  25.238  0.00  0.00    -0.060 NA
BRANCH  14  16
ATOM     16  C   UNL     1       1.496   3.030  23.325  0.00  0.00    +0.073 A 
ATOM     17  C   UNL     1       1.682   4.171  22.487  0.00  0.00    -0.024 A 
ATOM     18  C   UNL     1       1.891   3.997  21.102  0.00  0.00    +0.008 A 
ATOM     19  C   UNL     1       1.930   2.730  20.525  0.00  0.00    -0.050 A 
ATOM     20  C   UNL     1       2.156   2.580  19.050  0.00  0.00    +0.044 C 
ATOM     21  C   UNL     1       1.750   1.620  21.346  0.00  0.00    +0.008 A 
ATOM     22  C   UNL     1       1.726   5.601  22.982  0.00  0.00    +0.046 C 
ATOM     23  C   UNL     1       1.511   1.739  22.735  0.00  0.00    -0.024 A 
ATOM     24  C   UNL     1       1.219   0.425  23.414  0.00  0.00    +0.046 C 
ENDBRANCH  14  16
ENDBRANCH  10  12
ENDBRANCH   9  10
ENDBRANCH   5   9
ENDBRANCH   4   7
ENDBRANCH   1   4
BRANCH   1  25
ATOM     25  C   UNL     1       4.345   2.415  33.005  0.00  0.00    +0.175 C 
BRANCH  25  26
ATOM     26  C   UNL     1       5.653   1.643  32.778  0.00  0.00    +0.176 C 
ATOM     27  O   UNL     1       5.438   0.268  33.198  0.00  0.00    -0.332 OA
ATOM     28  C   UNL     1       6.555  -0.651  32.955  0.00  0.00    +0.277 C 
ATOM     29  C   UNL     1       7.854  -0.104  33.597  0.00  0.00    +0.110 C 
ATOM     30  C   UNL     1       8.107   1.367  33.205  0.00  0.00    +0.143 C 
ATOM     31  C   UNL     1       6.881   2.232  33.497  0.00  0.00    +0.133 C 
BRANCH  31  32
ATOM     32  N   UNL     1       7.103   3.612  33.040  0.00  0.00    -0.308 N 
ATOM     33  H   UNL     1       7.157   3.777  32.045  0.00  0.00    +0.149 HD
ATOM     34  C   UNL     1       7.239   4.662  33.855  0.00  0.00    +0.210 C 
ATOM     35  C   UNL     1       7.178   4.375  35.367  0.00  0.00    +0.109 C 
ATOM     36  O   UNL     1       7.410   5.810  33.443  0.00  0.00    -0.276 OA
ENDBRANCH  31  32
BRANCH  28  37
ATOM     37  C   UNL     1       6.775  -0.857  31.442  0.00  0.00    +0.414 C 
ATOM     38  O   UNL     1       7.838  -1.317  31.027  0.00  0.00    -0.240 OA
ATOM     39  O   UNL     1       5.890  -0.563  30.637  0.00  0.00    -0.240 OA
ENDBRANCH  28  37
BRANCH  30  40
ATOM     40  O   UNL     1       9.225   1.873  33.935  0.00  0.00    -0.390 OA
ATOM     41  H   UNL     1       9.231   1.495  34.818  0.00  0.00    +0.210 HD
ENDBRANCH  30  40
BRANCH  28  42
ATOM     42  O   UNL     1       6.235  -1.921  33.579  0.00  0.00    -0.343 OA
ATOM     43  C   UNL     1       4.832  -2.283  33.548  0.00  0.00    +0.198 C 
ENDBRANCH  28  42
ENDBRANCH  25  26
BRANCH  25  44
ATOM     44  O   UNL     1       4.220   2.785  34.392  0.00  0.00    -0.387 OA
ATOM     45  H   UNL     1       3.418   3.298  34.516  0.00  0.00    +0.210 HD
ENDBRANCH  25  44
ENDBRANCH   1  25
TORSDOF 14
