REMARK VINA RESULT:    -6.289     12.645     16.512
REMARK INTER + INTRA:         -12.521
REMARK INTER:                 -10.655
REMARK INTRA:                  -1.867
REMARK UNBOUND:                -1.636
REMARK  Name = lig_assembled_52.pdb
REMARK  16 active torsions:
REMARK  status: ('A' for Active; 'I' for Inactive)
REMARK    1  A    between atoms: _2  and  _10
REMARK    2  A    between atoms: _5  and  _18
REMARK    3  A    between atoms: _7  and  _8
REMARK    4  A    between atoms: _7  and  _18
REMARK    5  A    between atoms: _14  and  _34
REMARK    6  A    between atoms: _16  and  _22
REMARK    7  A    between atoms: _17  and  _21
REMARK    8  A    between atoms: _21  and  _22
REMARK    9  A    between atoms: _24  and  _25
REMARK   10  A    between atoms: _26  and  _27
REMARK   11  A    between atoms: _28  and  _30
REMARK   12  A    between atoms: _30  and  _31
REMARK   13  A    between atoms: _30  and  _32
REMARK   14  A    between atoms: _32  and  _33
REMARK   15  A    between atoms: _32  and  _34
REMARK   16  A    between atoms: _35  and  _37
REMARK                            x       y       z     vdW  Elec       q    Type
REMARK                         _______ _______ _______ _____ _____    ______ ____
ROOT
ATOM      1  C   UNL     1      18.228   2.713  27.940  0.00  0.00    +0.163 C 
ENDROOT
BRANCH   1   2
ATOM      2  O   UNL     1      17.619   3.572  28.918  0.00  0.00    -0.388 OA
ATOM      3  H   UNL     1      17.996   4.452  28.851  0.00  0.00    +0.210 HD
ENDBRANCH   1   2
BRANCH   1   4
ATOM      4  C   UNL     1      19.150   3.524  27.035  0.00  0.00    +0.141 C 
BRANCH   4   7
ATOM      5  C   UNL     1      19.207   5.953  26.581  0.00  0.00    +0.401 C 
ATOM      6  O   UNL     1      20.399   6.075  26.873  0.00  0.00    -0.226 OA
ATOM      7  N   UNL     1      18.541   4.799  26.635  0.00  0.00    -0.279 N 
ATOM      8  H   UNL     1      17.562   4.801  26.385  0.00  0.00    +0.152 HD
BRANCH   5   9
ATOM      9  O   UNL     1      18.473   7.106  26.162  0.00  0.00    -0.444 OA
BRANCH   9  10
ATOM     10  C   UNL     1      19.342   8.241  26.133  0.00  0.00    +0.292 C 
BRANCH  10  12
ATOM     11  N   UNL     1      18.211  10.272  26.978  0.00  0.00    -0.131 NA
ATOM     12  C   UNL     1      18.995   9.180  27.216  0.00  0.00    +0.121 A 
ATOM     13  C   UNL     1      19.340   9.158  28.548  0.00  0.00    +0.143 A 
ATOM     14  N   UNL     1      18.721  10.259  29.095  0.00  0.00    -0.218 N 
ATOM     15  N   UNL     1      18.052  10.924  28.123  0.00  0.00    -0.060 NA
BRANCH  14  16
ATOM     16  C   UNL     1      18.714  10.690  30.438  0.00  0.00    +0.085 A 
ATOM     17  C   UNL     1      17.648  10.414  31.298  0.00  0.00    +0.031 A 
ATOM     18  C   UNL     1      17.691  10.887  32.609  0.00  0.00    +0.022 A 
ATOM     19  C   UNL     1      18.797  11.615  33.013  0.00  0.00    +0.111 A 
ATOM     20  N   UNL     1      19.846  11.890  32.209  0.00  0.00    -0.261 NA
ATOM     21  C   UNL     1      19.785  11.423  30.938  0.00  0.00    +0.138 A 
ENDBRANCH  14  16
ENDBRANCH  10  12
ENDBRANCH   9  10
ENDBRANCH   5   9
ENDBRANCH   4   7
ENDBRANCH   1   4
BRANCH   1  22
ATOM     22  C   UNL     1      17.161   2.007  27.086  0.00  0.00    +0.175 C 
BRANCH  22  23
ATOM     23  C   UNL     1      17.702   1.595  25.709  0.00  0.00    +0.176 C 
ATOM     24  O   UNL     1      17.036   2.408  24.705  0.00  0.00    -0.332 OA
ATOM     25  C   UNL     1      17.505   2.226  23.328  0.00  0.00    +0.277 C 
ATOM     26  C   UNL     1      17.433   0.733  22.925  0.00  0.00    +0.110 C 
ATOM     27  C   UNL     1      18.101  -0.175  23.979  0.00  0.00    +0.143 C 
ATOM     28  C   UNL     1      17.540   0.100  25.374  0.00  0.00    +0.133 C 
BRANCH  28  29
ATOM     29  N   UNL     1      18.245  -0.708  26.382  0.00  0.00    -0.308 N 
ATOM     30  H   UNL     1      19.230  -0.531  26.524  0.00  0.00    +0.149 HD
ATOM     31  C   UNL     1      17.669  -1.661  27.120  0.00  0.00    +0.210 C 
ATOM     32  C   UNL     1      16.174  -1.925  26.860  0.00  0.00    +0.109 C 
ATOM     33  O   UNL     1      18.281  -2.313  27.966  0.00  0.00    -0.276 OA
ENDBRANCH  28  29
BRANCH  25  34
ATOM     34  C   UNL     1      18.955   2.732  23.173  0.00  0.00    +0.414 C 
ATOM     35  O   UNL     1      19.769   2.088  22.513  0.00  0.00    -0.240 OA
ATOM     36  O   UNL     1      19.309   3.783  23.708  0.00  0.00    -0.240 OA
ENDBRANCH  25  34
BRANCH  27  37
ATOM     37  O   UNL     1      17.879  -1.546  23.644  0.00  0.00    -0.390 OA
ATOM     38  H   UNL     1      17.335  -1.957  24.320  0.00  0.00    +0.210 HD
ENDBRANCH  27  37
BRANCH  25  39
ATOM     39  O   UNL     1      16.629   2.980  22.452  0.00  0.00    -0.343 OA
ATOM     40  C   UNL     1      16.616   2.538  21.071  0.00  0.00    +0.198 C 
ENDBRANCH  25  39
ENDBRANCH  22  23
BRANCH  22  41
ATOM     41  O   UNL     1      16.007   2.857  26.932  0.00  0.00    -0.387 OA
ATOM     42  H   UNL     1      16.292   3.762  26.786  0.00  0.00    +0.210 HD
ENDBRANCH  22  41
ENDBRANCH   1  22
TORSDOF 14
