REMARK VINA RESULT:    -5.514      2.281      4.639
REMARK INTER + INTRA:         -12.413
REMARK INTER:                 -10.219
REMARK INTRA:                  -2.194
REMARK UNBOUND:                -1.902
REMARK  Name = lig_assembled_13.pdb
REMARK  20 active torsions:
REMARK  status: ('A' for Active; 'I' for Inactive)
REMARK    1  A    between atoms: _2  and  _9
REMARK    2  A    between atoms: _4  and  _18
REMARK    3  A    between atoms: _5  and  _11
REMARK    4  A    between atoms: _6  and  _7
REMARK    5  A    between atoms: _6  and  _18
REMARK    6  A    between atoms: _9  and  _10
REMARK    7  A    between atoms: _10  and  _12
REMARK    8  A    between atoms: _11  and  _12
REMARK    9  A    between atoms: _14  and  _34
REMARK   10  A    between atoms: _16  and  _22
REMARK   11  A    between atoms: _17  and  _21
REMARK   12  A    between atoms: _21  and  _22
REMARK   13  A    between atoms: _24  and  _25
REMARK   14  A    between atoms: _26  and  _27
REMARK   15  A    between atoms: _28  and  _30
REMARK   16  A    between atoms: _30  and  _31
REMARK   17  A    between atoms: _30  and  _32
REMARK   18  A    between atoms: _32  and  _33
REMARK   19  A    between atoms: _32  and  _34
REMARK   20  A    between atoms: _35  and  _37
REMARK                            x       y       z     vdW  Elec       q    Type
REMARK                         _______ _______ _______ _____ _____    ______ ____
ROOT
ATOM      1  C   UNL     1       6.241   2.145  33.442  0.00  0.00    +0.163 C 
ENDROOT
BRANCH   1   2
ATOM      2  O   UNL     1       6.411   0.865  34.073  0.00  0.00    -0.388 OA
ATOM      3  H   UNL     1       5.940   0.195  33.571  0.00  0.00    +0.210 HD
ENDBRANCH   1   2
BRANCH   1   4
ATOM      4  C   UNL     1       7.602   2.774  33.099  0.00  0.00    +0.175 C 
BRANCH   4   5
ATOM      5  C   UNL     1       8.343   3.266  34.350  0.00  0.00    +0.176 C 
ATOM      6  O   UNL     1       8.893   2.104  35.030  0.00  0.00    -0.332 OA
ATOM      7  C   UNL     1       9.729   2.390  36.200  0.00  0.00    +0.277 C 
ATOM      8  C   UNL     1       8.960   3.274  37.212  0.00  0.00    +0.110 C 
ATOM      9  C   UNL     1       8.331   4.506  36.529  0.00  0.00    +0.143 C 
ATOM     10  C   UNL     1       7.484   4.093  35.324  0.00  0.00    +0.133 C 
BRANCH  10  11
ATOM     11  N   UNL     1       6.961   5.281  34.631  0.00  0.00    -0.308 N 
ATOM     12  H   UNL     1       7.619   5.864  34.132  0.00  0.00    +0.149 HD
ATOM     13  C   UNL     1       5.674   5.639  34.618  0.00  0.00    +0.210 C 
ATOM     14  C   UNL     1       4.701   4.745  35.409  0.00  0.00    +0.109 C 
ATOM     15  O   UNL     1       5.263   6.632  34.016  0.00  0.00    -0.276 OA
ENDBRANCH  10  11
BRANCH   7  16
ATOM     16  C   UNL     1      11.032   3.102  35.779  0.00  0.00    +0.414 C 
ATOM     17  O   UNL     1      11.507   2.915  34.660  0.00  0.00    -0.240 OA
ATOM     18  O   UNL     1      11.607   3.863  36.559  0.00  0.00    -0.240 OA
ENDBRANCH   7  16
BRANCH   7  19
ATOM     19  O   UNL     1      10.048   1.129  36.843  0.00  0.00    -0.343 OA
ATOM     20  C   UNL     1      10.290   0.023  35.937  0.00  0.00    +0.198 C 
ENDBRANCH   7  19
BRANCH   9  21
ATOM     21  O   UNL     1       7.509   5.208  37.463  0.00  0.00    -0.390 OA
ATOM     22  H   UNL     1       6.707   5.504  37.026  0.00  0.00    +0.210 HD
ENDBRANCH   9  21
ENDBRANCH   4   5
BRANCH   4  23
ATOM     23  O   UNL     1       7.427   3.859  32.166  0.00  0.00    -0.387 OA
ATOM     24  H   UNL     1       7.780   3.606  31.310  0.00  0.00    +0.210 HD
ENDBRANCH   4  23
ENDBRANCH   1   4
BRANCH   1  25
ATOM     25  C   UNL     1       5.414   1.993  32.169  0.00  0.00    +0.141 C 
BRANCH  25  28
ATOM     26  C   UNL     1       3.151   2.933  32.483  0.00  0.00    +0.401 C 
ATOM     27  O   UNL     1       2.705   1.922  33.030  0.00  0.00    -0.226 OA
ATOM     28  N   UNL     1       4.404   3.051  32.043  0.00  0.00    -0.279 N 
ATOM     29  H   UNL     1       4.674   3.917  31.598  0.00  0.00    +0.152 HD
BRANCH  26  30
ATOM     30  O   UNL     1       2.289   4.058  32.294  0.00  0.00    -0.444 OA
BRANCH  30  31
ATOM     31  C   UNL     1       0.958   3.602  32.037  0.00  0.00    +0.292 C 
BRANCH  31  33
ATOM     32  N   UNL     1      -0.136   4.543  30.026  0.00  0.00    -0.131 NA
ATOM     33  C   UNL     1       0.685   3.604  30.588  0.00  0.00    +0.120 A 
ATOM     34  C   UNL     1       1.137   2.755  29.608  0.00  0.00    +0.137 A 
ATOM     35  N   UNL     1       0.502   3.188  28.480  0.00  0.00    -0.241 N 
ATOM     36  N   UNL     1      -0.223   4.291  28.725  0.00  0.00    -0.065 NA
BRANCH  35  37
ATOM     37  C   UNL     1       0.616   2.674  27.133  0.00  0.00    +0.265 C 
BRANCH  37  38
ATOM     38  C   UNL     1       1.632   3.430  26.326  0.00  0.00    +0.329 C 
ATOM     39  O   UNL     1       2.644   3.968  26.750  0.00  0.00    -0.249 OA
BRANCH  38  40
ATOM     40  O   UNL     1       1.194   3.520  25.034  0.00  0.00    -0.464 OA
BRANCH  40  41
ATOM     41  C   UNL     1       0.844   4.844  24.605  0.00  0.00    +0.229 C 
ATOM     42  C   UNL     1       1.633   5.149  23.344  0.00  0.00    +0.048 C 
ENDBRANCH  40  41
ENDBRANCH  38  40
ENDBRANCH  37  38
ENDBRANCH  35  37
ENDBRANCH  31  33
ENDBRANCH  30  31
ENDBRANCH  26  30
ENDBRANCH  25  28
ENDBRANCH   1  25
TORSDOF 17
