REMARK VINA RESULT:    -5.858     13.665     17.446
REMARK INTER + INTRA:         -12.902
REMARK INTER:                 -11.020
REMARK INTRA:                  -1.883
REMARK UNBOUND:                -2.078
REMARK  Name = lig_assembled_14.pdb
REMARK  18 active torsions:
REMARK  status: ('A' for Active; 'I' for Inactive)
REMARK    1  A    between atoms: _2  and  _10
REMARK    2  A    between atoms: _3  and  _11
REMARK    3  A    between atoms: _5  and  _19
REMARK    4  A    between atoms: _7  and  _8
REMARK    5  A    between atoms: _7  and  _19
REMARK    6  A    between atoms: _10  and  _11
REMARK    7  A    between atoms: _15  and  _35
REMARK    8  A    between atoms: _17  and  _23
REMARK    9  A    between atoms: _18  and  _22
REMARK   10  A    between atoms: _22  and  _23
REMARK   11  A    between atoms: _25  and  _26
REMARK   12  A    between atoms: _27  and  _28
REMARK   13  A    between atoms: _29  and  _31
REMARK   14  A    between atoms: _31  and  _32
REMARK   15  A    between atoms: _31  and  _33
REMARK   16  A    between atoms: _33  and  _34
REMARK   17  A    between atoms: _33  and  _35
REMARK   18  A    between atoms: _36  and  _38
REMARK                            x       y       z     vdW  Elec       q    Type
REMARK                         _______ _______ _______ _____ _____    ______ ____
ROOT
ATOM      1  C   UNL     1       7.308   2.443  34.271  0.00  0.00    +0.163 C 
ENDROOT
BRANCH   1   2
ATOM      2  O   UNL     1       8.020   2.153  35.485  0.00  0.00    -0.388 OA
ATOM      3  H   UNL     1       7.971   2.909  36.074  0.00  0.00    +0.210 HD
ENDBRANCH   1   2
BRANCH   1   4
ATOM      4  C   UNL     1       7.721   3.813  33.706  0.00  0.00    +0.175 C 
BRANCH   4   5
ATOM      5  C   UNL     1       7.129   4.975  34.516  0.00  0.00    +0.176 C 
ATOM      6  O   UNL     1       7.875   5.080  35.759  0.00  0.00    -0.332 OA
ATOM      7  C   UNL     1       7.516   6.210  36.621  0.00  0.00    +0.277 C 
ATOM      8  C   UNL     1       5.997   6.201  36.921  0.00  0.00    +0.110 C 
ATOM      9  C   UNL     1       5.162   6.059  35.631  0.00  0.00    +0.143 C 
ATOM     10  C   UNL     1       5.622   4.854  34.810  0.00  0.00    +0.133 C 
BRANCH  10  11
ATOM     11  N   UNL     1       4.878   4.780  33.543  0.00  0.00    -0.308 N 
ATOM     12  H   UNL     1       5.060   5.489  32.847  0.00  0.00    +0.149 HD
ATOM     13  C   UNL     1       3.978   3.837  33.252  0.00  0.00    +0.210 C 
ATOM     14  C   UNL     1       3.705   2.785  34.343  0.00  0.00    +0.109 C 
ATOM     15  O   UNL     1       3.381   3.791  32.176  0.00  0.00    -0.276 OA
ENDBRANCH  10  11
BRANCH   7  16
ATOM     16  C   UNL     1       7.902   7.549  35.956  0.00  0.00    +0.414 C 
ATOM     17  O   UNL     1       8.227   8.513  36.648  0.00  0.00    -0.240 OA
ATOM     18  O   UNL     1       7.888   7.664  34.730  0.00  0.00    -0.240 OA
ENDBRANCH   7  16
BRANCH   9  19
ATOM     19  O   UNL     1       3.783   5.902  35.965  0.00  0.00    -0.390 OA
ATOM     20  H   UNL     1       3.293   5.630  35.186  0.00  0.00    +0.210 HD
ENDBRANCH   9  19
BRANCH   7  21
ATOM     21  O   UNL     1       8.232   6.064  37.875  0.00  0.00    -0.343 OA
ATOM     22  C   UNL     1       8.003   4.811  38.567  0.00  0.00    +0.198 C 
ENDBRANCH   7  21
ENDBRANCH   4   5
BRANCH   4  23
ATOM     23  O   UNL     1       7.327   3.919  32.323  0.00  0.00    -0.387 OA
ATOM     24  H   UNL     1       6.733   3.197  32.103  0.00  0.00    +0.210 HD
ENDBRANCH   4  23
ENDBRANCH   1   4
BRANCH   1  25
ATOM     25  C   UNL     1       7.582   1.360  33.233  0.00  0.00    +0.141 C 
BRANCH  25  28
ATOM     26  C   UNL     1       6.287  -0.215  31.837  0.00  0.00    +0.401 C 
ATOM     27  O   UNL     1       7.267  -0.899  31.533  0.00  0.00    -0.226 OA
ATOM     28  N   UNL     1       6.344   0.862  32.622  0.00  0.00    -0.279 N 
ATOM     29  H   UNL     1       5.486   1.364  32.806  0.00  0.00    +0.152 HD
BRANCH  26  30
ATOM     30  O   UNL     1       5.002  -0.577  31.325  0.00  0.00    -0.444 OA
BRANCH  30  31
ATOM     31  C   UNL     1       4.133   0.557  31.370  0.00  0.00    +0.292 C 
BRANCH  31  33
ATOM     32  N   UNL     1       3.312  -0.395  29.238  0.00  0.00    -0.131 NA
ATOM     33  C   UNL     1       3.333   0.642  30.133  0.00  0.00    +0.120 A 
ATOM     34  C   UNL     1       2.541   1.664  29.659  0.00  0.00    +0.137 A 
ATOM     35  N   UNL     1       2.079   1.191  28.469  0.00  0.00    -0.250 N 
ATOM     36  N   UNL     1       2.537  -0.049  28.222  0.00  0.00    -0.065 NA
BRANCH  35  37
ATOM     37  C   UNL     1       1.254   1.872  27.494  0.00  0.00    +0.160 C 
BRANCH  37  38
ATOM     38  C   UNL     1       1.775   3.281  27.189  0.00  0.00    +0.107 C 
BRANCH  38  39
ATOM     39  N   UNL     1       2.155   3.460  25.776  0.00  0.00    -0.301 NA
ATOM     40  C   UNL     1       2.147   2.208  25.015  0.00  0.00    +0.084 C 
ATOM     41  C   UNL     1       2.148   2.696  23.580  0.00  0.00    +0.017 C 
ATOM     42  C   UNL     1       1.251   3.920  23.614  0.00  0.00    +0.017 C 
ATOM     43  C   UNL     1       1.231   4.363  25.074  0.00  0.00    +0.084 C 
ENDBRANCH  38  39
ENDBRANCH  37  38
ENDBRANCH  35  37
ENDBRANCH  31  33
ENDBRANCH  30  31
ENDBRANCH  26  30
ENDBRANCH  25  28
ENDBRANCH   1  25
TORSDOF 16
