REMARK VINA RESULT:    -6.120      2.921      5.339
REMARK INTER + INTRA:         -13.895
REMARK INTER:                 -11.056
REMARK INTRA:                  -2.839
REMARK UNBOUND:                -2.230
REMARK  Name = lig_assembled_9.pdb
REMARK  20 active torsions:
REMARK  status: ('A' for Active; 'I' for Inactive)
REMARK    1  A    between atoms: _2  and  _9
REMARK    2  A    between atoms: _4  and  _23
REMARK    3  A    between atoms: _6  and  _7
REMARK    4  A    between atoms: _6  and  _23
REMARK    5  A    between atoms: _11  and  _12
REMARK    6  A    between atoms: _12  and  _17
REMARK    7  A    between atoms: _13  and  _14
REMARK    8  A    between atoms: _13  and  _17
REMARK    9  A    between atoms: _19  and  _39
REMARK   10  A    between atoms: _21  and  _27
REMARK   11  A    between atoms: _22  and  _26
REMARK   12  A    between atoms: _26  and  _27
REMARK   13  A    between atoms: _29  and  _30
REMARK   14  A    between atoms: _31  and  _32
REMARK   15  A    between atoms: _33  and  _35
REMARK   16  A    between atoms: _35  and  _36
REMARK   17  A    between atoms: _35  and  _37
REMARK   18  A    between atoms: _37  and  _38
REMARK   19  A    between atoms: _37  and  _39
REMARK   20  A    between atoms: _40  and  _42
REMARK                            x       y       z     vdW  Elec       q    Type
REMARK                         _______ _______ _______ _____ _____    ______ ____
ROOT
ATOM      1  C   UNL     1       4.372  -0.999  30.601  0.00  0.00    +0.163 C 
ENDROOT
BRANCH   1   2
ATOM      2  O   UNL     1       5.775  -0.692  30.654  0.00  0.00    -0.388 OA
ATOM      3  H   UNL     1       6.213  -1.297  31.258  0.00  0.00    +0.210 HD
ENDBRANCH   1   2
BRANCH   1   4
ATOM      4  C   UNL     1       3.559   0.223  30.142  0.00  0.00    +0.175 C 
BRANCH   4   5
ATOM      5  C   UNL     1       3.824   1.456  31.018  0.00  0.00    +0.176 C 
ATOM      6  O   UNL     1       3.964   1.006  32.393  0.00  0.00    -0.332 OA
ATOM      7  C   UNL     1       4.329   2.041  33.365  0.00  0.00    +0.277 C 
ATOM      8  C   UNL     1       3.328   3.220  33.301  0.00  0.00    +0.110 C 
ATOM      9  C   UNL     1       3.122   3.713  31.853  0.00  0.00    +0.143 C 
ATOM     10  C   UNL     1       2.749   2.555  30.927  0.00  0.00    +0.133 C 
BRANCH  10  11
ATOM     11  N   UNL     1       2.641   3.022  29.536  0.00  0.00    -0.308 N 
ATOM     12  H   UNL     1       3.496   3.240  29.043  0.00  0.00    +0.149 HD
ATOM     13  C   UNL     1       1.487   3.177  28.881  0.00  0.00    +0.210 C 
ATOM     14  C   UNL     1       0.200   2.862  29.668  0.00  0.00    +0.109 C 
ATOM     15  O   UNL     1       1.427   3.556  27.711  0.00  0.00    -0.276 OA
ENDBRANCH  10  11
BRANCH   7  16
ATOM     16  C   UNL     1       5.757   2.561  33.101  0.00  0.00    +0.414 C 
ATOM     17  O   UNL     1       6.561   1.874  32.472  0.00  0.00    -0.240 OA
ATOM     18  O   UNL     1       6.105   3.667  33.515  0.00  0.00    -0.240 OA
ENDBRANCH   7  16
BRANCH   7  19
ATOM     19  O   UNL     1       4.260   1.455  34.691  0.00  0.00    -0.343 OA
ATOM     20  C   UNL     1       3.713   2.322  35.716  0.00  0.00    +0.198 C 
ENDBRANCH   7  19
BRANCH   9  21
ATOM     21  O   UNL     1       2.084   4.694  31.821  0.00  0.00    -0.390 OA
ATOM     22  H   UNL     1       2.351   5.425  31.260  0.00  0.00    +0.210 HD
ENDBRANCH   9  21
ENDBRANCH   4   5
BRANCH   4  23
ATOM     23  O   UNL     1       2.151  -0.090  30.138  0.00  0.00    -0.387 OA
ATOM     24  H   UNL     1       1.845  -0.199  31.041  0.00  0.00    +0.210 HD
ENDBRANCH   4  23
ENDBRANCH   1   4
BRANCH   1  25
ATOM     25  C   UNL     1       4.129  -2.162  29.644  0.00  0.00    +0.141 C 
BRANCH  25  28
ATOM     26  C   UNL     1       5.079  -1.560  27.444  0.00  0.00    +0.401 C 
ATOM     27  O   UNL     1       6.245  -1.770  27.785  0.00  0.00    -0.226 OA
ATOM     28  N   UNL     1       4.028  -1.712  28.250  0.00  0.00    -0.279 N 
ATOM     29  H   UNL     1       3.110  -1.505  27.881  0.00  0.00    +0.152 HD
BRANCH  26  30
ATOM     30  O   UNL     1       4.814  -1.123  26.108  0.00  0.00    -0.444 OA
BRANCH  30  31
ATOM     31  C   UNL     1       3.468  -1.454  25.755  0.00  0.00    +0.292 C 
BRANCH  31  33
ATOM     32  N   UNL     1       1.666   0.231  25.952  0.00  0.00    -0.131 NA
ATOM     33  C   UNL     1       2.754  -0.252  25.286  0.00  0.00    +0.121 A 
ATOM     34  C   UNL     1       3.011   0.554  24.201  0.00  0.00    +0.143 A 
ATOM     35  N   UNL     1       2.065   1.552  24.269  0.00  0.00    -0.220 N 
ATOM     36  N   UNL     1       1.248   1.322  25.324  0.00  0.00    -0.060 NA
BRANCH  35  37
ATOM     37  C   UNL     1       1.917   2.690  23.435  0.00  0.00    +0.068 A 
ATOM     38  C   UNL     1       1.815   2.546  22.044  0.00  0.00    +0.042 A 
ATOM     39  C   UNL     1       1.700   3.676  21.221  0.00  0.00    +0.061 A 
ATOM     40  C   UNL     1       1.683   4.952  21.794  0.00  0.00    +0.015 A 
ATOM     41  C   UNL     1       1.771   5.099  23.180  0.00  0.00    +0.003 A 
ATOM     42  C   UNL     1       1.886   3.975  24.000  0.00  0.00    +0.028 A 
BRANCH  39  43
ATOM     43  C   UNL     1       1.530   3.563  19.749  0.00  0.00    +0.339 C 
ATOM     44  O   UNL     1       2.342   3.977  18.938  0.00  0.00    -0.245 OA
BRANCH  43  45
ATOM     45  O   UNL     1       0.314   3.033  19.467  0.00  0.00    -0.461 OA
BRANCH  45  46
ATOM     46  C   UNL     1      -0.797   3.929  19.603  0.00  0.00    +0.229 C 
ATOM     47  C   UNL     1      -1.040   4.582  18.255  0.00  0.00    +0.048 C 
ENDBRANCH  45  46
ENDBRANCH  43  45
ENDBRANCH  39  43
ENDBRANCH  35  37
ENDBRANCH  31  33
ENDBRANCH  30  31
ENDBRANCH  26  30
ENDBRANCH  25  28
ENDBRANCH   1  25
TORSDOF 17
