REMARK VINA RESULT:    -6.243      2.185      3.593
REMARK INTER + INTRA:         -13.174
REMARK INTER:                 -11.549
REMARK INTRA:                  -1.626
REMARK UNBOUND:                -2.370
REMARK  Name = lig_assembled_87.pdb
REMARK  17 active torsions:
REMARK  status: ('A' for Active; 'I' for Inactive)
REMARK    1  A    between atoms: _2  and  _10
REMARK    2  A    between atoms: _3  and  _13
REMARK    3  A    between atoms: _5  and  _21
REMARK    4  A    between atoms: _7  and  _8
REMARK    5  A    between atoms: _7  and  _21
REMARK    6  A    between atoms: _17  and  _37
REMARK    7  A    between atoms: _19  and  _25
REMARK    8  A    between atoms: _20  and  _24
REMARK    9  A    between atoms: _24  and  _25
REMARK   10  A    between atoms: _27  and  _28
REMARK   11  A    between atoms: _29  and  _30
REMARK   12  A    between atoms: _31  and  _33
REMARK   13  A    between atoms: _33  and  _34
REMARK   14  A    between atoms: _33  and  _35
REMARK   15  A    between atoms: _35  and  _36
REMARK   16  A    between atoms: _35  and  _37
REMARK   17  A    between atoms: _38  and  _40
REMARK                            x       y       z     vdW  Elec       q    Type
REMARK                         _______ _______ _______ _____ _____    ______ ____
ROOT
ATOM      1  C   UNL     1       3.414   3.422  33.524  0.00  0.00    +0.163 C 
ENDROOT
BRANCH   1   2
ATOM      2  O   UNL     1       4.061   4.566  32.944  0.00  0.00    -0.388 OA
ATOM      3  H   UNL     1       3.403   5.128  32.525  0.00  0.00    +0.210 HD
ENDBRANCH   1   2
BRANCH   1   4
ATOM      4  C   UNL     1       2.006   3.275  32.958  0.00  0.00    +0.141 C 
BRANCH   4   7
ATOM      5  C   UNL     1       1.521   3.845  30.603  0.00  0.00    +0.401 C 
ATOM      6  O   UNL     1       0.984   4.921  30.876  0.00  0.00    -0.226 OA
ATOM      7  N   UNL     1       2.021   3.009  31.514  0.00  0.00    -0.279 N 
ATOM      8  H   UNL     1       2.434   2.145  31.193  0.00  0.00    +0.152 HD
BRANCH   5   9
ATOM      9  O   UNL     1       1.621   3.446  29.234  0.00  0.00    -0.444 OA
BRANCH   9  10
ATOM     10  C   UNL     1       0.328   3.498  28.625  0.00  0.00    +0.292 C 
BRANCH  10  12
ATOM     11  N   UNL     1      -0.249   4.844  26.636  0.00  0.00    -0.131 NA
ATOM     12  C   UNL     1       0.455   3.813  27.191  0.00  0.00    +0.120 A 
ATOM     13  C   UNL     1       1.230   3.222  26.219  0.00  0.00    +0.137 A 
ATOM     14  N   UNL     1       1.052   4.014  25.116  0.00  0.00    -0.248 N 
ATOM     15  N   UNL     1       0.072   4.910  25.356  0.00  0.00    -0.065 NA
BRANCH  14  16
ATOM     16  C   UNL     1       1.722   4.011  23.802  0.00  0.00    +0.112 C 
ATOM     17  C   UNL     1       1.115   4.988  22.758  0.00  0.00    +0.045 C 
ATOM     18  C   UNL     1       0.592   4.341  21.465  0.00  0.00    +0.059 C 
ATOM     19  C   UNL     1       1.729   3.994  20.494  0.00  0.00    +0.020 C 
ATOM     20  C   UNL     1       2.034   2.522  20.765  0.00  0.00    +0.020 C 
ATOM     21  C   UNL     1       1.179   2.188  21.988  0.00  0.00    +0.059 C 
ATOM     22  N   UNL     1       0.018   3.020  21.691  0.00  0.00    -0.299 NA
ATOM     23  C   UNL     1      -1.120   2.928  22.580  0.00  0.00    +0.105 C 
ATOM     24  C   UNL     1       1.918   2.557  23.276  0.00  0.00    +0.045 C 
ENDBRANCH  14  16
ENDBRANCH  10  12
ENDBRANCH   9  10
ENDBRANCH   5   9
ENDBRANCH   4   7
ENDBRANCH   1   4
BRANCH   1  25
ATOM     25  C   UNL     1       3.342   3.549  35.056  0.00  0.00    +0.175 C 
BRANCH  25  26
ATOM     26  C   UNL     1       4.145   4.751  35.574  0.00  0.00    +0.176 C 
ATOM     27  O   UNL     1       5.537   4.551  35.207  0.00  0.00    -0.332 OA
ATOM     28  C   UNL     1       6.444   5.657  35.530  0.00  0.00    +0.277 C 
ATOM     29  C   UNL     1       6.345   6.016  37.033  0.00  0.00    +0.110 C 
ATOM     30  C   UNL     1       4.880   6.208  37.478  0.00  0.00    +0.143 C 
ATOM     31  C   UNL     1       4.026   5.000  37.089  0.00  0.00    +0.133 C 
BRANCH  31  32
ATOM     32  N   UNL     1       2.616   5.232  37.440  0.00  0.00    -0.308 N 
ATOM     33  H   UNL     1       2.139   6.003  36.994  0.00  0.00    +0.149 HD
ATOM     34  C   UNL     1       1.925   4.490  38.310  0.00  0.00    +0.210 C 
ATOM     35  C   UNL     1       2.687   3.339  38.993  0.00  0.00    +0.109 C 
ATOM     36  O   UNL     1       0.740   4.699  38.574  0.00  0.00    -0.276 OA
ENDBRANCH  31  32
BRANCH  28  37
ATOM     37  C   UNL     1       6.113   6.901  34.680  0.00  0.00    +0.414 C 
ATOM     38  O   UNL     1       5.133   6.901  33.935  0.00  0.00    -0.240 OA
ATOM     39  O   UNL     1       6.824   7.905  34.739  0.00  0.00    -0.240 OA
ENDBRANCH  28  37
BRANCH  30  40
ATOM     40  O   UNL     1       4.825   6.387  38.894  0.00  0.00    -0.390 OA
ATOM     41  H   UNL     1       4.560   7.288  39.093  0.00  0.00    +0.210 HD
ENDBRANCH  30  40
BRANCH  28  42
ATOM     42  O   UNL     1       7.800   5.222  35.252  0.00  0.00    -0.343 OA
ATOM     43  C   UNL     1       7.904   4.023  34.444  0.00  0.00    +0.198 C 
ENDBRANCH  28  42
ENDBRANCH  25  26
BRANCH  25  44
ATOM     44  O   UNL     1       3.808   2.335  35.678  0.00  0.00    -0.387 OA
ATOM     45  H   UNL     1       3.057   1.777  35.894  0.00  0.00    +0.210 HD
ENDBRANCH  25  44
ENDBRANCH   1  25
TORSDOF 14
