REMARK VINA RESULT:    -7.049     11.803     19.721
REMARK INTER + INTRA:         -15.729
REMARK INTER:                 -12.832
REMARK INTRA:                  -2.897
REMARK UNBOUND:                -2.499
REMARK  Name = lig_assembled_64.pdb
REMARK  19 active torsions:
REMARK  status: ('A' for Active; 'I' for Inactive)
REMARK    1  A    between atoms: _2  and  _10
REMARK    2  A    between atoms: _5  and  _27
REMARK    3  A    between atoms: _7  and  _8
REMARK    4  A    between atoms: _7  and  _27
REMARK    5  A    between atoms: _12  and  _13
REMARK    6  A    between atoms: _13  and  _21
REMARK    7  A    between atoms: _14  and  _15
REMARK    8  A    between atoms: _23  and  _43
REMARK    9  A    between atoms: _25  and  _31
REMARK   10  A    between atoms: _26  and  _30
REMARK   11  A    between atoms: _30  and  _31
REMARK   12  A    between atoms: _33  and  _34
REMARK   13  A    between atoms: _35  and  _36
REMARK   14  A    between atoms: _37  and  _39
REMARK   15  A    between atoms: _39  and  _40
REMARK   16  A    between atoms: _39  and  _41
REMARK   17  A    between atoms: _41  and  _42
REMARK   18  A    between atoms: _41  and  _43
REMARK   19  A    between atoms: _44  and  _46
REMARK                            x       y       z     vdW  Elec       q    Type
REMARK                         _______ _______ _______ _____ _____    ______ ____
ROOT
ATOM      1  C   UNL     1      -4.513   8.806  17.518  0.00  0.00    +0.401 C 
ATOM      2  O   UNL     1      -4.783   9.292  18.618  0.00  0.00    -0.226 OA
ATOM      3  N   UNL     1      -4.235   9.528  16.431  0.00  0.00    -0.279 N 
ATOM      4  H   UNL     1      -4.016   9.038  15.576  0.00  0.00    +0.152 HD
ENDROOT
BRANCH   3   5
ATOM      5  C   UNL     1      -4.230  10.996  16.409  0.00  0.00    +0.141 C 
BRANCH   5   6
ATOM      6  C   UNL     1      -4.005  11.543  15.003  0.00  0.00    +0.163 C 
BRANCH   6   7
ATOM      7  O   UNL     1      -2.721  12.183  14.924  0.00  0.00    -0.388 OA
ATOM      8  H   UNL     1      -2.694  12.752  14.151  0.00  0.00    +0.210 HD
ENDBRANCH   6   7
BRANCH   6   9
ATOM      9  C   UNL     1      -4.112  10.397  13.983  0.00  0.00    +0.175 C 
BRANCH   9  10
ATOM     10  C   UNL     1      -3.407  10.732  12.661  0.00  0.00    +0.176 C 
ATOM     11  O   UNL     1      -3.784  12.085  12.283  0.00  0.00    -0.332 OA
ATOM     12  C   UNL     1      -3.119  12.619  11.091  0.00  0.00    +0.277 C 
ATOM     13  C   UNL     1      -3.317  11.665   9.888  0.00  0.00    +0.110 C 
ATOM     14  C   UNL     1      -2.959  10.209  10.250  0.00  0.00    +0.143 C 
ATOM     15  C   UNL     1      -3.704   9.757  11.506  0.00  0.00    +0.133 C 
BRANCH  15  16
ATOM     16  N   UNL     1      -3.289   8.399  11.891  0.00  0.00    -0.308 N 
ATOM     17  H   UNL     1      -2.340   8.269  12.214  0.00  0.00    +0.149 HD
ATOM     18  C   UNL     1      -4.084   7.326  11.842  0.00  0.00    +0.210 C 
ATOM     19  C   UNL     1      -5.515   7.552  11.321  0.00  0.00    +0.109 C 
ATOM     20  O   UNL     1      -3.713   6.203  12.185  0.00  0.00    -0.276 OA
ENDBRANCH  15  16
BRANCH  12  21
ATOM     21  C   UNL     1      -1.611  12.817  11.349  0.00  0.00    +0.414 C 
ATOM     22  O   UNL     1      -1.210  13.144  12.466  0.00  0.00    -0.240 OA
ATOM     23  O   UNL     1      -0.795  12.650  10.442  0.00  0.00    -0.240 OA
ENDBRANCH  12  21
BRANCH  12  24
ATOM     24  O   UNL     1      -3.731  13.894  10.769  0.00  0.00    -0.343 OA
ATOM     25  C   UNL     1      -4.890  14.237  11.570  0.00  0.00    +0.198 C 
ENDBRANCH  12  24
BRANCH  14  26
ATOM     26  O   UNL     1      -3.298   9.344   9.165  0.00  0.00    -0.390 OA
ATOM     27  H   UNL     1      -4.207   9.050   9.262  0.00  0.00    +0.210 HD
ENDBRANCH  14  26
ENDBRANCH   9  10
BRANCH   9  28
ATOM     28  O   UNL     1      -5.497  10.076  13.740  0.00  0.00    -0.387 OA
ATOM     29  H   UNL     1      -6.056  10.743  14.144  0.00  0.00    +0.210 HD
ENDBRANCH   9  28
ENDBRANCH   6   9
ENDBRANCH   5   6
ENDBRANCH   3   5
BRANCH   1  30
ATOM     30  O   UNL     1      -4.486   7.384  17.374  0.00  0.00    -0.444 OA
BRANCH  30  31
ATOM     31  C   UNL     1      -3.802   7.038  16.167  0.00  0.00    +0.292 C 
BRANCH  31  33
ATOM     32  N   UNL     1      -1.340   6.961  15.867  0.00  0.00    -0.131 NA
ATOM     33  C   UNL     1      -2.469   6.483  16.469  0.00  0.00    +0.121 A 
ATOM     34  C   UNL     1      -2.121   5.471  17.332  0.00  0.00    +0.143 A 
ATOM     35  N   UNL     1      -0.756   5.359  17.218  0.00  0.00    -0.220 N 
ATOM     36  N   UNL     1      -0.302   6.274  16.329  0.00  0.00    -0.060 NA
BRANCH  35  37
ATOM     37  C   UNL     1       0.112   4.462  17.887  0.00  0.00    +0.071 A 
ATOM     38  C   UNL     1       0.726   3.427  17.191  0.00  0.00    +0.063 A 
ATOM     39  CA  UNL     1       1.561   2.587  17.902  0.00  0.00    +0.150 A 
ATOM     40  N   UNL     1       1.822   2.695  19.236  0.00  0.00    -0.240 NA
ATOM     41  C   UNL     1       1.207   3.702  19.913  0.00  0.00    +0.074 A 
ATOM     42  C   UNL     1       0.359   4.605  19.262  0.00  0.00    +0.056 A 
BRANCH  41  43
ATOM     43  C   UNL     1       1.476   3.753  21.371  0.00  0.00    +0.000 A 
ATOM     44  C   UNL     1       1.795   2.600  22.113  0.00  0.00    +0.010 A 
ATOM     45  C   UNL     1       2.085   2.666  23.481  0.00  0.00    +0.001 A 
ATOM     46  C   UNL     1       2.063   3.889  24.143  0.00  0.00    +0.000 A 
ATOM     47  C   UNL     1       1.743   5.045  23.438  0.00  0.00    +0.001 A 
ATOM     48  C   UNL     1       1.454   4.976  22.070  0.00  0.00    +0.010 A 
ENDBRANCH  41  43
BRANCH  39  49
ATOM     49  C   UNL     1       2.240   1.463  17.196  0.00  0.00    +0.355 C 
ATOM     50  OXT UNL     1       1.784   0.338  17.091  0.00  0.00    -0.243 OA
BRANCH  49  51
ATOM     51  O   UNL     1       3.429   1.863  16.691  0.00  0.00    -0.476 OA
ATOM     52  H   UNL     1       4.021   2.125  17.434  0.00  0.00    +0.295 HD
ENDBRANCH  49  51
ENDBRANCH  39  49
ENDBRANCH  35  37
ENDBRANCH  31  33
ENDBRANCH  30  31
ENDBRANCH   1  30
TORSDOF 17
