REMARK VINA RESULT:    -5.920     13.958     15.446
REMARK INTER + INTRA:         -13.187
REMARK INTER:                 -11.037
REMARK INTRA:                  -2.150
REMARK UNBOUND:                -1.902
REMARK  Name = lig_assembled_13.pdb
REMARK  20 active torsions:
REMARK  status: ('A' for Active; 'I' for Inactive)
REMARK    1  A    between atoms: _2  and  _9
REMARK    2  A    between atoms: _4  and  _18
REMARK    3  A    between atoms: _5  and  _11
REMARK    4  A    between atoms: _6  and  _7
REMARK    5  A    between atoms: _6  and  _18
REMARK    6  A    between atoms: _9  and  _10
REMARK    7  A    between atoms: _10  and  _12
REMARK    8  A    between atoms: _11  and  _12
REMARK    9  A    between atoms: _14  and  _34
REMARK   10  A    between atoms: _16  and  _22
REMARK   11  A    between atoms: _17  and  _21
REMARK   12  A    between atoms: _21  and  _22
REMARK   13  A    between atoms: _24  and  _25
REMARK   14  A    between atoms: _26  and  _27
REMARK   15  A    between atoms: _28  and  _30
REMARK   16  A    between atoms: _30  and  _31
REMARK   17  A    between atoms: _30  and  _32
REMARK   18  A    between atoms: _32  and  _33
REMARK   19  A    between atoms: _32  and  _34
REMARK   20  A    between atoms: _35  and  _37
REMARK                            x       y       z     vdW  Elec       q    Type
REMARK                         _______ _______ _______ _____ _____    ______ ____
ROOT
ATOM      1  C   UNL     1      18.760  10.345  29.311  0.00  0.00    +0.163 C 
ENDROOT
BRANCH   1   2
ATOM      2  O   UNL     1      17.468  10.959  29.451  0.00  0.00    -0.388 OA
ATOM      3  H   UNL     1      16.949  10.471  30.095  0.00  0.00    +0.210 HD
ENDBRANCH   1   2
BRANCH   1   4
ATOM      4  C   UNL     1      18.771   8.939  29.934  0.00  0.00    +0.175 C 
BRANCH   4   5
ATOM      5  C   UNL     1      17.980   8.883  31.250  0.00  0.00    +0.176 C 
ATOM      6  O   UNL     1      18.253  10.107  31.987  0.00  0.00    -0.332 OA
ATOM      7  C   UNL     1      17.496  10.279  33.231  0.00  0.00    +0.277 C 
ATOM      8  C   UNL     1      17.693   9.055  34.158  0.00  0.00    +0.110 C 
ATOM      9  C   UNL     1      17.445   7.728  33.410  0.00  0.00    +0.143 C 
ATOM     10  C   UNL     1      18.280   7.656  32.130  0.00  0.00    +0.133 C 
BRANCH  10  11
ATOM     11  N   UNL     1      17.970   6.427  31.382  0.00  0.00    -0.308 N 
ATOM     12  H   UNL     1      17.058   6.352  30.955  0.00  0.00    +0.149 HD
ATOM     13  C   UNL     1      18.816   5.404  31.231  0.00  0.00    +0.210 C 
ATOM     14  C   UNL     1      20.189   5.538  31.917  0.00  0.00    +0.109 C 
ATOM     15  O   UNL     1      18.535   4.394  30.586  0.00  0.00    -0.276 OA
ENDBRANCH  10  11
BRANCH   7  16
ATOM     16  C   UNL     1      15.994  10.466  32.936  0.00  0.00    +0.414 C 
ATOM     17  O   UNL     1      15.151   9.870  33.606  0.00  0.00    -0.240 OA
ATOM     18  O   UNL     1      15.624  11.213  32.029  0.00  0.00    -0.240 OA
ENDBRANCH   7  16
BRANCH   7  19
ATOM     19  O   UNL     1      18.011  11.454  33.910  0.00  0.00    -0.343 OA
ATOM     20  C   UNL     1      19.019  12.193  33.176  0.00  0.00    +0.198 C 
ENDBRANCH   7  19
BRANCH   9  21
ATOM     21  O   UNL     1      17.784   6.628  34.255  0.00  0.00    -0.390 OA
ATOM     22  H   UNL     1      18.305   5.991  33.760  0.00  0.00    +0.210 HD
ENDBRANCH   9  21
ENDBRANCH   4   5
BRANCH   4  23
ATOM     23  O   UNL     1      20.127   8.502  30.151  0.00  0.00    -0.387 OA
ATOM     24  H   UNL     1      20.510   8.220  29.317  0.00  0.00    +0.210 HD
ENDBRANCH   4  23
ENDBRANCH   1   4
BRANCH   1  25
ATOM     25  C   UNL     1      19.136  10.252  27.836  0.00  0.00    +0.141 C 
BRANCH  25  28
ATOM     26  C   UNL     1      19.396   8.237  26.430  0.00  0.00    +0.401 C 
ATOM     27  O   UNL     1      20.560   8.493  26.113  0.00  0.00    -0.226 OA
ATOM     28  N   UNL     1      18.653   9.007  27.226  0.00  0.00    -0.279 N 
ATOM     29  H   UNL     1      17.705   8.717  27.420  0.00  0.00    +0.152 HD
BRANCH  26  30
ATOM     30  O   UNL     1      18.784   7.049  25.921  0.00  0.00    -0.444 OA
BRANCH  30  31
ATOM     31  C   UNL     1      19.518   6.581  24.787  0.00  0.00    +0.292 C 
BRANCH  31  33
ATOM     32  N   UNL     1      17.712   6.332  23.114  0.00  0.00    -0.131 NA
ATOM     33  C   UNL     1      18.657   5.757  23.920  0.00  0.00    +0.120 A 
ATOM     34  C   UNL     1      18.618   4.394  23.759  0.00  0.00    +0.137 A 
ATOM     35  N   UNL     1      17.581   4.195  22.894  0.00  0.00    -0.241 N 
ATOM     36  N   UNL     1      17.071   5.362  22.471  0.00  0.00    -0.065 NA
BRANCH  35  37
ATOM     37  C   UNL     1      17.094   2.946  22.351  0.00  0.00    +0.265 C 
BRANCH  37  38
ATOM     38  C   UNL     1      16.911   1.903  23.415  0.00  0.00    +0.329 C 
ATOM     39  O   UNL     1      16.309   2.038  24.471  0.00  0.00    -0.249 OA
BRANCH  38  40
ATOM     40  O   UNL     1      17.621   0.787  23.070  0.00  0.00    -0.464 OA
BRANCH  40  41
ATOM     41  C   UNL     1      18.569   0.978  22.009  0.00  0.00    +0.229 C 
ATOM     42  C   UNL     1      18.545  -0.264  21.134  0.00  0.00    +0.048 C 
ENDBRANCH  40  41
ENDBRANCH  38  40
ENDBRANCH  37  38
ENDBRANCH  35  37
ENDBRANCH  31  33
ENDBRANCH  30  31
ENDBRANCH  26  30
ENDBRANCH  25  28
ENDBRANCH   1  25
TORSDOF 17
