REMARK VINA RESULT:    -4.920     19.971     24.617
REMARK INTER + INTRA:         -12.690
REMARK INTER:                 -10.862
REMARK INTRA:                  -1.828
REMARK UNBOUND:                -3.888
REMARK  Name = lig_assembled_46.pdb
REMARK  17 active torsions:
REMARK  status: ('A' for Active; 'I' for Inactive)
REMARK    1  A    between atoms: _2  and  _9
REMARK    2  A    between atoms: _4  and  _19
REMARK    3  A    between atoms: _6  and  _7
REMARK    4  A    between atoms: _6  and  _19
REMARK    5  A    between atoms: _9  and  _10
REMARK    6  A    between atoms: _15  and  _35
REMARK    7  A    between atoms: _17  and  _23
REMARK    8  A    between atoms: _18  and  _22
REMARK    9  A    between atoms: _22  and  _23
REMARK   10  A    between atoms: _25  and  _26
REMARK   11  A    between atoms: _27  and  _28
REMARK   12  A    between atoms: _29  and  _31
REMARK   13  A    between atoms: _31  and  _32
REMARK   14  A    between atoms: _31  and  _33
REMARK   15  A    between atoms: _33  and  _34
REMARK   16  A    between atoms: _33  and  _35
REMARK   17  A    between atoms: _36  and  _38
REMARK                            x       y       z     vdW  Elec       q    Type
REMARK                         _______ _______ _______ _____ _____    ______ ____
ROOT
ATOM      1  C   UNL     1       2.276   6.470   7.367  0.00  0.00    +0.163 C 
ENDROOT
BRANCH   1   2
ATOM      2  O   UNL     1       3.181   7.498   7.799  0.00  0.00    -0.388 OA
ATOM      3  H   UNL     1       2.757   8.356   7.715  0.00  0.00    +0.210 HD
ENDBRANCH   1   2
BRANCH   1   4
ATOM      4  C   UNL     1       1.902   5.575   8.544  0.00  0.00    +0.141 C 
BRANCH   4   7
ATOM      5  C   UNL     1       2.743   3.280   8.908  0.00  0.00    +0.401 C 
ATOM      6  O   UNL     1       1.644   2.749   8.737  0.00  0.00    -0.226 OA
ATOM      7  N   UNL     1       2.954   4.595   8.842  0.00  0.00    -0.279 N 
ATOM      8  H   UNL     1       3.891   4.937   9.007  0.00  0.00    +0.152 HD
BRANCH   5   9
ATOM      9  O   UNL     1       3.875   2.456   9.200  0.00  0.00    -0.444 OA
BRANCH   9  10
ATOM     10  C   UNL     1       3.516   1.080   9.045  0.00  0.00    +0.292 C 
BRANCH  10  12
ATOM     11  N   UNL     1       5.768   0.181   8.548  0.00  0.00    -0.131 NA
ATOM     12  C   UNL     1       4.666   0.211   9.360  0.00  0.00    +0.120 A 
ATOM     13  C   UNL     1       4.875  -0.626  10.434  0.00  0.00    +0.137 A 
ATOM     14  N   UNL     1       6.145  -1.092  10.250  0.00  0.00    -0.247 N 
ATOM     15  N   UNL     1       6.673  -0.614   9.106  0.00  0.00    -0.065 NA
BRANCH  14  16
ATOM     16  C   UNL     1       6.990  -1.770  11.218  0.00  0.00    +0.180 C 
BRANCH  16  17
ATOM     17  C   UNL     1       7.939  -0.850  11.945  0.00  0.00    -0.026 A 
ATOM     18  C   UNL     1       7.643  -0.377  13.232  0.00  0.00    +0.005 A 
ATOM     19  C   UNL     1       8.571   0.395  13.935  0.00  0.00    +0.000 A 
ATOM     20  C   UNL     1       9.803   0.701  13.362  0.00  0.00    +0.000 A 
ATOM     21  C   UNL     1      10.106   0.245  12.081  0.00  0.00    +0.000 A 
ATOM     22  C   UNL     1       9.181  -0.526  11.376  0.00  0.00    +0.005 A 
ENDBRANCH  16  17
ENDBRANCH  14  16
ENDBRANCH  10  12
ENDBRANCH   9  10
ENDBRANCH   5   9
ENDBRANCH   4   7
ENDBRANCH   1   4
BRANCH   1  23
ATOM     23  C   UNL     1       2.905   5.616   6.252  0.00  0.00    +0.175 C 
BRANCH  23  24
ATOM     24  C   UNL     1       4.131   6.297   5.626  0.00  0.00    +0.176 C 
ATOM     25  O   UNL     1       3.657   7.363   4.758  0.00  0.00    -0.332 OA
ATOM     26  C   UNL     1       4.699   8.197   4.151  0.00  0.00    +0.277 C 
ATOM     27  C   UNL     1       5.720   7.318   3.389  0.00  0.00    +0.110 C 
ATOM     28  C   UNL     1       6.230   6.151   4.261  0.00  0.00    +0.143 C 
ATOM     29  C   UNL     1       5.064   5.352   4.844  0.00  0.00    +0.133 C 
BRANCH  29  30
ATOM     30  N   UNL     1       5.560   4.297   5.743  0.00  0.00    -0.308 N 
ATOM     31  H   UNL     1       6.078   4.581   6.562  0.00  0.00    +0.149 HD
ATOM     32  C   UNL     1       5.370   2.990   5.546  0.00  0.00    +0.210 C 
ATOM     33  C   UNL     1       4.599   2.589   4.274  0.00  0.00    +0.109 C 
ATOM     34  O   UNL     1       5.784   2.130   6.323  0.00  0.00    -0.276 OA
ENDBRANCH  29  30
BRANCH  26  35
ATOM     35  C   UNL     1       5.432   9.025   5.226  0.00  0.00    +0.414 C 
ATOM     36  O   UNL     1       4.800   9.553   6.140  0.00  0.00    -0.240 OA
ATOM     37  O   UNL     1       6.655   9.165   5.180  0.00  0.00    -0.240 OA
ENDBRANCH  26  35
BRANCH  26  38
ATOM     38  O   UNL     1       4.062   9.087   3.198  0.00  0.00    -0.343 OA
ATOM     39  C   UNL     1       2.942   8.514   2.478  0.00  0.00    +0.198 C 
ENDBRANCH  26  38
BRANCH  28  40
ATOM     40  O   UNL     1       7.048   5.284   3.475  0.00  0.00    -0.390 OA
ATOM     41  H   UNL     1       6.520   4.891   2.776  0.00  0.00    +0.210 HD
ENDBRANCH  28  40
ENDBRANCH  23  24
BRANCH  23  42
ATOM     42  O   UNL     1       1.925   5.326   5.235  0.00  0.00    -0.387 OA
ATOM     43  H   UNL     1       2.346   4.862   4.508  0.00  0.00    +0.210 HD
ENDBRANCH  23  42
ENDBRANCH   1  23
TORSDOF 15
