REMARK VINA RESULT:    -6.485     13.555     18.165
REMARK INTER + INTRA:         -16.009
REMARK INTER:                 -13.894
REMARK INTRA:                  -2.115
REMARK UNBOUND:                -3.269
REMARK  Name = lig_assembled_84.pdb
REMARK  21 active torsions:
REMARK  status: ('A' for Active; 'I' for Inactive)
REMARK    1  A    between atoms: _2  and  _11
REMARK    2  A    between atoms: _3  and  _14
REMARK    3  A    between atoms: _4  and  _17
REMARK    4  A    between atoms: _6  and  _28
REMARK    5  A    between atoms: _8  and  _9
REMARK    6  A    between atoms: _8  and  _28
REMARK    7  A    between atoms: _11  and  _12
REMARK    8  A    between atoms: _12  and  _13
REMARK    9  A    between atoms: _12  and  _14
REMARK   10  A    between atoms: _24  and  _44
REMARK   11  A    between atoms: _26  and  _32
REMARK   12  A    between atoms: _27  and  _31
REMARK   13  A    between atoms: _31  and  _32
REMARK   14  A    between atoms: _34  and  _35
REMARK   15  A    between atoms: _36  and  _37
REMARK   16  A    between atoms: _38  and  _40
REMARK   17  A    between atoms: _40  and  _41
REMARK   18  A    between atoms: _40  and  _42
REMARK   19  A    between atoms: _42  and  _43
REMARK   20  A    between atoms: _42  and  _44
REMARK   21  A    between atoms: _45  and  _47
REMARK                            x       y       z     vdW  Elec       q    Type
REMARK                         _______ _______ _______ _____ _____    ______ ____
ROOT
ATOM      1  C   UNL     1      18.374   3.807  27.654  0.00  0.00    +0.401 C 
ATOM      2  O   UNL     1      18.109   3.597  28.839  0.00  0.00    -0.226 OA
ATOM      3  N   UNL     1      17.640   3.359  26.634  0.00  0.00    -0.279 N 
ATOM      4  H   UNL     1      17.934   3.592  25.696  0.00  0.00    +0.152 HD
ENDROOT
BRANCH   1   5
ATOM      5  O   UNL     1      19.533   4.579  27.328  0.00  0.00    -0.444 OA
BRANCH   5   6
ATOM      6  C   UNL     1      19.370   5.162  26.032  0.00  0.00    +0.292 C 
BRANCH   6   8
ATOM      7  N   UNL     1      20.778   7.183  25.755  0.00  0.00    -0.131 NA
ATOM      8  C   UNL     1      19.572   6.622  26.085  0.00  0.00    +0.120 A 
ATOM      9  C   UNL     1      18.704   7.618  26.472  0.00  0.00    +0.137 A 
ATOM     10  N   UNL     1      19.460   8.751  26.420  0.00  0.00    -0.251 N 
ATOM     11  N   UNL     1      20.698   8.490  25.967  0.00  0.00    -0.065 NA
BRANCH  10  12
ATOM     12  C   UNL     1      19.115  10.071  26.910  0.00  0.00    +0.149 C 
BRANCH  12  13
ATOM     13  C   UNL     1      19.554  10.344  28.359  0.00  0.00    +0.021 C 
ATOM     14  C   UNL     1      20.411  11.615  28.452  0.00  0.00    +0.010 C 
BRANCH  13  15
ATOM     15  C   UNL     1      18.331  10.498  29.296  0.00  0.00    +0.089 C 
BRANCH  15  16
ATOM     16  N   UNL     1      18.476   9.904  30.633  0.00  0.00    -0.299 NA
ATOM     17  C   UNL     1      18.316   8.428  30.553  0.00  0.00    +0.103 C 
ATOM     18  C   UNL     1      18.546   7.754  31.922  0.00  0.00    +0.120 C 
ATOM     19  N   UNL     1      17.605   8.301  32.906  0.00  0.00    -0.327 N 
ATOM     20  C   UNL     1      17.638   9.766  33.025  0.00  0.00    +0.120 C 
ATOM     21  C   UNL     1      17.495  10.421  31.620  0.00  0.00    +0.103 C 
BRANCH  19  22
ATOM     22  C   UNL     1      16.801   7.504  33.688  0.00  0.00    +0.030 A 
ATOM     23  C   UNL     1      16.475   7.866  35.008  0.00  0.00    +0.024 A 
ATOM     24  C   UNL     1      15.680   7.056  35.826  0.00  0.00    +0.022 A 
ATOM     25  C   UNL     1      15.186   5.859  35.333  0.00  0.00    +0.041 A 
ATOM     26 CL   UNL     1      14.212   4.855  36.335  0.00  0.00    -0.084 Cl
ATOM     27  C   UNL     1      15.482   5.467  34.033  0.00  0.00    +0.022 A 
ATOM     28  C   UNL     1      16.285   6.285  33.225  0.00  0.00    +0.024 A 
ENDBRANCH  19  22
ENDBRANCH  15  16
ENDBRANCH  13  15
ENDBRANCH  12  13
ENDBRANCH  10  12
ENDBRANCH   6   8
ENDBRANCH   5   6
ENDBRANCH   1   5
BRANCH   3  29
ATOM     29  C   UNL     1      16.428   2.546  26.799  0.00  0.00    +0.141 C 
BRANCH  29  30
ATOM     30  C   UNL     1      16.588   1.158  26.189  0.00  0.00    +0.163 C 
BRANCH  30  31
ATOM     31  O   UNL     1      15.696   0.233  26.833  0.00  0.00    -0.388 OA
ATOM     32  H   UNL     1      15.959  -0.666  26.621  0.00  0.00    +0.210 HD
ENDBRANCH  30  31
BRANCH  30  33
ATOM     33  C   UNL     1      16.312   1.226  24.677  0.00  0.00    +0.175 C 
BRANCH  33  34
ATOM     34  C   UNL     1      17.482   0.670  23.851  0.00  0.00    +0.176 C 
ATOM     35  O   UNL     1      17.527   1.398  22.594  0.00  0.00    -0.332 OA
ATOM     36  C   UNL     1      18.652   1.074  21.713  0.00  0.00    +0.277 C 
ATOM     37  C   UNL     1      18.702  -0.449  21.437  0.00  0.00    +0.110 C 
ATOM     38  C   UNL     1      18.625  -1.267  22.744  0.00  0.00    +0.143 C 
ATOM     39  C   UNL     1      17.419  -0.846  23.584  0.00  0.00    +0.133 C 
BRANCH  39  40
ATOM     40  N   UNL     1      17.405  -1.570  24.865  0.00  0.00    -0.308 N 
ATOM     41  H   UNL     1      18.100  -1.321  25.555  0.00  0.00    +0.149 HD
ATOM     42  C   UNL     1      16.535  -2.535  25.175  0.00  0.00    +0.210 C 
ATOM     43  C   UNL     1      15.506  -2.909  24.092  0.00  0.00    +0.109 C 
ATOM     44  O   UNL     1      16.538  -3.114  26.262  0.00  0.00    -0.276 OA
ENDBRANCH  39  40
BRANCH  36  45
ATOM     45  C   UNL     1      19.987   1.528  22.340  0.00  0.00    +0.414 C 
ATOM     46  O   UNL     1      19.991   2.186  23.380  0.00  0.00    -0.240 OA
ATOM     47  O   UNL     1      21.058   1.236  21.808  0.00  0.00    -0.240 OA
ENDBRANCH  36  45
BRANCH  36  48
ATOM     48  O   UNL     1      18.448   1.760  20.451  0.00  0.00    -0.343 OA
ATOM     49  C   UNL     1      17.074   1.794  19.988  0.00  0.00    +0.198 C 
ENDBRANCH  36  48
BRANCH  38  50
ATOM     50  O   UNL     1      18.521  -2.658  22.436  0.00  0.00    -0.390 OA
ATOM     51  H   UNL     1      19.199  -3.143  22.912  0.00  0.00    +0.210 HD
ENDBRANCH  38  50
ENDBRANCH  33  34
BRANCH  33  52
ATOM     52  O   UNL     1      16.028   2.583  24.285  0.00  0.00    -0.387 OA
ATOM     53  H   UNL     1      16.849   3.035  24.075  0.00  0.00    +0.210 HD
ENDBRANCH  33  52
ENDBRANCH  30  33
ENDBRANCH  29  30
ENDBRANCH   3  29
TORSDOF 18
