REMARK VINA RESULT:    -5.778      2.399      4.728
REMARK INTER + INTRA:         -12.412
REMARK INTER:                 -10.304
REMARK INTRA:                  -2.108
REMARK UNBOUND:                -2.413
REMARK  Name = lig_assembled_8.pdb
REMARK  16 active torsions:
REMARK  status: ('A' for Active; 'I' for Inactive)
REMARK    1  A    between atoms: _2  and  _9
REMARK    2  A    between atoms: _4  and  _18
REMARK    3  A    between atoms: _6  and  _7
REMARK    4  A    between atoms: _6  and  _18
REMARK    5  A    between atoms: _14  and  _34
REMARK    6  A    between atoms: _16  and  _22
REMARK    7  A    between atoms: _17  and  _21
REMARK    8  A    between atoms: _21  and  _22
REMARK    9  A    between atoms: _24  and  _25
REMARK   10  A    between atoms: _26  and  _27
REMARK   11  A    between atoms: _28  and  _30
REMARK   12  A    between atoms: _30  and  _31
REMARK   13  A    between atoms: _30  and  _32
REMARK   14  A    between atoms: _32  and  _33
REMARK   15  A    between atoms: _32  and  _34
REMARK   16  A    between atoms: _35  and  _37
REMARK                            x       y       z     vdW  Elec       q    Type
REMARK                         _______ _______ _______ _____ _____    ______ ____
ROOT
ATOM      1  C   UNL     1       2.640   2.223  32.781  0.00  0.00    +0.163 C 
ENDROOT
BRANCH   1   2
ATOM      2  O   UNL     1       1.852   1.023  32.849  0.00  0.00    -0.388 OA
ATOM      3  H   UNL     1       2.371   0.320  33.247  0.00  0.00    +0.210 HD
ENDBRANCH   1   2
BRANCH   1   4
ATOM      4  C   UNL     1       1.728   3.445  32.764  0.00  0.00    +0.141 C 
BRANCH   4   7
ATOM      5  C   UNL     1       0.037   4.102  31.086  0.00  0.00    +0.401 C 
ATOM      6  O   UNL     1      -0.892   4.133  31.897  0.00  0.00    -0.226 OA
ATOM      7  N   UNL     1       1.293   3.785  31.404  0.00  0.00    -0.279 N 
ATOM      8  H   UNL     1       1.984   3.778  30.667  0.00  0.00    +0.152 HD
BRANCH   5   9
ATOM      9  O   UNL     1      -0.225   4.417  29.716  0.00  0.00    -0.444 OA
BRANCH   9  10
ATOM     10  C   UNL     1      -0.140   3.228  28.927  0.00  0.00    +0.292 C 
BRANCH  10  12
ATOM     11  N   UNL     1       2.007   3.677  27.797  0.00  0.00    -0.131 NA
ATOM     12  C   UNL     1       0.666   3.474  27.717  0.00  0.00    +0.121 A 
ATOM     13  C   UNL     1       0.284   3.536  26.397  0.00  0.00    +0.143 A 
ATOM     14  N   UNL     1       1.449   3.762  25.685  0.00  0.00    -0.219 N 
ATOM     15  N   UNL     1       2.468   3.855  26.568  0.00  0.00    -0.060 NA
BRANCH  14  16
ATOM     16  C   UNL     1       1.610   3.868  24.269  0.00  0.00    +0.081 A 
ATOM     17  C   UNL     1       1.588   5.158  23.692  0.00  0.00    +0.029 A 
ATOM     18  C   UNL     1       1.716   5.347  22.313  0.00  0.00    +0.002 A 
ATOM     19  C   UNL     1       1.870   4.253  21.476  0.00  0.00    +0.001 A 
ATOM     20  C   UNL     1       1.903   2.972  22.020  0.00  0.00    +0.017 A 
ATOM     21  C   UNL     1       1.777   2.765  23.408  0.00  0.00    +0.043 A 
ATOM     22 BR   UNL     1       1.857   0.929  23.912  0.00  0.00    -0.048 Br
ENDBRANCH  14  16
ENDBRANCH  10  12
ENDBRANCH   9  10
ENDBRANCH   5   9
ENDBRANCH   4   7
ENDBRANCH   1   4
BRANCH   1  23
ATOM     23  C   UNL     1       3.529   2.227  31.526  0.00  0.00    +0.175 C 
BRANCH  23  24
ATOM     24  C   UNL     1       4.662   1.195  31.617  0.00  0.00    +0.176 C 
ATOM     25  O   UNL     1       4.065  -0.130  31.568  0.00  0.00    -0.332 OA
ATOM     26  C   UNL     1       5.010  -1.251  31.537  0.00  0.00    +0.277 C 
ATOM     27  C   UNL     1       5.993  -1.163  32.730  0.00  0.00    +0.110 C 
ATOM     28  C   UNL     1       6.629   0.238  32.842  0.00  0.00    +0.143 C 
ATOM     29  C   UNL     1       5.557   1.328  32.864  0.00  0.00    +0.133 C 
BRANCH  29  30
ATOM     30  N   UNL     1       6.177   2.662  32.883  0.00  0.00    -0.308 N 
ATOM     31  H   UNL     1       6.694   2.954  32.065  0.00  0.00    +0.149 HD
ATOM     32  C   UNL     1       6.103   3.512  33.911  0.00  0.00    +0.210 C 
ATOM     33  C   UNL     1       5.331   3.027  35.152  0.00  0.00    +0.109 C 
ATOM     34  O   UNL     1       6.621   4.629  33.893  0.00  0.00    -0.276 OA
ENDBRANCH  29  30
BRANCH  26  35
ATOM     35  C   UNL     1       5.805  -1.259  30.214  0.00  0.00    +0.414 C 
ATOM     36  O   UNL     1       7.035  -1.300  30.230  0.00  0.00    -0.240 OA
ATOM     37  O   UNL     1       5.217  -1.225  29.132  0.00  0.00    -0.240 OA
ENDBRANCH  26  35
BRANCH  28  38
ATOM     38  O   UNL     1       7.407   0.320  34.038  0.00  0.00    -0.390 OA
ATOM     39  H   UNL     1       7.772   1.204  34.123  0.00  0.00    +0.210 HD
ENDBRANCH  28  38
BRANCH  26  40
ATOM     40  O   UNL     1       4.252  -2.481  31.658  0.00  0.00    -0.343 OA
ATOM     41  C   UNL     1       4.173  -3.022  33.001  0.00  0.00    +0.198 C 
ENDBRANCH  26  40
ENDBRANCH  23  24
BRANCH  23  42
ATOM     42  O   UNL     1       4.073   3.544  31.307  0.00  0.00    -0.387 OA
ATOM     43  H   UNL     1       3.658   4.166  31.910  0.00  0.00    +0.210 HD
ENDBRANCH  23  42
ENDBRANCH   1  23
TORSDOF 14
