REMARK VINA RESULT:    -5.462      1.505      2.272
REMARK INTER + INTRA:         -12.842
REMARK INTER:                 -11.104
REMARK INTRA:                  -1.738
REMARK UNBOUND:                -2.111
REMARK  Name = lig_assembled_17.pdb
REMARK  22 active torsions:
REMARK  status: ('A' for Active; 'I' for Inactive)
REMARK    1  A    between atoms: _2  and  _10
REMARK    2  A    between atoms: _3  and  _11
REMARK    3  A    between atoms: _3  and  _12
REMARK    4  A    between atoms: _3  and  _14
REMARK    5  A    between atoms: _5  and  _19
REMARK    6  A    between atoms: _6  and  _14
REMARK    7  A    between atoms: _7  and  _8
REMARK    8  A    between atoms: _7  and  _19
REMARK    9  A    between atoms: _10  and  _11
REMARK   10  A    between atoms: _12  and  _13
REMARK   11  A    between atoms: _15  and  _35
REMARK   12  A    between atoms: _17  and  _23
REMARK   13  A    between atoms: _18  and  _22
REMARK   14  A    between atoms: _22  and  _23
REMARK   15  A    between atoms: _25  and  _26
REMARK   16  A    between atoms: _27  and  _28
REMARK   17  A    between atoms: _29  and  _31
REMARK   18  A    between atoms: _31  and  _32
REMARK   19  A    between atoms: _31  and  _33
REMARK   20  A    between atoms: _33  and  _34
REMARK   21  A    between atoms: _33  and  _35
REMARK   22  A    between atoms: _36  and  _38
REMARK                            x       y       z     vdW  Elec       q    Type
REMARK                         _______ _______ _______ _____ _____    ______ ____
ROOT
ATOM      1  C   UNL     1       4.829   3.371  32.354  0.00  0.00    +0.163 C 
ENDROOT
BRANCH   1   2
ATOM      2  O   UNL     1       4.055   4.300  33.131  0.00  0.00    -0.388 OA
ATOM      3  H   UNL     1       3.547   3.821  33.791  0.00  0.00    +0.210 HD
ENDBRANCH   1   2
BRANCH   1   4
ATOM      4  C   UNL     1       6.192   3.102  33.016  0.00  0.00    +0.175 C 
BRANCH   4   5
ATOM      5  C   UNL     1       6.347   3.854  34.346  0.00  0.00    +0.176 C 
ATOM      6  O   UNL     1       6.306   5.279  34.061  0.00  0.00    -0.332 OA
ATOM      7  C   UNL     1       6.335   6.160  35.233  0.00  0.00    +0.277 C 
ATOM      8  C   UNL     1       7.560   5.839  36.122  0.00  0.00    +0.110 C 
ATOM      9  C   UNL     1       7.664   4.329  36.426  0.00  0.00    +0.143 C 
ATOM     10  C   UNL     1       7.621   3.507  35.137  0.00  0.00    +0.133 C 
BRANCH  10  11
ATOM     11  N   UNL     1       7.633   2.068  35.444  0.00  0.00    -0.308 N 
ATOM     12  H   UNL     1       6.830   1.680  35.919  0.00  0.00    +0.149 HD
ATOM     13  C   UNL     1       8.635   1.240  35.135  0.00  0.00    +0.210 C 
ATOM     14  C   UNL     1       9.855   1.866  34.434  0.00  0.00    +0.109 C 
ATOM     15  O   UNL     1       8.610   0.036  35.391  0.00  0.00    -0.276 OA
ENDBRANCH  10  11
BRANCH   7  16
ATOM     16  C   UNL     1       5.042   6.010  36.062  0.00  0.00    +0.414 C 
ATOM     17  O   UNL     1       4.000   5.637  35.524  0.00  0.00    -0.240 OA
ATOM     18  O   UNL     1       5.041   6.261  37.268  0.00  0.00    -0.240 OA
ENDBRANCH   7  16
BRANCH   9  19
ATOM     19  O   UNL     1       8.884   4.059  37.117  0.00  0.00    -0.390 OA
ATOM     20  H   UNL     1       8.717   4.028  38.062  0.00  0.00    +0.210 HD
ENDBRANCH   9  19
BRANCH   7  21
ATOM     21  O   UNL     1       6.457   7.528  34.763  0.00  0.00    -0.343 OA
ATOM     22  C   UNL     1       7.761   8.129  34.962  0.00  0.00    +0.198 C 
ENDBRANCH   7  21
ENDBRANCH   4   5
BRANCH   4  23
ATOM     23  O   UNL     1       7.259   3.460  32.116  0.00  0.00    -0.387 OA
ATOM     24  H   UNL     1       8.093   3.130  32.460  0.00  0.00    +0.210 HD
ENDBRANCH   4  23
ENDBRANCH   1   4
BRANCH   1  25
ATOM     25  C   UNL     1       4.069   2.058  32.201  0.00  0.00    +0.141 C 
BRANCH  25  28
ATOM     26  C   UNL     1       3.126   0.892  30.238  0.00  0.00    +0.401 C 
ATOM     27  O   UNL     1       3.579  -0.210  30.556  0.00  0.00    -0.226 OA
ATOM     28  N   UNL     1       3.311   2.007  30.945  0.00  0.00    -0.279 N 
ATOM     29  H   UNL     1       2.908   2.865  30.596  0.00  0.00    +0.152 HD
BRANCH  26  30
ATOM     30  O   UNL     1       2.355   1.005  29.038  0.00  0.00    -0.444 OA
BRANCH  30  31
ATOM     31  C   UNL     1       1.214   1.832  29.280  0.00  0.00    +0.292 C 
BRANCH  31  33
ATOM     32  N   UNL     1       2.077   3.253  27.450  0.00  0.00    -0.131 NA
ATOM     33  C   UNL     1       1.010   2.760  28.153  0.00  0.00    +0.120 A 
ATOM     34  C   UNL     1      -0.155   3.263  27.616  0.00  0.00    +0.137 A 
ATOM     35  N   UNL     1       0.273   4.036  26.580  0.00  0.00    -0.250 N 
ATOM     36  N   UNL     1       1.614   4.038  26.489  0.00  0.00    -0.065 NA
BRANCH  35  37
ATOM     37  C   UNL     1      -0.519   4.764  25.610  0.00  0.00    +0.160 C 
BRANCH  37  38
ATOM     38  C   UNL     1      -0.233   4.258  24.189  0.00  0.00    +0.107 C 
BRANCH  38  39
ATOM     39  N   UNL     1       0.095   5.297  23.182  0.00  0.00    -0.301 NA
BRANCH  39  40
ATOM     40  C   UNL     1       1.509   5.282  22.767  0.00  0.00    +0.081 C 
ATOM     41  C   UNL     1       1.874   4.334  21.629  0.00  0.00    +0.020 C 
ENDBRANCH  39  40
BRANCH  39  42
ATOM     42  C   UNL     1      -0.849   5.178  22.051  0.00  0.00    +0.081 C 
ATOM     43  C   UNL     1      -2.288   4.860  22.447  0.00  0.00    +0.020 C 
ENDBRANCH  39  42
ENDBRANCH  38  39
ENDBRANCH  37  38
ENDBRANCH  35  37
ENDBRANCH  31  33
ENDBRANCH  30  31
ENDBRANCH  26  30
ENDBRANCH  25  28
ENDBRANCH   1  25
TORSDOF 18
