REMARK VINA RESULT:    -6.603      2.005      4.926
REMARK INTER + INTRA:         -14.516
REMARK INTER:                 -12.186
REMARK INTRA:                  -2.330
REMARK UNBOUND:                -3.089
REMARK  Name = lig_assembled_91.pdb
REMARK  16 active torsions:
REMARK  status: ('A' for Active; 'I' for Inactive)
REMARK    1  A    between atoms: _2  and  _10
REMARK    2  A    between atoms: _5  and  _26
REMARK    3  A    between atoms: _7  and  _8
REMARK    4  A    between atoms: _7  and  _26
REMARK    5  A    between atoms: _22  and  _42
REMARK    6  A    between atoms: _24  and  _30
REMARK    7  A    between atoms: _25  and  _29
REMARK    8  A    between atoms: _29  and  _30
REMARK    9  A    between atoms: _32  and  _33
REMARK   10  A    between atoms: _34  and  _35
REMARK   11  A    between atoms: _36  and  _38
REMARK   12  A    between atoms: _38  and  _39
REMARK   13  A    between atoms: _38  and  _40
REMARK   14  A    between atoms: _40  and  _41
REMARK   15  A    between atoms: _40  and  _42
REMARK   16  A    between atoms: _43  and  _45
REMARK                            x       y       z     vdW  Elec       q    Type
REMARK                         _______ _______ _______ _____ _____    ______ ____
ROOT
ATOM      1  C   UNL     1      -0.451   4.369  32.031  0.00  0.00    +0.401 C 
ATOM      2  O   UNL     1      -1.398   4.400  32.820  0.00  0.00    -0.226 OA
ATOM      3  N   UNL     1       0.744   3.851  32.320  0.00  0.00    -0.279 N 
ATOM      4  H   UNL     1       1.455   3.863  31.603  0.00  0.00    +0.152 HD
ENDROOT
BRANCH   3   5
ATOM      5  C   UNL     1       1.083   3.265  33.622  0.00  0.00    +0.141 C 
BRANCH   5   6
ATOM      6  C   UNL     1       2.485   2.665  33.628  0.00  0.00    +0.163 C 
BRANCH   6   7
ATOM      7  O   UNL     1       2.749   2.021  32.370  0.00  0.00    -0.388 OA
ATOM      8  H   UNL     1       3.015   1.112  32.525  0.00  0.00    +0.210 HD
ENDBRANCH   6   7
BRANCH   6   9
ATOM      9  C   UNL     1       3.517   3.771  33.907  0.00  0.00    +0.175 C 
BRANCH   9  10
ATOM     10  C   UNL     1       4.960   3.255  33.807  0.00  0.00    +0.176 C 
ATOM     11  O   UNL     1       4.983   1.893  34.316  0.00  0.00    -0.332 OA
ATOM     12  C   UNL     1       6.267   1.195  34.202  0.00  0.00    +0.277 C 
ATOM     13  C   UNL     1       7.394   2.023  34.868  0.00  0.00    +0.110 C 
ATOM     14  C   UNL     1       7.389   3.487  34.382  0.00  0.00    +0.143 C 
ATOM     15  C   UNL     1       6.004   4.114  34.544  0.00  0.00    +0.133 C 
BRANCH  15  16
ATOM     16  N   UNL     1       5.990   5.480  33.997  0.00  0.00    -0.308 N 
ATOM     17  H   UNL     1       6.033   5.587  32.993  0.00  0.00    +0.149 HD
ATOM     18  C   UNL     1       5.923   6.588  34.741  0.00  0.00    +0.210 C 
ATOM     19  C   UNL     1       5.884   6.392  36.268  0.00  0.00    +0.109 C 
ATOM     20  O   UNL     1       5.898   7.719  34.254  0.00  0.00    -0.276 OA
ENDBRANCH  15  16
BRANCH  12  21
ATOM     21  C   UNL     1       6.621   0.941  32.722  0.00  0.00    +0.414 C 
ATOM     22  O   UNL     1       7.713   0.461  32.419  0.00  0.00    -0.240 OA
ATOM     23  O   UNL     1       5.816   1.215  31.831  0.00  0.00    -0.240 OA
ENDBRANCH  12  21
BRANCH  14  24
ATOM     24  O   UNL     1       8.340   4.246  35.129  0.00  0.00    -0.390 OA
ATOM     25  H   UNL     1       8.287   4.003  36.057  0.00  0.00    +0.210 HD
ENDBRANCH  14  24
BRANCH  12  26
ATOM     26  O   UNL     1       6.154  -0.071  34.901  0.00  0.00    -0.343 OA
ATOM     27  C   UNL     1       7.171  -0.306  35.908  0.00  0.00    +0.198 C 
ENDBRANCH  12  26
ENDBRANCH   9  10
BRANCH   9  28
ATOM     28  O   UNL     1       3.285   4.350  35.207  0.00  0.00    -0.387 OA
ATOM     29  H   UNL     1       2.809   3.723  35.756  0.00  0.00    +0.210 HD
ENDBRANCH   9  28
ENDBRANCH   6   9
ENDBRANCH   5   6
ENDBRANCH   3   5
BRANCH   1  30
ATOM     30  O   UNL     1      -0.621   4.912  30.719  0.00  0.00    -0.444 OA
BRANCH  30  31
ATOM     31  C   UNL     1      -1.073   3.885  29.832  0.00  0.00    +0.292 C 
BRANCH  31  33
ATOM     32  N   UNL     1       1.272   3.914  29.061  0.00  0.00    -0.131 NA
ATOM     33  C   UNL     1      -0.021   3.544  28.854  0.00  0.00    +0.121 A 
ATOM     34  C   UNL     1      -0.100   2.844  27.672  0.00  0.00    +0.143 A 
ATOM     35  N   UNL     1       1.180   2.848  27.154  0.00  0.00    -0.218 N 
ATOM     36  N   UNL     1       1.991   3.488  28.034  0.00  0.00    -0.060 NA
BRANCH  35  37
ATOM     37  C   UNL     1       1.666   2.311  25.922  0.00  0.00    +0.085 A 
ATOM     38  C   UNL     1       2.205   0.975  25.876  0.00  0.00    +0.026 A 
ATOM     39  C   UNL     1       2.679   0.554  24.618  0.00  0.00    +0.074 A 
ATOM     40  C   UNL     1       3.222  -0.711  24.450  0.00  0.00    +0.028 A 
ATOM     41  C   UNL     1       3.321  -1.621  25.496  0.00  0.00    +0.002 A 
ATOM     42  C   UNL     1       2.838  -1.264  26.739  0.00  0.00    +0.001 A 
ATOM     43  N   UNL     1       2.625   1.300  23.517  0.00  0.00    -0.247 NA
ATOM     44  C   UNL     1       2.100   2.523  23.558  0.00  0.00    +0.074 A 
ATOM     45  C   UNL     1       2.097   3.216  22.351  0.00  0.00    +0.028 A 
ATOM     46  C   UNL     1       1.615   4.516  22.242  0.00  0.00    +0.002 A 
ATOM     47  C   UNL     1       1.134   5.148  23.370  0.00  0.00    +0.001 A 
ATOM     48  C   UNL     1       1.136   4.468  24.593  0.00  0.00    +0.012 A 
ATOM     49  C   UNL     1       2.270   0.001  26.922  0.00  0.00    +0.012 A 
ATOM     50  C   UNL     1       1.601   3.120  24.727  0.00  0.00    +0.026 A 
ENDBRANCH  35  37
ENDBRANCH  31  33
ENDBRANCH  30  31
ENDBRANCH   1  30
TORSDOF 14
