REMARK VINA RESULT:    -5.953      9.038     14.167
REMARK INTER + INTRA:         -13.989
REMARK INTER:                 -11.346
REMARK INTRA:                  -2.643
REMARK UNBOUND:                -2.643
REMARK  Name = lig_assembled_21.pdb
REMARK  20 active torsions:
REMARK  status: ('A' for Active; 'I' for Inactive)
REMARK    1  A    between atoms: _2  and  _9
REMARK    2  A    between atoms: _4  and  _23
REMARK    3  A    between atoms: _6  and  _7
REMARK    4  A    between atoms: _6  and  _23
REMARK    5  A    between atoms: _9  and  _10
REMARK    6  A    between atoms: _11  and  _18
REMARK    7  A    between atoms: _12  and  _13
REMARK    8  A    between atoms: _12  and  _18
REMARK    9  A    between atoms: _19  and  _39
REMARK   10  A    between atoms: _21  and  _27
REMARK   11  A    between atoms: _22  and  _26
REMARK   12  A    between atoms: _26  and  _27
REMARK   13  A    between atoms: _29  and  _30
REMARK   14  A    between atoms: _31  and  _32
REMARK   15  A    between atoms: _33  and  _35
REMARK   16  A    between atoms: _35  and  _36
REMARK   17  A    between atoms: _35  and  _37
REMARK   18  A    between atoms: _37  and  _38
REMARK   19  A    between atoms: _37  and  _39
REMARK   20  A    between atoms: _40  and  _42
REMARK                            x       y       z     vdW  Elec       q    Type
REMARK                         _______ _______ _______ _____ _____    ______ ____
ROOT
ATOM      1  C   UNL     1       9.556   4.927  38.183  0.00  0.00    +0.163 C 
ENDROOT
BRANCH   1   2
ATOM      2  O   UNL     1       9.385   6.270  37.702  0.00  0.00    -0.388 OA
ATOM      3  H   UNL     1       8.922   6.791  38.364  0.00  0.00    +0.210 HD
ENDBRANCH   1   2
BRANCH   1   4
ATOM      4  C   UNL     1       8.838   3.920  37.268  0.00  0.00    +0.175 C 
BRANCH   4   5
ATOM      5  C   UNL     1       8.275   4.587  36.004  0.00  0.00    +0.176 C 
ATOM      6  O   UNL     1       6.956   5.110  36.324  0.00  0.00    -0.332 OA
ATOM      7  C   UNL     1       6.304   5.879  35.260  0.00  0.00    +0.277 C 
ATOM      8  C   UNL     1       6.234   5.047  33.956  0.00  0.00    +0.110 C 
ATOM      9  C   UNL     1       7.607   4.444  33.592  0.00  0.00    +0.143 C 
ATOM     10  C   UNL     1       8.196   3.668  34.771  0.00  0.00    +0.133 C 
BRANCH  10  11
ATOM     11  N   UNL     1       9.542   3.172  34.441  0.00  0.00    -0.308 N 
ATOM     12  H   UNL     1      10.219   3.839  34.098  0.00  0.00    +0.149 HD
ATOM     13  C   UNL     1       9.926   1.899  34.565  0.00  0.00    +0.210 C 
ATOM     14  C   UNL     1       8.862   0.903  35.065  0.00  0.00    +0.109 C 
ATOM     15  O   UNL     1      11.064   1.515  34.295  0.00  0.00    -0.276 OA
ENDBRANCH  10  11
BRANCH   7  16
ATOM     16  C   UNL     1       7.062   7.195  34.992  0.00  0.00    +0.414 C 
ATOM     17  O   UNL     1       7.469   7.879  35.931  0.00  0.00    -0.240 OA
ATOM     18  O   UNL     1       7.268   7.573  33.838  0.00  0.00    -0.240 OA
ENDBRANCH   7  16
BRANCH   9  19
ATOM     19  O   UNL     1       7.467   3.566  32.474  0.00  0.00    -0.390 OA
ATOM     20  H   UNL     1       6.688   3.017  32.594  0.00  0.00    +0.210 HD
ENDBRANCH   9  19
BRANCH   7  21
ATOM     21  O   UNL     1       4.949   6.174  35.686  0.00  0.00    -0.343 OA
ATOM     22  C   UNL     1       4.657   5.849  37.069  0.00  0.00    +0.198 C 
ENDBRANCH   7  21
ENDBRANCH   4   5
BRANCH   4  23
ATOM     23  O   UNL     1       7.783   3.257  37.991  0.00  0.00    -0.387 OA
ATOM     24  H   UNL     1       7.184   2.835  37.370  0.00  0.00    +0.210 HD
ENDBRANCH   4  23
ENDBRANCH   1   4
BRANCH   1  25
ATOM     25  C   UNL     1      11.040   4.583  38.253  0.00  0.00    +0.141 C 
BRANCH  25  28
ATOM     26  C   UNL     1      12.568   3.754  36.496  0.00  0.00    +0.401 C 
ATOM     27  O   UNL     1      12.952   2.786  37.155  0.00  0.00    -0.226 OA
ATOM     28  N   UNL     1      11.681   4.649  36.933  0.00  0.00    -0.279 N 
ATOM     29  H   UNL     1      11.435   5.415  36.322  0.00  0.00    +0.152 HD
BRANCH  26  30
ATOM     30  O   UNL     1      13.095   3.953  35.181  0.00  0.00    -0.444 OA
BRANCH  30  31
ATOM     31  C   UNL     1      14.518   3.817  35.211  0.00  0.00    +0.292 C 
BRANCH  31  33
ATOM     32  N   UNL     1      14.494   6.287  35.130  0.00  0.00    -0.131 NA
ATOM     33  C   UNL     1      15.160   5.111  34.919  0.00  0.00    +0.120 A 
ATOM     34  C   UNL     1      16.429   5.390  34.461  0.00  0.00    +0.137 A 
ATOM     35  N   UNL     1      16.504   6.756  34.502  0.00  0.00    -0.247 N 
ATOM     36  N   UNL     1      15.323   7.286  34.870  0.00  0.00    -0.065 NA
BRANCH  35  37
ATOM     37  C   UNL     1      17.704   7.555  34.276  0.00  0.00    +0.184 C 
BRANCH  37  38
ATOM     38  C   UNL     1      18.072   7.789  32.830  0.00  0.00    +0.016 A 
ATOM     39  C   UNL     1      17.483   8.815  32.070  0.00  0.00    +0.137 A 
ATOM     40  C   UNL     1      17.840   9.018  30.736  0.00  0.00    +0.047 A 
ATOM     41  C   UNL     1      18.808   8.203  30.148  0.00  0.00    +0.004 A 
ATOM     42  C   UNL     1      19.393   7.172  30.881  0.00  0.00    +0.001 A 
ATOM     43  C   UNL     1      19.030   6.968  32.213  0.00  0.00    +0.009 A 
BRANCH  39  44
ATOM     44  O   UNL     1      16.460   9.567  32.695  0.00  0.00    -0.426 OA
BRANCH  44  45
ATOM     45  C   UNL     1      16.362  10.954  32.568  0.00  0.00    +0.309 C 
ATOM     46  O   UNL     1      15.526  11.582  31.934  0.00  0.00    -0.251 OA
ATOM     47  C   UNL     1      17.424  11.595  33.413  0.00  0.00    +0.136 C 
ENDBRANCH  44  45
ENDBRANCH  39  44
ENDBRANCH  37  38
ENDBRANCH  35  37
ENDBRANCH  31  33
ENDBRANCH  30  31
ENDBRANCH  26  30
ENDBRANCH  25  28
ENDBRANCH   1  25
TORSDOF 17
