REMARK VINA RESULT:    -6.431      1.709      2.450
REMARK INTER + INTRA:         -16.332
REMARK INTER:                 -13.759
REMARK INTRA:                  -2.573
REMARK UNBOUND:                -3.133
REMARK  Name = lig_assembled_90.pdb
REMARK  22 active torsions:
REMARK  status: ('A' for Active; 'I' for Inactive)
REMARK    1  A    between atoms: _2  and  _13
REMARK    2  A    between atoms: _3  and  _15
REMARK    3  A    between atoms: _4  and  _17
REMARK    4  A    between atoms: _8  and  _28
REMARK    5  A    between atoms: _10  and  _11
REMARK    6  A    between atoms: _10  and  _28
REMARK    7  A    between atoms: _13  and  _14
REMARK    8  A    between atoms: _15  and  _16
REMARK    9  A    between atoms: _16  and  _17
REMARK   10  A    between atoms: _16  and  _22
REMARK   11  A    between atoms: _24  and  _44
REMARK   12  A    between atoms: _26  and  _32
REMARK   13  A    between atoms: _27  and  _31
REMARK   14  A    between atoms: _31  and  _32
REMARK   15  A    between atoms: _34  and  _35
REMARK   16  A    between atoms: _36  and  _37
REMARK   17  A    between atoms: _38  and  _40
REMARK   18  A    between atoms: _40  and  _41
REMARK   19  A    between atoms: _40  and  _42
REMARK   20  A    between atoms: _42  and  _43
REMARK   21  A    between atoms: _42  and  _44
REMARK   22  A    between atoms: _45  and  _47
REMARK                            x       y       z     vdW  Elec       q    Type
REMARK                         _______ _______ _______ _____ _____    ______ ____
ROOT
ATOM      1  C   UNL     1      18.998   3.114  27.025  0.00  0.00    +0.401 C 
ATOM      2  O   UNL     1      19.200   2.417  28.021  0.00  0.00    -0.226 OA
ATOM      3  N   UNL     1      17.821   3.206  26.404  0.00  0.00    -0.279 N 
ATOM      4  H   UNL     1      17.752   3.813  25.599  0.00  0.00    +0.152 HD
ENDROOT
BRANCH   3   5
ATOM      5  C   UNL     1      16.620   2.473  26.824  0.00  0.00    +0.141 C 
BRANCH   5   6
ATOM      6  C   UNL     1      16.567   1.074  26.220  0.00  0.00    +0.163 C 
BRANCH   6   7
ATOM      7  O   UNL     1      15.535   0.303  26.857  0.00  0.00    -0.388 OA
ATOM      8  H   UNL     1      15.922  -0.478  27.261  0.00  0.00    +0.210 HD
ENDBRANCH   6   7
BRANCH   6   9
ATOM      9  C   UNL     1      16.320   1.178  24.705  0.00  0.00    +0.175 C 
BRANCH   9  10
ATOM     10  C   UNL     1      17.501   0.630  23.889  0.00  0.00    +0.176 C 
ATOM     11  O   UNL     1      17.538   1.344  22.622  0.00  0.00    -0.332 OA
ATOM     12  C   UNL     1      18.671   1.026  21.748  0.00  0.00    +0.277 C 
ATOM     13  C   UNL     1      18.745  -0.500  21.492  0.00  0.00    +0.110 C 
ATOM     14  C   UNL     1      18.678  -1.302  22.809  0.00  0.00    +0.143 C 
ATOM     15  C   UNL     1      17.463  -0.889  23.641  0.00  0.00    +0.133 C 
BRANCH  15  16
ATOM     16  N   UNL     1      17.457  -1.598  24.931  0.00  0.00    -0.308 N 
ATOM     17  H   UNL     1      18.164  -1.348  25.609  0.00  0.00    +0.149 HD
ATOM     18  C   UNL     1      16.580  -2.548  25.264  0.00  0.00    +0.210 C 
ATOM     19  C   UNL     1      15.533  -2.924  24.198  0.00  0.00    +0.109 C 
ATOM     20  O   UNL     1      16.590  -3.114  26.357  0.00  0.00    -0.276 OA
ENDBRANCH  15  16
BRANCH  12  21
ATOM     21  C   UNL     1      19.996   1.509  22.374  0.00  0.00    +0.414 C 
ATOM     22  O   UNL     1      21.067   1.272  21.817  0.00  0.00    -0.240 OA
ATOM     23  O   UNL     1      19.994   2.135  23.434  0.00  0.00    -0.240 OA
ENDBRANCH  12  21
BRANCH  14  24
ATOM     24  O   UNL     1      18.597  -2.698  22.519  0.00  0.00    -0.390 OA
ATOM     25  H   UNL     1      19.310  -2.944  21.925  0.00  0.00    +0.210 HD
ENDBRANCH  14  24
BRANCH  12  26
ATOM     26  O   UNL     1      18.459   1.693  20.478  0.00  0.00    -0.343 OA
ATOM     27  C   UNL     1      17.076   1.762  20.046  0.00  0.00    +0.198 C 
ENDBRANCH  12  26
ENDBRANCH   9  10
BRANCH   9  28
ATOM     28  O   UNL     1      16.055   2.546  24.338  0.00  0.00    -0.387 OA
ATOM     29  H   UNL     1      16.885   3.012  24.217  0.00  0.00    +0.210 HD
ENDBRANCH   9  28
ENDBRANCH   6   9
ENDBRANCH   5   6
ENDBRANCH   3   5
BRANCH   1  30
ATOM     30  O   UNL     1      20.076   3.885  26.487  0.00  0.00    -0.444 OA
BRANCH  30  31
ATOM     31  C   UNL     1      20.576   4.772  27.490  0.00  0.00    +0.292 C 
BRANCH  31  33
ATOM     32  N   UNL     1      18.991   6.646  27.131  0.00  0.00    -0.131 NA
ATOM     33  C   UNL     1      20.278   6.173  27.135  0.00  0.00    +0.120 A 
ATOM     34  C   UNL     1      21.130   7.191  26.770  0.00  0.00    +0.137 A 
ATOM     35  N   UNL     1      20.307   8.259  26.579  0.00  0.00    -0.242 N 
ATOM     36  N   UNL     1      19.019   7.925  26.778  0.00  0.00    -0.065 NA
BRANCH  35  37
ATOM     37  C   UNL     1      20.650   9.580  26.110  0.00  0.00    +0.240 C 
BRANCH  37  38
ATOM     38  C   UNL     1      20.022  10.650  26.972  0.00  0.00    +0.235 C 
ATOM     39  O   UNL     1      19.395  11.598  26.500  0.00  0.00    -0.274 OA
ATOM     40  N   UNL     1      20.151  10.461  28.335  0.00  0.00    -0.311 N 
ATOM     41  H   UNL     1      20.886   9.844  28.673  0.00  0.00    +0.149 HD
BRANCH  40  42
ATOM     42  C   UNL     1      19.663  11.466  29.270  0.00  0.00    +0.137 C 
BRANCH  42  43
ATOM     43  C   UNL     1      19.240  10.826  30.601  0.00  0.00    +0.151 C 
BRANCH  43  44
ATOM     44  O   UNL     1      19.146  11.856  31.594  0.00  0.00    -0.388 OA
ATOM     45  H   UNL     1      18.432  12.476  31.340  0.00  0.00    +0.210 HD
ENDBRANCH  43  44
BRANCH  43  46
ATOM     46  C   UNL     1      17.920  10.058  30.467  0.00  0.00    +0.162 C 
BRANCH  46  47
ATOM     47  N   UNL     1      17.960   8.763  31.132  0.00  0.00    -0.269 N 
ATOM     48  C   UNL     1      18.858   7.774  30.795  0.00  0.00    +0.113 A 
ATOM     49  C   UNL     1      18.555   6.704  31.603  0.00  0.00    +0.137 A 
ATOM     50  N   UNL     1      17.498   7.002  32.424  0.00  0.00    -0.172 NA
ATOM     51  C   UNL     1      17.167   8.249  32.129  0.00  0.00    +0.450 A 
ATOM     52  N   UNL     1      16.089   8.939  32.795  0.00  0.00    +0.120 N 
ATOM     53  O   UNL     1      15.923  10.138  32.530  0.00  0.00    +0.045 OA
ATOM     54  O   UNL     1      15.395   8.282  33.580  0.00  0.00    -0.573 OA
ENDBRANCH  46  47
ENDBRANCH  43  46
ENDBRANCH  42  43
ENDBRANCH  40  42
ENDBRANCH  37  38
ENDBRANCH  35  37
ENDBRANCH  31  33
ENDBRANCH  30  31
ENDBRANCH   1  30
TORSDOF 20
