REMARK VINA RESULT:    -7.143     11.848     19.546
REMARK INTER + INTRA:         -13.565
REMARK INTER:                 -11.705
REMARK INTRA:                  -1.860
REMARK UNBOUND:                -1.202
REMARK  Name = lig_assembled_40.pdb
REMARK  17 active torsions:
REMARK  status: ('A' for Active; 'I' for Inactive)
REMARK    1  A    between atoms: _2  and  _9
REMARK    2  A    between atoms: _4  and  _19
REMARK    3  A    between atoms: _6  and  _7
REMARK    4  A    between atoms: _6  and  _19
REMARK    5  A    between atoms: _12  and  _13
REMARK    6  A    between atoms: _15  and  _35
REMARK    7  A    between atoms: _17  and  _23
REMARK    8  A    between atoms: _18  and  _22
REMARK    9  A    between atoms: _22  and  _23
REMARK   10  A    between atoms: _25  and  _26
REMARK   11  A    between atoms: _27  and  _28
REMARK   12  A    between atoms: _29  and  _31
REMARK   13  A    between atoms: _31  and  _32
REMARK   14  A    between atoms: _31  and  _33
REMARK   15  A    between atoms: _33  and  _34
REMARK   16  A    between atoms: _33  and  _35
REMARK   17  A    between atoms: _36  and  _38
REMARK                            x       y       z     vdW  Elec       q    Type
REMARK                         _______ _______ _______ _____ _____    ______ ____
ROOT
ATOM      1  C   UNL     1      -3.485   8.092  13.812  0.00  0.00    +0.163 C 
ENDROOT
BRANCH   1   2
ATOM      2  O   UNL     1      -4.557   8.042  14.768  0.00  0.00    -0.388 OA
ATOM      3  H   UNL     1      -5.213   7.402  14.481  0.00  0.00    +0.210 HD
ENDBRANCH   1   2
BRANCH   1   4
ATOM      4  C   UNL     1      -2.613   6.848  13.941  0.00  0.00    +0.141 C 
BRANCH   4   7
ATOM      5  C   UNL     1      -1.398   6.555  16.072  0.00  0.00    +0.401 C 
ATOM      6  O   UNL     1      -0.360   7.077  15.661  0.00  0.00    -0.226 OA
ATOM      7  N   UNL     1      -2.498   6.401  15.335  0.00  0.00    -0.279 N 
ATOM      8  H   UNL     1      -3.298   5.952  15.758  0.00  0.00    +0.152 HD
BRANCH   5   9
ATOM      9  O   UNL     1      -1.448   6.075  17.418  0.00  0.00    -0.444 OA
BRANCH   9  10
ATOM     10  C   UNL     1      -1.193   4.667  17.433  0.00  0.00    +0.292 C 
BRANCH  10  12
ATOM     11  N   UNL     1       1.077   3.983  18.140  0.00  0.00    -0.131 NA
ATOM     12  C   UNL     1      -0.199   4.335  18.470  0.00  0.00    +0.121 A 
ATOM     13  C   UNL     1      -0.328   4.327  19.838  0.00  0.00    +0.143 A 
ATOM     14  N   UNL     1       0.920   3.990  20.313  0.00  0.00    -0.220 N 
ATOM     15  N   UNL     1       1.749   3.766  19.263  0.00  0.00    -0.060 NA
BRANCH  14  16
ATOM     16  C   UNL     1       1.363   3.913  21.659  0.00  0.00    +0.067 A 
ATOM     17  C   UNL     1       1.698   2.682  22.234  0.00  0.00    +0.028 A 
ATOM     18  C   UNL     1       2.066   2.612  23.581  0.00  0.00    +0.005 A 
ATOM     19  C   UNL     1       2.104   3.767  24.369  0.00  0.00    -0.050 A 
ATOM     20  C   UNL     1       1.804   5.002  23.783  0.00  0.00    +0.005 A 
ATOM     21  C   UNL     1       2.453   3.691  25.826  0.00  0.00    +0.044 C 
ATOM     22  C   UNL     1       1.436   5.079  22.436  0.00  0.00    +0.028 A 
ENDBRANCH  14  16
ENDBRANCH  10  12
ENDBRANCH   9  10
ENDBRANCH   5   9
ENDBRANCH   4   7
ENDBRANCH   1   4
BRANCH   1  23
ATOM     23  C   UNL     1      -2.622   9.348  14.020  0.00  0.00    +0.175 C 
BRANCH  23  24
ATOM     24  C   UNL     1      -3.043  10.498  13.093  0.00  0.00    +0.176 C 
ATOM     25  O   UNL     1      -1.845  11.018  12.453  0.00  0.00    -0.332 OA
ATOM     26  C   UNL     1      -2.066  12.061  11.446  0.00  0.00    +0.277 C 
ATOM     27  C   UNL     1      -2.887  13.228  12.046  0.00  0.00    +0.110 C 
ATOM     28  C   UNL     1      -4.155  12.721  12.765  0.00  0.00    +0.143 C 
ATOM     29  C   UNL     1      -3.810  11.638  13.788  0.00  0.00    +0.133 C 
BRANCH  29  30
ATOM     30  N   UNL     1      -5.034  11.102  14.404  0.00  0.00    -0.308 N 
ATOM     31  H   UNL     1      -5.645  10.541  13.828  0.00  0.00    +0.149 HD
ATOM     32  C   UNL     1      -5.391  11.310  15.675  0.00  0.00    +0.210 C 
ATOM     33  C   UNL     1      -4.451  12.191  16.519  0.00  0.00    +0.109 C 
ATOM     34  O   UNL     1      -6.415  10.836  16.168  0.00  0.00    -0.276 OA
ENDBRANCH  29  30
BRANCH  26  35
ATOM     35  C   UNL     1      -2.805  11.488  10.219  0.00  0.00    +0.414 C 
ATOM     36  O   UNL     1      -3.636  12.170   9.621  0.00  0.00    -0.240 OA
ATOM     37  O   UNL     1      -2.571  10.344   9.827  0.00  0.00    -0.240 OA
ENDBRANCH  26  35
BRANCH  28  38
ATOM     38  O   UNL     1      -4.799  13.809  13.431  0.00  0.00    -0.390 OA
ATOM     39  H   UNL     1      -5.667  13.531  13.734  0.00  0.00    +0.210 HD
ENDBRANCH  28  38
BRANCH  26  40
ATOM     40  O   UNL     1      -0.771  12.574  11.040  0.00  0.00    -0.343 OA
ATOM     41  C   UNL     1      -0.763  13.968  10.642  0.00  0.00    +0.198 C 
ENDBRANCH  26  40
ENDBRANCH  23  24
BRANCH  23  42
ATOM     42  O   UNL     1      -1.230   9.033  13.818  0.00  0.00    -0.387 OA
ATOM     43  H   UNL     1      -1.153   8.173  13.399  0.00  0.00    +0.210 HD
ENDBRANCH  23  42
ENDBRANCH   1  23
TORSDOF 14
