REMARK VINA RESULT:    -6.111      2.661      4.367
REMARK INTER + INTRA:         -15.275
REMARK INTER:                 -12.611
REMARK INTRA:                  -2.664
REMARK UNBOUND:                -3.269
REMARK  Name = lig_assembled_84.pdb
REMARK  21 active torsions:
REMARK  status: ('A' for Active; 'I' for Inactive)
REMARK    1  A    between atoms: _2  and  _11
REMARK    2  A    between atoms: _3  and  _14
REMARK    3  A    between atoms: _4  and  _17
REMARK    4  A    between atoms: _6  and  _28
REMARK    5  A    between atoms: _8  and  _9
REMARK    6  A    between atoms: _8  and  _28
REMARK    7  A    between atoms: _11  and  _12
REMARK    8  A    between atoms: _12  and  _13
REMARK    9  A    between atoms: _12  and  _14
REMARK   10  A    between atoms: _24  and  _44
REMARK   11  A    between atoms: _26  and  _32
REMARK   12  A    between atoms: _27  and  _31
REMARK   13  A    between atoms: _31  and  _32
REMARK   14  A    between atoms: _34  and  _35
REMARK   15  A    between atoms: _36  and  _37
REMARK   16  A    between atoms: _38  and  _40
REMARK   17  A    between atoms: _40  and  _41
REMARK   18  A    between atoms: _40  and  _42
REMARK   19  A    between atoms: _42  and  _43
REMARK   20  A    between atoms: _42  and  _44
REMARK   21  A    between atoms: _45  and  _47
REMARK                            x       y       z     vdW  Elec       q    Type
REMARK                         _______ _______ _______ _____ _____    ______ ____
ROOT
ATOM      1  C   UNL     1       0.988   1.669  36.246  0.00  0.00    +0.401 C 
ATOM      2  O   UNL     1       1.499   0.548  36.181  0.00  0.00    -0.226 OA
ATOM      3  N   UNL     1       1.548   2.708  36.866  0.00  0.00    -0.279 N 
ATOM      4  H   UNL     1       1.056   3.591  36.857  0.00  0.00    +0.152 HD
ENDROOT
BRANCH   1   5
ATOM      5  O   UNL     1      -0.279   1.892  35.622  0.00  0.00    -0.444 OA
BRANCH   5   6
ATOM      6  C   UNL     1      -0.409   3.276  35.285  0.00  0.00    +0.292 C 
BRANCH   6   8
ATOM      7  N   UNL     1       1.331   3.733  33.579  0.00  0.00    -0.131 NA
ATOM      8  C   UNL     1       0.014   3.517  33.893  0.00  0.00    +0.120 A 
ATOM      9  C   UNL     1      -0.742   3.606  32.745  0.00  0.00    +0.137 A 
ATOM     10  N   UNL     1       0.162   3.944  31.782  0.00  0.00    -0.251 N 
ATOM     11  N   UNL     1       1.409   3.996  32.281  0.00  0.00    -0.065 NA
BRANCH  10  12
ATOM     12  C   UNL     1      -0.107   4.359  30.419  0.00  0.00    +0.149 C 
BRANCH  12  13
ATOM     13  C   UNL     1       0.373   3.366  29.348  0.00  0.00    +0.021 C 
ATOM     14  C   UNL     1       0.123   1.914  29.782  0.00  0.00    +0.010 C 
BRANCH  13  15
ATOM     15  C   UNL     1      -0.340   3.611  27.995  0.00  0.00    +0.089 C 
BRANCH  15  16
ATOM     16  N   UNL     1       0.526   4.042  26.889  0.00  0.00    -0.299 NA
ATOM     17  C   UNL     1      -0.301   4.432  25.717  0.00  0.00    +0.103 C 
ATOM     18  C   UNL     1       0.565   4.974  24.561  0.00  0.00    +0.120 C 
ATOM     19  N   UNL     1       1.544   3.957  24.159  0.00  0.00    -0.327 N 
ATOM     20  C   UNL     1       2.382   3.456  25.259  0.00  0.00    +0.120 C 
ATOM     21  C   UNL     1       1.487   3.000  26.448  0.00  0.00    +0.103 C 
BRANCH  19  22
ATOM     22  C   UNL     1       1.699   3.550  22.854  0.00  0.00    +0.030 A 
ATOM     23  C   UNL     1       1.694   4.476  21.794  0.00  0.00    +0.024 A 
ATOM     24  C   UNL     1       1.824   4.078  20.459  0.00  0.00    +0.022 A 
ATOM     25  C   UNL     1       1.971   2.735  20.156  0.00  0.00    +0.041 A 
ATOM     26 CL   UNL     1       2.127   2.238  18.516  0.00  0.00    -0.084 Cl
ATOM     27  C   UNL     1       1.984   1.789  21.174  0.00  0.00    +0.022 A 
ATOM     28  C   UNL     1       1.846   2.199  22.507  0.00  0.00    +0.024 A 
ENDBRANCH  19  22
ENDBRANCH  15  16
ENDBRANCH  13  15
ENDBRANCH  12  13
ENDBRANCH  10  12
ENDBRANCH   6   8
ENDBRANCH   5   6
ENDBRANCH   1   5
BRANCH   3  29
ATOM     29  C   UNL     1       2.839   2.643  37.562  0.00  0.00    +0.141 C 
BRANCH  29  30
ATOM     30  C   UNL     1       3.922   3.424  36.826  0.00  0.00    +0.163 C 
BRANCH  30  31
ATOM     31  O   UNL     1       3.323   4.296  35.852  0.00  0.00    -0.388 OA
ATOM     32  H   UNL     1       4.011   4.779  35.388  0.00  0.00    +0.210 HD
ENDBRANCH  30  31
BRANCH  30  33
ATOM     33  C   UNL     1       4.758   4.224  37.840  0.00  0.00    +0.175 C 
BRANCH  33  34
ATOM     34  C   UNL     1       5.551   5.356  37.170  0.00  0.00    +0.176 C 
ATOM     35  O   UNL     1       6.184   4.813  35.979  0.00  0.00    -0.332 OA
ATOM     36  C   UNL     1       6.905   5.782  35.147  0.00  0.00    +0.277 C 
ATOM     37  C   UNL     1       7.951   6.549  35.992  0.00  0.00    +0.110 C 
ATOM     38  C   UNL     1       7.332   7.117  37.286  0.00  0.00    +0.143 C 
ATOM     39  C   UNL     1       6.605   6.025  38.072  0.00  0.00    +0.133 C 
BRANCH  39  40
ATOM     40  N   UNL     1       5.945   6.596  39.258  0.00  0.00    -0.308 N 
ATOM     41  H   UNL     1       5.172   7.229  39.108  0.00  0.00    +0.149 HD
ATOM     42  C   UNL     1       6.302   6.333  40.517  0.00  0.00    +0.210 C 
ATOM     43  C   UNL     1       7.501   5.385  40.711  0.00  0.00    +0.109 C 
ATOM     44  O   UNL     1       5.722   6.814  41.491  0.00  0.00    -0.276 OA
ENDBRANCH  39  40
BRANCH  36  45
ATOM     45  C   UNL     1       5.926   6.786  34.504  0.00  0.00    +0.414 C 
ATOM     46  O   UNL     1       4.815   6.414  34.128  0.00  0.00    -0.240 OA
ATOM     47  O   UNL     1       6.246   7.966  34.361  0.00  0.00    -0.240 OA
ENDBRANCH  36  45
BRANCH  36  48
ATOM     48  O   UNL     1       7.605   5.049  34.109  0.00  0.00    -0.343 OA
ATOM     49  C   UNL     1       8.253   3.829  34.551  0.00  0.00    +0.198 C 
ENDBRANCH  36  48
BRANCH  38  50
ATOM     50  O   UNL     1       8.357   7.682  38.104  0.00  0.00    -0.390 OA
ATOM     51  H   UNL     1       8.705   8.472  37.683  0.00  0.00    +0.210 HD
ENDBRANCH  38  50
ENDBRANCH  33  34
BRANCH  33  52
ATOM     52  O   UNL     1       5.651   3.344  38.551  0.00  0.00    -0.387 OA
ATOM     53  H   UNL     1       5.477   2.436  38.294  0.00  0.00    +0.210 HD
ENDBRANCH  33  52
ENDBRANCH  30  33
ENDBRANCH  29  30
ENDBRANCH   3  29
TORSDOF 18
