REMARK VINA RESULT:    -6.168     15.266     17.467
REMARK INTER + INTRA:         -12.940
REMARK INTER:                 -10.139
REMARK INTRA:                  -2.801
REMARK UNBOUND:                -1.905
REMARK  Name = lig_assembled_38.pdb
REMARK  17 active torsions:
REMARK  status: ('A' for Active; 'I' for Inactive)
REMARK    1  A    between atoms: _2  and  _9
REMARK    2  A    between atoms: _4  and  _19
REMARK    3  A    between atoms: _6  and  _7
REMARK    4  A    between atoms: _6  and  _19
REMARK    5  A    between atoms: _9  and  _10
REMARK    6  A    between atoms: _15  and  _35
REMARK    7  A    between atoms: _17  and  _23
REMARK    8  A    between atoms: _18  and  _22
REMARK    9  A    between atoms: _22  and  _23
REMARK   10  A    between atoms: _25  and  _26
REMARK   11  A    between atoms: _27  and  _28
REMARK   12  A    between atoms: _29  and  _31
REMARK   13  A    between atoms: _31  and  _32
REMARK   14  A    between atoms: _31  and  _33
REMARK   15  A    between atoms: _33  and  _34
REMARK   16  A    between atoms: _33  and  _35
REMARK   17  A    between atoms: _36  and  _38
REMARK                            x       y       z     vdW  Elec       q    Type
REMARK                         _______ _______ _______ _____ _____    ______ ____
ROOT
ATOM      1  C   UNL     1      18.686  -1.740  22.426  0.00  0.00    +0.163 C 
ENDROOT
BRANCH   1   2
ATOM      2  O   UNL     1      19.542  -2.802  21.972  0.00  0.00    -0.388 OA
ATOM      3  H   UNL     1      20.347  -2.811  22.494  0.00  0.00    +0.210 HD
ENDBRANCH   1   2
BRANCH   1   4
ATOM      4  C   UNL     1      18.974  -0.466  21.639  0.00  0.00    +0.141 C 
BRANCH   4   7
ATOM      5  C   UNL     1      17.715   1.481  20.786  0.00  0.00    +0.401 C 
ATOM      6  O   UNL     1      18.598   1.826  19.998  0.00  0.00    -0.226 OA
ATOM      7  N   UNL     1      17.809   0.426  21.596  0.00  0.00    -0.279 N 
ATOM      8  H   UNL     1      17.035   0.229  22.215  0.00  0.00    +0.152 HD
BRANCH   5   9
ATOM      9  O   UNL     1      16.509   2.247  20.857  0.00  0.00    -0.444 OA
BRANCH   9  10
ATOM     10  C   UNL     1      16.777   3.503  21.484  0.00  0.00    +0.292 C 
BRANCH  10  12
ATOM     11  N   UNL     1      16.614   2.461  23.726  0.00  0.00    -0.131 NA
ATOM     12  C   UNL     1      17.270   3.297  22.860  0.00  0.00    +0.120 A 
ATOM     13  C   UNL     1      18.386   3.807  23.486  0.00  0.00    +0.137 A 
ATOM     14  N   UNL     1      18.384   3.200  24.709  0.00  0.00    -0.247 N 
ATOM     15  N   UNL     1      17.309   2.404  24.853  0.00  0.00    -0.065 NA
BRANCH  14  16
ATOM     16  C   UNL     1      19.469   3.148  25.673  0.00  0.00    +0.180 C 
BRANCH  16  17
ATOM     17  C   UNL     1      19.363   4.196  26.754  0.00  0.00    -0.025 A 
ATOM     18  C   UNL     1      19.239   5.556  26.429  0.00  0.00    +0.005 A 
ATOM     19  C   UNL     1      19.050   6.513  27.432  0.00  0.00    +0.001 A 
ATOM     20  C   UNL     1      18.985   6.123  28.768  0.00  0.00    +0.015 A 
ATOM     21  C   UNL     1      19.118   4.778  29.098  0.00  0.00    +0.018 A 
ATOM     22 BR   UNL     1      19.021   4.243  30.910  0.00  0.00    -0.050 Br
ATOM     23  C   UNL     1      19.306   3.816  28.104  0.00  0.00    +0.020 A 
ENDBRANCH  16  17
ENDBRANCH  14  16
ENDBRANCH  10  12
ENDBRANCH   9  10
ENDBRANCH   5   9
ENDBRANCH   4   7
ENDBRANCH   1   4
BRANCH   1  24
ATOM     24  C   UNL     1      18.889  -1.475  23.927  0.00  0.00    +0.175 C 
BRANCH  24  25
ATOM     25  C   UNL     1      18.237  -2.558  24.799  0.00  0.00    +0.176 C 
ATOM     26  O   UNL     1      17.053  -3.038  24.104  0.00  0.00    -0.332 OA
ATOM     27  C   UNL     1      16.355  -4.158  24.742  0.00  0.00    +0.277 C 
ATOM     28  C   UNL     1      15.996  -3.808  26.207  0.00  0.00    +0.110 C 
ATOM     29  C   UNL     1      17.217  -3.263  26.978  0.00  0.00    +0.143 C 
ATOM     30  C   UNL     1      17.868  -2.103  26.223  0.00  0.00    +0.133 C 
BRANCH  30  31
ATOM     31  N   UNL     1      19.080  -1.649  26.924  0.00  0.00    -0.308 N 
ATOM     32  H   UNL     1      19.889  -2.255  26.908  0.00  0.00    +0.149 HD
ATOM     33  C   UNL     1      19.181  -0.490  27.579  0.00  0.00    +0.210 C 
ATOM     34  C   UNL     1      17.923   0.399  27.607  0.00  0.00    +0.109 C 
ATOM     35  O   UNL     1      20.214  -0.129  28.144  0.00  0.00    -0.276 OA
ENDBRANCH  30  31
BRANCH  27  36
ATOM     36  C   UNL     1      17.225  -5.432  24.715  0.00  0.00    +0.414 C 
ATOM     37  O   UNL     1      18.351  -5.404  24.221  0.00  0.00    -0.240 OA
ATOM     38  O   UNL     1      16.800  -6.488  25.187  0.00  0.00    -0.240 OA
ENDBRANCH  27  36
BRANCH  27  39
ATOM     39  O   UNL     1      15.123  -4.393  24.013  0.00  0.00    -0.343 OA
ATOM     40  C   UNL     1      15.280  -4.558  22.581  0.00  0.00    +0.198 C 
ENDBRANCH  27  39
BRANCH  29  41
ATOM     41  O   UNL     1      16.809  -2.813  28.271  0.00  0.00    -0.390 OA
ATOM     42  H   UNL     1      15.855  -2.708  28.287  0.00  0.00    +0.210 HD
ENDBRANCH  29  41
ENDBRANCH  24  25
BRANCH  24  43
ATOM     43  O   UNL     1      18.369  -0.176  24.277  0.00  0.00    -0.387 OA
ATOM     44  H   UNL     1      18.318   0.371  23.489  0.00  0.00    +0.210 HD
ENDBRANCH  24  43
ENDBRANCH   1  24
TORSDOF 15
