REMARK VINA RESULT:    -7.115      1.891      2.248
REMARK INTER + INTRA:         -14.544
REMARK INTER:                 -12.640
REMARK INTRA:                  -1.904
REMARK UNBOUND:                -1.813
REMARK  Name = lig_assembled_41.pdb
REMARK  18 active torsions:
REMARK  status: ('A' for Active; 'I' for Inactive)
REMARK    1  A    between atoms: _2  and  _9
REMARK    2  A    between atoms: _4  and  _21
REMARK    3  A    between atoms: _6  and  _7
REMARK    4  A    between atoms: _6  and  _21
REMARK    5  A    between atoms: _10  and  _11
REMARK    6  A    between atoms: _11  and  _12
REMARK    7  A    between atoms: _17  and  _37
REMARK    8  A    between atoms: _19  and  _25
REMARK    9  A    between atoms: _20  and  _24
REMARK   10  A    between atoms: _24  and  _25
REMARK   11  A    between atoms: _27  and  _28
REMARK   12  A    between atoms: _29  and  _30
REMARK   13  A    between atoms: _31  and  _33
REMARK   14  A    between atoms: _33  and  _34
REMARK   15  A    between atoms: _33  and  _35
REMARK   16  A    between atoms: _35  and  _36
REMARK   17  A    between atoms: _35  and  _37
REMARK   18  A    between atoms: _38  and  _40
REMARK                            x       y       z     vdW  Elec       q    Type
REMARK                         _______ _______ _______ _____ _____    ______ ____
ROOT
ATOM      1  C   UNL     1       3.690   3.632  32.375  0.00  0.00    +0.163 C 
ENDROOT
BRANCH   1   2
ATOM      2  O   UNL     1       2.776   3.934  33.442  0.00  0.00    -0.388 OA
ATOM      3  H   UNL     1       2.232   4.686  33.195  0.00  0.00    +0.210 HD
ENDBRANCH   1   2
BRANCH   1   4
ATOM      4  C   UNL     1       3.040   2.664  31.390  0.00  0.00    +0.141 C 
BRANCH   4   7
ATOM      5  C   UNL     1       1.885   2.915  29.221  0.00  0.00    +0.401 C 
ATOM      6  O   UNL     1       1.060   2.028  29.451  0.00  0.00    -0.226 OA
ATOM      7  N   UNL     1       2.850   3.274  30.069  0.00  0.00    -0.279 N 
ATOM      8  H   UNL     1       3.485   4.007  29.786  0.00  0.00    +0.152 HD
BRANCH   5   9
ATOM      9  O   UNL     1       1.826   3.613  27.974  0.00  0.00    -0.444 OA
BRANCH   9  10
ATOM     10  C   UNL     1       0.690   3.164  27.229  0.00  0.00    +0.292 C 
BRANCH  10  12
ATOM     11  N   UNL     1       0.737   5.102  25.705  0.00  0.00    -0.131 NA
ATOM     12  C   UNL     1       0.697   3.752  25.877  0.00  0.00    +0.121 A 
ATOM     13  C   UNL     1       0.689   3.141  24.642  0.00  0.00    +0.143 A 
ATOM     14  N   UNL     1       0.615   4.171  23.733  0.00  0.00    -0.219 N 
ATOM     15  N   UNL     1       0.741   5.349  24.404  0.00  0.00    -0.060 NA
BRANCH  14  16
ATOM     16  C   UNL     1       0.548   4.153  22.310  0.00  0.00    +0.077 A 
ATOM     17  C   UNL     1      -0.634   4.328  21.558  0.00  0.00    +0.043 A 
ATOM     18  C   UNL     1      -0.563   4.236  20.152  0.00  0.00    +0.013 A 
ATOM     19  C   UNL     1       0.644   3.970  19.502  0.00  0.00    +0.001 A 
ATOM     20  C   UNL     1       1.809   3.822  20.239  0.00  0.00    +0.002 A 
ATOM     21  C   UNL     1       1.765   3.924  21.628  0.00  0.00    +0.028 A 
BRANCH  17  22
ATOM     22  C   UNL     1      -1.924   4.814  22.136  0.00  0.00    +0.162 C 
ATOM     23  O   UNL     1      -2.148   6.022  22.177  0.00  0.00    -0.292 OA
ATOM     24  C   UNL     1      -2.942   3.829  22.660  0.00  0.00    +0.091 C 
ENDBRANCH  17  22
ENDBRANCH  14  16
ENDBRANCH  10  12
ENDBRANCH   9  10
ENDBRANCH   5   9
ENDBRANCH   4   7
ENDBRANCH   1   4
BRANCH   1  25
ATOM     25  C   UNL     1       4.989   3.014  32.921  0.00  0.00    +0.175 C 
BRANCH  25  26
ATOM     26  C   UNL     1       5.481   3.730  34.187  0.00  0.00    +0.176 C 
ATOM     27  O   UNL     1       5.476   5.160  33.923  0.00  0.00    -0.332 OA
ATOM     28  C   UNL     1       5.819   6.016  35.062  0.00  0.00    +0.277 C 
ATOM     29  C   UNL     1       7.185   5.600  35.660  0.00  0.00    +0.110 C 
ATOM     30  C   UNL     1       7.250   4.081  35.929  0.00  0.00    +0.143 C 
ATOM     31  C   UNL     1       6.872   3.287  34.678  0.00  0.00    +0.133 C 
BRANCH  31  32
ATOM     32  N   UNL     1       6.853   1.845  34.970  0.00  0.00    -0.308 N 
ATOM     33  H   UNL     1       6.154   1.503  35.616  0.00  0.00    +0.149 HD
ATOM     34  C   UNL     1       7.698   0.958  34.439  0.00  0.00    +0.210 C 
ATOM     35  C   UNL     1       8.767   1.513  33.479  0.00  0.00    +0.109 C 
ATOM     36  O   UNL     1       7.650  -0.247  34.691  0.00  0.00    -0.276 OA
ENDBRANCH  31  32
BRANCH  28  37
ATOM     37  C   UNL     1       4.732   5.936  36.154  0.00  0.00    +0.414 C 
ATOM     38  O   UNL     1       3.595   5.559  35.871  0.00  0.00    -0.240 OA
ATOM     39  O   UNL     1       4.991   6.246  37.317  0.00  0.00    -0.240 OA
ENDBRANCH  28  37
BRANCH  30  40
ATOM     40  O   UNL     1       8.571   3.720  36.334  0.00  0.00    -0.390 OA
ATOM     41  H   UNL     1       8.787   4.167  37.156  0.00  0.00    +0.210 HD
ENDBRANCH  30  40
BRANCH  28  42
ATOM     42  O   UNL     1       5.927   7.381  34.581  0.00  0.00    -0.343 OA
ATOM     43  C   UNL     1       7.280   7.896  34.501  0.00  0.00    +0.198 C 
ENDBRANCH  28  42
ENDBRANCH  25  26
BRANCH  25  44
ATOM     44  O   UNL     1       6.013   3.037  31.907  0.00  0.00    -0.387 OA
ATOM     45  H   UNL     1       6.121   3.933  31.580  0.00  0.00    +0.210 HD
ENDBRANCH  25  44
ENDBRANCH   1  25
TORSDOF 15
