REMARK VINA RESULT:    -5.539      1.534      3.695
REMARK INTER + INTRA:         -13.683
REMARK INTER:                 -12.289
REMARK INTRA:                  -1.394
REMARK UNBOUND:                -3.450
REMARK  Name = lig_assembled_66.pdb
REMARK  18 active torsions:
REMARK  status: ('A' for Active; 'I' for Inactive)
REMARK    1  A    between atoms: _2  and  _10
REMARK    2  A    between atoms: _5  and  _21
REMARK    3  A    between atoms: _7  and  _8
REMARK    4  A    between atoms: _7  and  _21
REMARK    5  A    between atoms: _10  and  _11
REMARK    6  A    between atoms: _15  and  _16
REMARK    7  A    between atoms: _17  and  _37
REMARK    8  A    between atoms: _19  and  _25
REMARK    9  A    between atoms: _20  and  _24
REMARK   10  A    between atoms: _24  and  _25
REMARK   11  A    between atoms: _27  and  _28
REMARK   12  A    between atoms: _29  and  _30
REMARK   13  A    between atoms: _31  and  _33
REMARK   14  A    between atoms: _33  and  _34
REMARK   15  A    between atoms: _33  and  _35
REMARK   16  A    between atoms: _35  and  _36
REMARK   17  A    between atoms: _35  and  _37
REMARK   18  A    between atoms: _38  and  _40
REMARK                            x       y       z     vdW  Elec       q    Type
REMARK                         _______ _______ _______ _____ _____    ______ ____
ROOT
ATOM      1  C   UNL     1       4.513   3.689  32.429  0.00  0.00    +0.163 C 
ENDROOT
BRANCH   1   2
ATOM      2  O   UNL     1       3.707   4.211  33.497  0.00  0.00    -0.388 OA
ATOM      3  H   UNL     1       4.180   4.124  34.328  0.00  0.00    +0.210 HD
ENDBRANCH   1   2
BRANCH   1   4
ATOM      4  C   UNL     1       5.787   3.022  32.977  0.00  0.00    +0.175 C 
BRANCH   4   5
ATOM      5  C   UNL     1       6.145   3.527  34.382  0.00  0.00    +0.176 C 
ATOM      6  O   UNL     1       6.728   4.852  34.246  0.00  0.00    -0.332 OA
ATOM      7  C   UNL     1       7.038   5.541  35.502  0.00  0.00    +0.277 C 
ATOM      8  C   UNL     1       7.946   4.659  36.393  0.00  0.00    +0.110 C 
ATOM      9  C   UNL     1       7.384   3.229  36.541  0.00  0.00    +0.143 C 
ATOM     10  C   UNL     1       7.095   2.609  35.174  0.00  0.00    +0.133 C 
BRANCH  10  11
ATOM     11  N   UNL     1       6.479   1.282  35.330  0.00  0.00    -0.308 N 
ATOM     12  H   UNL     1       5.641   1.214  35.891  0.00  0.00    +0.149 HD
ATOM     13  C   UNL     1       6.955   0.161  34.780  0.00  0.00    +0.210 C 
ATOM     14  C   UNL     1       8.248   0.294  33.954  0.00  0.00    +0.109 C 
ATOM     15  O   UNL     1       6.409  -0.934  34.916  0.00  0.00    -0.276 OA
ENDBRANCH  10  11
BRANCH   7  16
ATOM     16  C   UNL     1       5.744   5.888  36.269  0.00  0.00    +0.414 C 
ATOM     17  O   UNL     1       5.793   6.193  37.460  0.00  0.00    -0.240 OA
ATOM     18  O   UNL     1       4.654   5.862  35.697  0.00  0.00    -0.240 OA
ENDBRANCH   7  16
BRANCH   7  19
ATOM     19  O   UNL     1       7.756   6.759  35.181  0.00  0.00    -0.343 OA
ATOM     20  C   UNL     1       6.998   7.735  34.422  0.00  0.00    +0.198 C 
ENDBRANCH   7  19
BRANCH   9  21
ATOM     21  O   UNL     1       8.324   2.412  37.240  0.00  0.00    -0.390 OA
ATOM     22  H   UNL     1       8.917   2.969  37.749  0.00  0.00    +0.210 HD
ENDBRANCH   9  21
ENDBRANCH   4   5
BRANCH   4  23
ATOM     23  O   UNL     1       6.889   3.240  32.074  0.00  0.00    -0.387 OA
ATOM     24  H   UNL     1       7.107   2.417  31.629  0.00  0.00    +0.210 HD
ENDBRANCH   4  23
ENDBRANCH   1   4
BRANCH   1  25
ATOM     25  C   UNL     1       3.714   2.673  31.620  0.00  0.00    +0.141 C 
BRANCH  25  28
ATOM     26  C   UNL     1       1.749   2.826  30.129  0.00  0.00    +0.401 C 
ATOM     27  O   UNL     1       1.244   1.775  30.531  0.00  0.00    -0.226 OA
ATOM     28  N   UNL     1       2.904   3.318  30.579  0.00  0.00    -0.279 N 
ATOM     29  H   UNL     1       3.241   4.183  30.180  0.00  0.00    +0.152 HD
BRANCH  26  30
ATOM     30  O   UNL     1       1.074   3.578  29.118  0.00  0.00    -0.444 OA
BRANCH  30  31
ATOM     31  C   UNL     1       0.852   2.749  27.974  0.00  0.00    +0.292 C 
BRANCH  31  33
ATOM     32  N   UNL     1      -0.071   4.617  26.633  0.00  0.00    -0.131 NA
ATOM     33  C   UNL     1       0.803   3.568  26.747  0.00  0.00    +0.120 A 
ATOM     34  C   UNL     1       1.566   3.493  25.604  0.00  0.00    +0.137 A 
ATOM     35  N   UNL     1       1.150   4.557  24.857  0.00  0.00    -0.247 N 
ATOM     36  N   UNL     1       0.151   5.219  25.471  0.00  0.00    -0.065 NA
BRANCH  35  37
ATOM     37  C   UNL     1       1.814   5.139  23.705  0.00  0.00    +0.180 C 
BRANCH  37  38
ATOM     38  C   UNL     1       1.172   4.764  22.394  0.00  0.00    -0.025 A 
ATOM     39  C   UNL     1      -0.184   5.041  22.163  0.00  0.00    +0.005 A 
ATOM     40  C   UNL     1      -0.765   4.773  20.921  0.00  0.00    +0.002 A 
ATOM     41  C   UNL     1      -0.003   4.207  19.900  0.00  0.00    +0.019 A 
ATOM     42  C   UNL     1       1.340   3.892  20.125  0.00  0.00    +0.052 A 
ATOM     43  C   UNL     1       1.925   4.171  21.367  0.00  0.00    +0.024 A 
BRANCH  42  44
ATOM     44  C   UNL     1       2.122   3.294  19.082  0.00  0.00    +0.099 C 
ATOM     45  N   UNL     1       2.761   2.806  18.244  0.00  0.00    -0.191 NA
ENDBRANCH  42  44
ENDBRANCH  37  38
ENDBRANCH  35  37
ENDBRANCH  31  33
ENDBRANCH  30  31
ENDBRANCH  26  30
ENDBRANCH  25  28
ENDBRANCH   1  25
TORSDOF 16
