REMARK VINA RESULT:    -5.814      3.075      6.312
REMARK INTER + INTRA:         -14.192
REMARK INTER:                 -12.037
REMARK INTRA:                  -2.154
REMARK UNBOUND:                -3.450
REMARK  Name = lig_assembled_66.pdb
REMARK  18 active torsions:
REMARK  status: ('A' for Active; 'I' for Inactive)
REMARK    1  A    between atoms: _2  and  _10
REMARK    2  A    between atoms: _5  and  _21
REMARK    3  A    between atoms: _7  and  _8
REMARK    4  A    between atoms: _7  and  _21
REMARK    5  A    between atoms: _10  and  _11
REMARK    6  A    between atoms: _15  and  _16
REMARK    7  A    between atoms: _17  and  _37
REMARK    8  A    between atoms: _19  and  _25
REMARK    9  A    between atoms: _20  and  _24
REMARK   10  A    between atoms: _24  and  _25
REMARK   11  A    between atoms: _27  and  _28
REMARK   12  A    between atoms: _29  and  _30
REMARK   13  A    between atoms: _31  and  _33
REMARK   14  A    between atoms: _33  and  _34
REMARK   15  A    between atoms: _33  and  _35
REMARK   16  A    between atoms: _35  and  _36
REMARK   17  A    between atoms: _35  and  _37
REMARK   18  A    between atoms: _38  and  _40
REMARK                            x       y       z     vdW  Elec       q    Type
REMARK                         _______ _______ _______ _____ _____    ______ ____
ROOT
ATOM      1  C   UNL     1       7.691   2.370  34.085  0.00  0.00    +0.163 C 
ENDROOT
BRANCH   1   2
ATOM      2  O   UNL     1       8.578   2.508  35.207  0.00  0.00    -0.388 OA
ATOM      3  H   UNL     1       9.163   3.256  35.064  0.00  0.00    +0.210 HD
ENDBRANCH   1   2
BRANCH   1   4
ATOM      4  C   UNL     1       7.676   3.652  33.235  0.00  0.00    +0.175 C 
BRANCH   4   5
ATOM      5  C   UNL     1       6.899   4.788  33.916  0.00  0.00    +0.176 C 
ATOM      6  O   UNL     1       7.712   5.293  35.011  0.00  0.00    -0.332 OA
ATOM      7  C   UNL     1       7.172   6.460  35.716  0.00  0.00    +0.277 C 
ATOM      8  C   UNL     1       5.737   6.171  36.220  0.00  0.00    +0.110 C 
ATOM      9  C   UNL     1       4.843   5.602  35.098  0.00  0.00    +0.143 C 
ATOM     10  C   UNL     1       5.502   4.394  34.431  0.00  0.00    +0.133 C 
BRANCH  10  11
ATOM     11  N   UNL     1       4.681   3.915  33.308  0.00  0.00    -0.308 N 
ATOM     12  H   UNL     1       4.622   4.498  32.484  0.00  0.00    +0.149 HD
ATOM     13  C   UNL     1       4.010   2.760  33.305  0.00  0.00    +0.210 C 
ATOM     14  C   UNL     1       4.099   1.907  34.584  0.00  0.00    +0.109 C 
ATOM     15  O   UNL     1       3.342   2.377  32.343  0.00  0.00    -0.276 OA
ENDBRANCH  10  11
BRANCH   7  16
ATOM     16  C   UNL     1       7.156   7.696  34.794  0.00  0.00    +0.414 C 
ATOM     17  O   UNL     1       6.088   8.162  34.400  0.00  0.00    -0.240 OA
ATOM     18  O   UNL     1       8.211   8.228  34.445  0.00  0.00    -0.240 OA
ENDBRANCH   7  16
BRANCH   7  19
ATOM     19  O   UNL     1       8.017   6.719  36.867  0.00  0.00    -0.343 OA
ATOM     20  C   UNL     1       7.329   7.262  38.022  0.00  0.00    +0.198 C 
ENDBRANCH   7  19
BRANCH   9  21
ATOM     21  O   UNL     1       3.581   5.211  35.640  0.00  0.00    -0.390 OA
ATOM     22  H   UNL     1       3.439   4.275  35.478  0.00  0.00    +0.210 HD
ENDBRANCH   9  21
ENDBRANCH   4   5
BRANCH   4  23
ATOM     23  O   UNL     1       7.119   3.380  31.934  0.00  0.00    -0.387 OA
ATOM     24  H   UNL     1       6.284   3.844  31.839  0.00  0.00    +0.210 HD
ENDBRANCH   4  23
ENDBRANCH   1   4
BRANCH   1  25
ATOM     25  C   UNL     1       8.123   1.191  33.220  0.00  0.00    +0.141 C 
BRANCH  25  28
ATOM     26  C   UNL     1       7.093  -0.734  32.063  0.00  0.00    +0.401 C 
ATOM     27  O   UNL     1       8.156  -1.136  31.584  0.00  0.00    -0.226 OA
ATOM     28  N   UNL     1       6.984   0.349  32.834  0.00  0.00    -0.279 N 
ATOM     29  H   UNL     1       6.067   0.604  33.171  0.00  0.00    +0.152 HD
BRANCH  26  30
ATOM     30  O   UNL     1       5.889  -1.454  31.784  0.00  0.00    -0.444 OA
BRANCH  30  31
ATOM     31  C   UNL     1       4.842  -0.532  31.470  0.00  0.00    +0.292 C 
BRANCH  31  33
ATOM     32  N   UNL     1       5.291  -1.259  29.144  0.00  0.00    -0.131 NA
ATOM     33  C   UNL     1       4.461  -0.651  30.049  0.00  0.00    +0.120 A 
ATOM     34  C   UNL     1       3.305  -0.264  29.409  0.00  0.00    +0.137 A 
ATOM     35  N   UNL     1       3.467  -0.715  28.131  0.00  0.00    -0.247 N 
ATOM     36  N   UNL     1       4.671  -1.295  27.971  0.00  0.00    -0.065 NA
BRANCH  35  37
ATOM     37  C   UNL     1       2.446  -0.856  27.110  0.00  0.00    +0.180 C 
BRANCH  37  38
ATOM     38  C   UNL     1       2.432   0.280  26.118  0.00  0.00    -0.025 A 
ATOM     39  C   UNL     1       3.014   0.122  24.852  0.00  0.00    +0.005 A 
ATOM     40  C   UNL     1       2.932   1.139  23.898  0.00  0.00    +0.002 A 
ATOM     41  C   UNL     1       2.286   2.336  24.205  0.00  0.00    +0.019 A 
ATOM     42  C   UNL     1       1.732   2.523  25.475  0.00  0.00    +0.052 A 
ATOM     43  C   UNL     1       1.804   1.498  26.427  0.00  0.00    +0.024 A 
BRANCH  42  44
ATOM     44  C   UNL     1       1.081   3.759  25.799  0.00  0.00    +0.099 C 
ATOM     45  N   UNL     1       0.557   4.763  26.055  0.00  0.00    -0.191 NA
ENDBRANCH  42  44
ENDBRANCH  37  38
ENDBRANCH  35  37
ENDBRANCH  31  33
ENDBRANCH  30  31
ENDBRANCH  26  30
ENDBRANCH  25  28
ENDBRANCH   1  25
TORSDOF 16
