REMARK VINA RESULT:    -6.202      1.754      2.523
REMARK INTER + INTRA:         -13.015
REMARK INTER:                 -11.278
REMARK INTRA:                  -1.736
REMARK UNBOUND:                -1.736
REMARK  Name = lig_assembled_59.pdb
REMARK  18 active torsions:
REMARK  status: ('A' for Active; 'I' for Inactive)
REMARK    1  A    between atoms: _2  and  _10
REMARK    2  A    between atoms: _5  and  _20
REMARK    3  A    between atoms: _7  and  _8
REMARK    4  A    between atoms: _7  and  _20
REMARK    5  A    between atoms: _13  and  _14
REMARK    6  A    between atoms: _14  and  _15
REMARK    7  A    between atoms: _16  and  _36
REMARK    8  A    between atoms: _18  and  _24
REMARK    9  A    between atoms: _19  and  _23
REMARK   10  A    between atoms: _23  and  _24
REMARK   11  A    between atoms: _26  and  _27
REMARK   12  A    between atoms: _28  and  _29
REMARK   13  A    between atoms: _30  and  _32
REMARK   14  A    between atoms: _32  and  _33
REMARK   15  A    between atoms: _32  and  _34
REMARK   16  A    between atoms: _34  and  _35
REMARK   17  A    between atoms: _34  and  _36
REMARK   18  A    between atoms: _37  and  _39
REMARK                            x       y       z     vdW  Elec       q    Type
REMARK                         _______ _______ _______ _____ _____    ______ ____
ROOT
ATOM      1  C   UNL     1       6.434   2.713  33.617  0.00  0.00    +0.163 C 
ENDROOT
BRANCH   1   2
ATOM      2  O   UNL     1       6.648   1.409  34.181  0.00  0.00    -0.388 OA
ATOM      3  H   UNL     1       5.818   1.067  34.523  0.00  0.00    +0.210 HD
ENDBRANCH   1   2
BRANCH   1   4
ATOM      4  C   UNL     1       7.671   3.606  33.811  0.00  0.00    +0.175 C 
BRANCH   4   5
ATOM      5  C   UNL     1       7.688   4.278  35.192  0.00  0.00    +0.176 C 
ATOM      6  O   UNL     1       7.685   5.718  34.989  0.00  0.00    -0.332 OA
ATOM      7  C   UNL     1       7.594   6.529  36.207  0.00  0.00    +0.277 C 
ATOM      8  C   UNL     1       8.717   6.143  37.200  0.00  0.00    +0.110 C 
ATOM      9  C   UNL     1       8.780   4.618  37.424  0.00  0.00    +0.143 C 
ATOM     10  C   UNL     1       8.870   3.871  36.092  0.00  0.00    +0.133 C 
BRANCH  10  11
ATOM     11  N   UNL     1       8.842   2.417  36.313  0.00  0.00    -0.308 N 
ATOM     12  H   UNL     1       8.054   2.032  36.815  0.00  0.00    +0.149 HD
ATOM     13  C   UNL     1       9.789   1.573  35.895  0.00  0.00    +0.210 C 
ATOM     14  C   UNL     1      10.990   2.195  35.157  0.00  0.00    +0.109 C 
ATOM     15  O   UNL     1       9.732   0.358  36.082  0.00  0.00    -0.276 OA
ENDBRANCH  10  11
BRANCH   7  16
ATOM     16  C   UNL     1       6.220   6.346  36.884  0.00  0.00    +0.414 C 
ATOM     17  O   UNL     1       5.230   6.060  36.212  0.00  0.00    -0.240 OA
ATOM     18  O   UNL     1       6.102   6.483  38.103  0.00  0.00    -0.240 OA
ENDBRANCH   7  16
BRANCH   7  19
ATOM     19  O   UNL     1       7.772   7.920  35.833  0.00  0.00    -0.343 OA
ATOM     20  C   UNL     1       7.578   8.205  34.425  0.00  0.00    +0.198 C 
ENDBRANCH   7  19
BRANCH   9  21
ATOM     21  O   UNL     1       9.919   4.294  38.223  0.00  0.00    -0.390 OA
ATOM     22  H   UNL     1      10.085   5.005  38.846  0.00  0.00    +0.210 HD
ENDBRANCH   9  21
ENDBRANCH   4   5
BRANCH   4  23
ATOM     23  O   UNL     1       7.731   4.604  32.773  0.00  0.00    -0.387 OA
ATOM     24  H   UNL     1       6.913   5.107  32.764  0.00  0.00    +0.210 HD
ENDBRANCH   4  23
ENDBRANCH   1   4
BRANCH   1  25
ATOM     25  C   UNL     1       6.120   2.593  32.130  0.00  0.00    +0.141 C 
BRANCH  25  28
ATOM     26  C   UNL     1       3.681   2.627  31.739  0.00  0.00    +0.401 C 
ATOM     27  O   UNL     1       3.531   1.426  31.976  0.00  0.00    -0.226 OA
ATOM     28  N   UNL     1       4.857   3.254  31.781  0.00  0.00    -0.279 N 
ATOM     29  H   UNL     1       4.880   4.240  31.561  0.00  0.00    +0.152 HD
BRANCH  26  30
ATOM     30  O   UNL     1       2.539   3.414  31.391  0.00  0.00    -0.444 OA
BRANCH  30  31
ATOM     31  C   UNL     1       1.523   2.567  30.847  0.00  0.00    +0.292 C 
BRANCH  31  33
ATOM     32  N   UNL     1       0.338   3.943  29.170  0.00  0.00    -0.131 NA
ATOM     33  C   UNL     1       1.232   2.948  29.452  0.00  0.00    +0.121 A 
ATOM     34  C   UNL     1       1.731   2.444  28.274  0.00  0.00    +0.145 A 
ATOM     35  N   UNL     1       1.107   3.173  27.287  0.00  0.00    -0.202 N 
ATOM     36  N   UNL     1       0.269   4.078  27.853  0.00  0.00    -0.059 NA
BRANCH  35  37
ATOM     37  C   UNL     1       1.263   3.033  25.881  0.00  0.00    +0.156 A 
ATOM     38  C   UNL     1       1.956   4.015  25.175  0.00  0.00    +0.048 A 
ATOM     39  C   UNL     1       2.069   3.892  23.792  0.00  0.00    +0.011 A 
ATOM     40  C   UNL     1       1.499   2.797  23.139  0.00  0.00    -0.004 A 
ATOM     41  C   UNL     1       0.826   1.866  23.926  0.00  0.00    +0.119 A 
ATOM     42  N   UNL     1       0.704   1.951  25.273  0.00  0.00    -0.236 NA
BRANCH  40  43
ATOM     43  C   UNL     1       1.529   2.694  21.642  0.00  0.00    +0.192 C 
BRANCH  43  44
ATOM     44  O   UNL     1       2.356   1.623  21.213  0.00  0.00    -0.390 OA
ATOM     45  H   UNL     1       2.466   1.027  21.976  0.00  0.00    +0.210 HD
ENDBRANCH  43  44
ENDBRANCH  40  43
ENDBRANCH  35  37
ENDBRANCH  31  33
ENDBRANCH  30  31
ENDBRANCH  26  30
ENDBRANCH  25  28
ENDBRANCH   1  25
TORSDOF 16
