REMARK VINA RESULT:    -5.564     14.916     18.394
REMARK INTER + INTRA:         -12.599
REMARK INTER:                 -10.020
REMARK INTRA:                  -2.579
REMARK UNBOUND:                -1.667
REMARK  Name = lig_assembled_43.pdb
REMARK  20 active torsions:
REMARK  status: ('A' for Active; 'I' for Inactive)
REMARK    1  A    between atoms: _2  and  _9
REMARK    2  A    between atoms: _4  and  _18
REMARK    3  A    between atoms: _6  and  _7
REMARK    4  A    between atoms: _6  and  _18
REMARK    5  A    between atoms: _9  and  _10
REMARK    6  A    between atoms: _10  and  _11
REMARK    7  A    between atoms: _11  and  _12
REMARK    8  A    between atoms: _12  and  _13
REMARK    9  A    between atoms: _14  and  _34
REMARK   10  A    between atoms: _16  and  _22
REMARK   11  A    between atoms: _17  and  _21
REMARK   12  A    between atoms: _21  and  _22
REMARK   13  A    between atoms: _24  and  _25
REMARK   14  A    between atoms: _26  and  _27
REMARK   15  A    between atoms: _28  and  _30
REMARK   16  A    between atoms: _30  and  _31
REMARK   17  A    between atoms: _30  and  _32
REMARK   18  A    between atoms: _32  and  _33
REMARK   19  A    between atoms: _32  and  _34
REMARK   20  A    between atoms: _35  and  _37
REMARK                            x       y       z     vdW  Elec       q    Type
REMARK                         _______ _______ _______ _____ _____    ______ ____
ROOT
ATOM      1  C   UNL     1      16.757   0.770  26.247  0.00  0.00    +0.163 C 
ENDROOT
BRANCH   1   2
ATOM      2  O   UNL     1      15.879  -0.238  26.773  0.00  0.00    -0.388 OA
ATOM      3  H   UNL     1      15.384   0.121  27.513  0.00  0.00    +0.210 HD
ENDBRANCH   1   2
BRANCH   1   4
ATOM      4  C   UNL     1      18.053   0.143  25.705  0.00  0.00    +0.175 C 
BRANCH   4   5
ATOM      5  C   UNL     1      17.773  -0.995  24.712  0.00  0.00    +0.176 C 
ATOM      6  O   UNL     1      17.405  -2.176  25.478  0.00  0.00    -0.332 OA
ATOM      7  C   UNL     1      16.998  -3.341  24.688  0.00  0.00    +0.277 C 
ATOM      8  C   UNL     1      18.094  -3.706  23.657  0.00  0.00    +0.110 C 
ATOM      9  C   UNL     1      18.541  -2.475  22.840  0.00  0.00    +0.143 C 
ATOM     10  C   UNL     1      18.939  -1.322  23.761  0.00  0.00    +0.133 C 
BRANCH  10  11
ATOM     11  N   UNL     1      19.279  -0.127  22.972  0.00  0.00    -0.308 N 
ATOM     12  H   UNL     1      18.548   0.298  22.420  0.00  0.00    +0.149 HD
ATOM     13  C   UNL     1      20.492   0.432  22.938  0.00  0.00    +0.210 C 
ATOM     14  C   UNL     1      21.592  -0.254  23.769  0.00  0.00    +0.109 C 
ATOM     15  O   UNL     1      20.744   1.442  22.280  0.00  0.00    -0.276 OA
ENDBRANCH  10  11
BRANCH   7  16
ATOM     16  C   UNL     1      15.670  -3.067  23.952  0.00  0.00    +0.414 C 
ATOM     17  O   UNL     1      15.061  -2.015  24.144  0.00  0.00    -0.240 OA
ATOM     18  O   UNL     1      15.208  -3.897  23.168  0.00  0.00    -0.240 OA
ENDBRANCH   7  16
BRANCH   9  19
ATOM     19  O   UNL     1      19.652  -2.823  22.014  0.00  0.00    -0.390 OA
ATOM     20  H   UNL     1      20.463  -2.764  22.524  0.00  0.00    +0.210 HD
ENDBRANCH   9  19
BRANCH   7  21
ATOM     21  O   UNL     1      16.832  -4.462  25.595  0.00  0.00    -0.343 OA
ATOM     22  C   UNL     1      15.955  -4.212  26.722  0.00  0.00    +0.198 C 
ENDBRANCH   7  21
ENDBRANCH   4   5
BRANCH   4  23
ATOM     23  O   UNL     1      18.866  -0.337  26.795  0.00  0.00    -0.387 OA
ATOM     24  H   UNL     1      19.664   0.193  26.856  0.00  0.00    +0.210 HD
ENDBRANCH   4  23
ENDBRANCH   1   4
BRANCH   1  25
ATOM     25  C   UNL     1      16.058   1.540  25.131  0.00  0.00    +0.141 C 
BRANCH  25  28
ATOM     26  C   UNL     1      17.344   2.842  23.471  0.00  0.00    +0.401 C 
ATOM     27  O   UNL     1      17.219   2.003  22.576  0.00  0.00    -0.226 OA
ATOM     28  N   UNL     1      16.840   2.705  24.698  0.00  0.00    -0.279 N 
ATOM     29  H   UNL     1      17.004   3.444  25.367  0.00  0.00    +0.152 HD
BRANCH  26  30
ATOM     30  O   UNL     1      18.075   4.042  23.201  0.00  0.00    -0.444 OA
BRANCH  30  31
ATOM     31  C   UNL     1      19.241   4.087  24.029  0.00  0.00    +0.292 C 
BRANCH  31  33
ATOM     32  N   UNL     1      18.851   4.851  26.352  0.00  0.00    -0.131 NA
ATOM     33  C   UNL     1      19.111   5.152  25.040  0.00  0.00    +0.120 A 
ATOM     34  C   UNL     1      19.205   6.519  24.902  0.00  0.00    +0.137 A 
ATOM     35  N   UNL     1      18.988   6.989  26.162  0.00  0.00    -0.251 N 
ATOM     36  N   UNL     1      18.778   5.988  27.031  0.00  0.00    -0.065 NA
BRANCH  35  37
ATOM     37  C   UNL     1      18.934   8.367  26.604  0.00  0.00    +0.145 C 
BRANCH  37  38
ATOM     38  C   UNL     1      20.299   9.040  26.503  0.00  0.00    +0.024 C 
BRANCH  38  39
ATOM     39  C   UNL     1      20.183  10.529  26.170  0.00  0.00    +0.006 C 
BRANCH  39  40
ATOM     40  C   UNL     1      19.333  11.249  27.220  0.00  0.00    +0.026 C 
BRANCH  40  41
ATOM     41  C   UNL     1      20.053  11.387  28.529  0.00  0.00    -0.034 C 
ATOM     42  C   UNL     1      19.473  11.204  29.722  0.00  0.00    +0.004 C 
ENDBRANCH  40  41
ENDBRANCH  39  40
ENDBRANCH  38  39
ENDBRANCH  37  38
ENDBRANCH  35  37
ENDBRANCH  31  33
ENDBRANCH  30  31
ENDBRANCH  26  30
ENDBRANCH  25  28
ENDBRANCH   1  25
TORSDOF 18
