REMARK VINA RESULT:    -6.237     14.189     18.176
REMARK INTER + INTRA:         -13.602
REMARK INTER:                 -11.551
REMARK INTRA:                  -2.051
REMARK UNBOUND:                -2.078
REMARK  Name = lig_assembled_14.pdb
REMARK  18 active torsions:
REMARK  status: ('A' for Active; 'I' for Inactive)
REMARK    1  A    between atoms: _2  and  _10
REMARK    2  A    between atoms: _3  and  _11
REMARK    3  A    between atoms: _5  and  _19
REMARK    4  A    between atoms: _7  and  _8
REMARK    5  A    between atoms: _7  and  _19
REMARK    6  A    between atoms: _10  and  _11
REMARK    7  A    between atoms: _15  and  _35
REMARK    8  A    between atoms: _17  and  _23
REMARK    9  A    between atoms: _18  and  _22
REMARK   10  A    between atoms: _22  and  _23
REMARK   11  A    between atoms: _25  and  _26
REMARK   12  A    between atoms: _27  and  _28
REMARK   13  A    between atoms: _29  and  _31
REMARK   14  A    between atoms: _31  and  _32
REMARK   15  A    between atoms: _31  and  _33
REMARK   16  A    between atoms: _33  and  _34
REMARK   17  A    between atoms: _33  and  _35
REMARK   18  A    between atoms: _36  and  _38
REMARK                            x       y       z     vdW  Elec       q    Type
REMARK                         _______ _______ _______ _____ _____    ______ ____
ROOT
ATOM      1  C   UNL     1       3.663   3.652  32.419  0.00  0.00    +0.163 C 
ENDROOT
BRANCH   1   2
ATOM      2  O   UNL     1       2.732   3.949  33.472  0.00  0.00    -0.388 OA
ATOM      3  H   UNL     1       2.376   3.131  33.826  0.00  0.00    +0.210 HD
ENDBRANCH   1   2
BRANCH   1   4
ATOM      4  C   UNL     1       4.942   3.008  32.980  0.00  0.00    +0.175 C 
BRANCH   4   5
ATOM      5  C   UNL     1       5.442   3.722  34.245  0.00  0.00    +0.176 C 
ATOM      6  O   UNL     1       5.428   5.153  33.986  0.00  0.00    -0.332 OA
ATOM      7  C   UNL     1       5.776   6.007  35.125  0.00  0.00    +0.277 C 
ATOM      8  C   UNL     1       7.149   5.594  35.711  0.00  0.00    +0.110 C 
ATOM      9  C   UNL     1       7.222   4.075  35.974  0.00  0.00    +0.143 C 
ATOM     10  C   UNL     1       6.838   3.283  34.724  0.00  0.00    +0.133 C 
BRANCH  10  11
ATOM     11  N   UNL     1       6.828   1.840  35.012  0.00  0.00    -0.308 N 
ATOM     12  H   UNL     1       6.125   1.491  35.649  0.00  0.00    +0.149 HD
ATOM     13  C   UNL     1       7.685   0.961  34.486  0.00  0.00    +0.210 C 
ATOM     14  C   UNL     1       8.760   1.529  33.539  0.00  0.00    +0.109 C 
ATOM     15  O   UNL     1       7.644  -0.244  34.733  0.00  0.00    -0.276 OA
ENDBRANCH  10  11
BRANCH   7  16
ATOM     16  C   UNL     1       4.698   5.917  36.225  0.00  0.00    +0.414 C 
ATOM     17  O   UNL     1       3.561   5.538  35.950  0.00  0.00    -0.240 OA
ATOM     18  O   UNL     1       4.965   6.224  37.388  0.00  0.00    -0.240 OA
ENDBRANCH   7  16
BRANCH   9  19
ATOM     19  O   UNL     1       8.548   3.718  36.368  0.00  0.00    -0.390 OA
ATOM     20  H   UNL     1       9.015   4.501  36.669  0.00  0.00    +0.210 HD
ENDBRANCH   9  19
BRANCH   7  21
ATOM     21  O   UNL     1       5.875   7.373  34.648  0.00  0.00    -0.343 OA
ATOM     22  C   UNL     1       7.224   7.899  34.571  0.00  0.00    +0.198 C 
ENDBRANCH   7  21
ENDBRANCH   4   5
BRANCH   4  23
ATOM     23  O   UNL     1       5.976   2.997  31.975  0.00  0.00    -0.387 OA
ATOM     24  H   UNL     1       6.826   2.840  32.392  0.00  0.00    +0.210 HD
ENDBRANCH   4  23
ENDBRANCH   1   4
BRANCH   1  25
ATOM     25  C   UNL     1       3.021   2.710  31.405  0.00  0.00    +0.141 C 
BRANCH  25  28
ATOM     26  C   UNL     1       0.867   3.606  30.592  0.00  0.00    +0.401 C 
ATOM     27  O   UNL     1       0.218   3.170  31.546  0.00  0.00    -0.226 OA
ATOM     28  N   UNL     1       2.180   3.433  30.443  0.00  0.00    -0.279 N 
ATOM     29  H   UNL     1       2.622   3.820  29.621  0.00  0.00    +0.152 HD
BRANCH  26  30
ATOM     30  O   UNL     1       0.189   4.342  29.570  0.00  0.00    -0.444 OA
BRANCH  30  31
ATOM     31  C   UNL     1      -0.186   3.456  28.513  0.00  0.00    +0.292 C 
BRANCH  31  33
ATOM     32  N   UNL     1       2.053   3.722  27.493  0.00  0.00    -0.131 NA
ATOM     33  C   UNL     1       0.693   3.648  27.344  0.00  0.00    +0.120 A 
ATOM     34  C   UNL     1       0.377   3.790  26.011  0.00  0.00    +0.137 A 
ATOM     35  N   UNL     1       1.585   3.960  25.407  0.00  0.00    -0.250 N 
ATOM     36  N   UNL     1       2.591   3.911  26.297  0.00  0.00    -0.065 NA
BRANCH  35  37
ATOM     37  C   UNL     1       1.858   4.228  24.011  0.00  0.00    +0.160 C 
BRANCH  37  38
ATOM     38  C   UNL     1       0.698   4.966  23.333  0.00  0.00    +0.107 C 
BRANCH  38  39
ATOM     39  N   UNL     1       0.846   5.049  21.870  0.00  0.00    -0.301 NA
ATOM     40  C   UNL     1       1.777   4.055  21.328  0.00  0.00    +0.084 C 
ATOM     41  C   UNL     1       1.442   4.062  19.850  0.00  0.00    +0.017 C 
ATOM     42  C   UNL     1      -0.066   4.224  19.822  0.00  0.00    +0.017 C 
ATOM     43  C   UNL     1      -0.432   4.820  21.179  0.00  0.00    +0.084 C 
ENDBRANCH  38  39
ENDBRANCH  37  38
ENDBRANCH  35  37
ENDBRANCH  31  33
ENDBRANCH  30  31
ENDBRANCH  26  30
ENDBRANCH  25  28
ENDBRANCH   1  25
TORSDOF 16
