REMARK VINA RESULT:    -6.340      1.941      3.318
REMARK INTER + INTRA:         -13.590
REMARK INTER:                 -11.854
REMARK INTRA:                  -1.735
REMARK UNBOUND:                -2.246
REMARK  Name = lig_assembled_5.pdb
REMARK  18 active torsions:
REMARK  status: ('A' for Active; 'I' for Inactive)
REMARK    1  A    between atoms: _2  and  _9
REMARK    2  A    between atoms: _4  and  _20
REMARK    3  A    between atoms: _6  and  _7
REMARK    4  A    between atoms: _6  and  _20
REMARK    5  A    between atoms: _12  and  _15
REMARK    6  A    between atoms: _13  and  _15
REMARK    7  A    between atoms: _16  and  _36
REMARK    8  A    between atoms: _18  and  _24
REMARK    9  A    between atoms: _19  and  _23
REMARK   10  A    between atoms: _23  and  _24
REMARK   11  A    between atoms: _26  and  _27
REMARK   12  A    between atoms: _28  and  _29
REMARK   13  A    between atoms: _30  and  _32
REMARK   14  A    between atoms: _32  and  _33
REMARK   15  A    between atoms: _32  and  _34
REMARK   16  A    between atoms: _34  and  _35
REMARK   17  A    between atoms: _34  and  _36
REMARK   18  A    between atoms: _37  and  _39
REMARK                            x       y       z     vdW  Elec       q    Type
REMARK                         _______ _______ _______ _____ _____    ______ ____
ROOT
ATOM      1  C   UNL     1       3.597   3.333  33.554  0.00  0.00    +0.163 C 
ENDROOT
BRANCH   1   2
ATOM      2  O   UNL     1       4.002   4.508  32.833  0.00  0.00    -0.388 OA
ATOM      3  H   UNL     1       3.349   4.711  32.158  0.00  0.00    +0.210 HD
ENDBRANCH   1   2
BRANCH   1   4
ATOM      4  C   UNL     1       2.360   2.722  32.903  0.00  0.00    +0.141 C 
BRANCH   4   7
ATOM      5  C   UNL     1       0.788   3.487  31.157  0.00  0.00    +0.401 C 
ATOM      6  O   UNL     1      -0.210   3.041  31.727  0.00  0.00    -0.226 OA
ATOM      7  N   UNL     1       2.030   3.378  31.632  0.00  0.00    -0.279 N 
ATOM      8  H   UNL     1       2.785   3.768  31.087  0.00  0.00    +0.152 HD
BRANCH   5   9
ATOM      9  O   UNL     1       0.630   4.163  29.907  0.00  0.00    -0.444 OA
BRANCH   9  10
ATOM     10  C   UNL     1       0.218   3.228  28.906  0.00  0.00    +0.292 C 
BRANCH  10  12
ATOM     11  N   UNL     1       2.274   3.763  27.637  0.00  0.00    -0.131 NA
ATOM     12  C   UNL     1       0.940   3.477  27.644  0.00  0.00    +0.121 A 
ATOM     13  C   UNL     1       0.476   3.468  26.349  0.00  0.00    +0.143 A 
ATOM     14  N   UNL     1       1.581   3.729  25.572  0.00  0.00    -0.220 N 
ATOM     15  N   UNL     1       2.655   3.922  26.377  0.00  0.00    -0.060 NA
BRANCH  14  16
ATOM     16  C   UNL     1       1.682   3.774  24.157  0.00  0.00    +0.067 A 
ATOM     17  C   UNL     1       1.710   4.999  23.480  0.00  0.00    +0.031 A 
ATOM     18  C   UNL     1       1.748   5.022  22.084  0.00  0.00    +0.048 A 
ATOM     19  C   UNL     1       1.780   3.836  21.348  0.00  0.00    +0.120 A 
ATOM     20  C   UNL     1       1.769   2.615  22.020  0.00  0.00    +0.048 A 
ATOM     21  C   UNL     1       1.720   2.581  23.420  0.00  0.00    +0.031 A 
BRANCH  19  22
ATOM     22  O   UNL     1       1.752   4.000  19.991  0.00  0.00    -0.495 OA
ATOM     23  C   UNL     1       0.471   3.971  19.378  0.00  0.00    +0.277 C 
ENDBRANCH  19  22
ENDBRANCH  14  16
ENDBRANCH  10  12
ENDBRANCH   9  10
ENDBRANCH   5   9
ENDBRANCH   4   7
ENDBRANCH   1   4
BRANCH   1  24
ATOM     24  C   UNL     1       3.293   3.666  35.024  0.00  0.00    +0.175 C 
BRANCH  24  25
ATOM     25  C   UNL     1       4.156   4.826  35.544  0.00  0.00    +0.176 C 
ATOM     26  O   UNL     1       5.514   4.621  35.068  0.00  0.00    -0.332 OA
ATOM     27  C   UNL     1       6.464   5.693  35.380  0.00  0.00    +0.277 C 
ATOM     28  C   UNL     1       6.480   5.976  36.902  0.00  0.00    +0.110 C 
ATOM     29  C   UNL     1       5.054   6.169  37.460  0.00  0.00    +0.143 C 
ATOM     30  C   UNL     1       4.150   4.998  37.074  0.00  0.00    +0.133 C 
BRANCH  30  31
ATOM     31  N   UNL     1       2.774   5.236  37.537  0.00  0.00    -0.308 N 
ATOM     32  H   UNL     1       2.250   5.979  37.097  0.00  0.00    +0.149 HD
ATOM     33  C   UNL     1       2.171   4.533  38.500  0.00  0.00    +0.210 C 
ATOM     34  C   UNL     1       3.005   3.424  39.169  0.00  0.00    +0.109 C 
ATOM     35  O   UNL     1       1.012   4.745  38.857  0.00  0.00    -0.276 OA
ENDBRANCH  30  31
BRANCH  27  36
ATOM     36  C   UNL     1       6.100   6.985  34.620  0.00  0.00    +0.414 C 
ATOM     37  O   UNL     1       5.109   7.018  33.892  0.00  0.00    -0.240 OA
ATOM     38  O   UNL     1       6.797   7.994  34.734  0.00  0.00    -0.240 OA
ENDBRANCH  27  36
BRANCH  27  39
ATOM     39  O   UNL     1       7.788   5.250  34.984  0.00  0.00    -0.343 OA
ATOM     40  C   UNL     1       7.811   4.077  34.131  0.00  0.00    +0.198 C 
ENDBRANCH  27  39
BRANCH  29  41
ATOM     41  O   UNL     1       5.104   6.275  38.884  0.00  0.00    -0.390 OA
ATOM     42  H   UNL     1       4.212   6.254  39.238  0.00  0.00    +0.210 HD
ENDBRANCH  29  41
ENDBRANCH  24  25
BRANCH  24  43
ATOM     43  O   UNL     1       3.483   2.499  35.848  0.00  0.00    -0.387 OA
ATOM     44  H   UNL     1       3.190   1.719  35.370  0.00  0.00    +0.210 HD
ENDBRANCH  24  43
ENDBRANCH   1  24
TORSDOF 15
