REMARK VINA RESULT:    -5.003     13.977     15.824
REMARK INTER + INTRA:         -12.839
REMARK INTER:                 -10.544
REMARK INTRA:                  -2.295
REMARK UNBOUND:                -3.888
REMARK  Name = lig_assembled_46.pdb
REMARK  17 active torsions:
REMARK  status: ('A' for Active; 'I' for Inactive)
REMARK    1  A    between atoms: _2  and  _9
REMARK    2  A    between atoms: _4  and  _19
REMARK    3  A    between atoms: _6  and  _7
REMARK    4  A    between atoms: _6  and  _19
REMARK    5  A    between atoms: _9  and  _10
REMARK    6  A    between atoms: _15  and  _35
REMARK    7  A    between atoms: _17  and  _23
REMARK    8  A    between atoms: _18  and  _22
REMARK    9  A    between atoms: _22  and  _23
REMARK   10  A    between atoms: _25  and  _26
REMARK   11  A    between atoms: _27  and  _28
REMARK   12  A    between atoms: _29  and  _31
REMARK   13  A    between atoms: _31  and  _32
REMARK   14  A    between atoms: _31  and  _33
REMARK   15  A    between atoms: _33  and  _34
REMARK   16  A    between atoms: _33  and  _35
REMARK   17  A    between atoms: _36  and  _38
REMARK                            x       y       z     vdW  Elec       q    Type
REMARK                         _______ _______ _______ _____ _____    ______ ____
ROOT
ATOM      1  C   UNL     1      18.517  10.745  29.114  0.00  0.00    +0.163 C 
ENDROOT
BRANCH   1   2
ATOM      2  O   UNL     1      17.159  11.063  29.462  0.00  0.00    -0.388 OA
ATOM      3  H   UNL     1      16.763  10.318  29.921  0.00  0.00    +0.210 HD
ENDBRANCH   1   2
BRANCH   1   4
ATOM      4  C   UNL     1      18.626  10.492  27.614  0.00  0.00    +0.141 C 
BRANCH   4   7
ATOM      5  C   UNL     1      20.171   8.997  26.396  0.00  0.00    +0.401 C 
ATOM      6  O   UNL     1      20.624   9.894  25.681  0.00  0.00    -0.226 OA
ATOM      7  N   UNL     1      19.230   9.187  27.322  0.00  0.00    -0.279 N 
ATOM      8  H   UNL     1      18.915   8.386  27.852  0.00  0.00    +0.152 HD
BRANCH   5   9
ATOM      9  O   UNL     1      20.666   7.665  26.237  0.00  0.00    -0.444 OA
BRANCH   9  10
ATOM     10  C   UNL     1      20.142   7.101  25.032  0.00  0.00    +0.292 C 
BRANCH  10  12
ATOM     11  N   UNL     1      18.880   5.361  26.258  0.00  0.00    -0.131 NA
ATOM     12  C   UNL     1      19.745   5.698  25.252  0.00  0.00    +0.120 A 
ATOM     13  C   UNL     1      20.083   4.562  24.549  0.00  0.00    +0.137 A 
ATOM     14  N   UNL     1      19.345   3.575  25.139  0.00  0.00    -0.247 N 
ATOM     15  N   UNL     1      18.633   4.059  26.176  0.00  0.00    -0.065 NA
BRANCH  14  16
ATOM     16  C   UNL     1      19.078   2.242  24.627  0.00  0.00    +0.180 C 
BRANCH  16  17
ATOM     17  C   UNL     1      18.277   2.232  23.349  0.00  0.00    -0.026 A 
ATOM     18  C   UNL     1      17.183   3.094  23.175  0.00  0.00    +0.005 A 
ATOM     19  C   UNL     1      16.508   3.144  21.953  0.00  0.00    +0.000 A 
ATOM     20  C   UNL     1      16.918   2.340  20.893  0.00  0.00    +0.000 A 
ATOM     21  C   UNL     1      17.997   1.474  21.055  0.00  0.00    +0.000 A 
ATOM     22  C   UNL     1      18.674   1.420  22.275  0.00  0.00    +0.005 A 
ENDBRANCH  16  17
ENDBRANCH  14  16
ENDBRANCH  10  12
ENDBRANCH   9  10
ENDBRANCH   5   9
ENDBRANCH   4   7
ENDBRANCH   1   4
BRANCH   1  23
ATOM     23  C   UNL     1      19.005   9.505  29.882  0.00  0.00    +0.175 C 
BRANCH  23  24
ATOM     24  C   UNL     1      18.153   9.223  31.128  0.00  0.00    +0.176 C 
ATOM     25  O   UNL     1      18.347  10.323  32.060  0.00  0.00    -0.332 OA
ATOM     26  C   UNL     1      17.524  10.278  33.272  0.00  0.00    +0.277 C 
ATOM     27  C   UNL     1      17.717   8.929  34.007  0.00  0.00    +0.110 C 
ATOM     28  C   UNL     1      17.551   7.730  33.050  0.00  0.00    +0.143 C 
ATOM     29  C   UNL     1      18.450   7.881  31.822  0.00  0.00    +0.133 C 
BRANCH  29  30
ATOM     30  N   UNL     1      18.220   6.777  30.876  0.00  0.00    -0.308 N 
ATOM     31  H   UNL     1      17.293   6.674  30.489  0.00  0.00    +0.149 HD
ATOM     32  C   UNL     1      19.156   5.904  30.497  0.00  0.00    +0.210 C 
ATOM     33  C   UNL     1      20.552   6.072  31.125  0.00  0.00    +0.109 C 
ATOM     34  O   UNL     1      18.939   4.998  29.691  0.00  0.00    -0.276 OA
ENDBRANCH  29  30
BRANCH  26  35
ATOM     35  C   UNL     1      16.033  10.470  32.929  0.00  0.00    +0.414 C 
ATOM     36  O   UNL     1      15.166   9.885  33.578  0.00  0.00    -0.240 OA
ATOM     37  O   UNL     1      15.695  11.210  32.003  0.00  0.00    -0.240 OA
ENDBRANCH  26  35
BRANCH  26  38
ATOM     38  O   UNL     1      17.964  11.345  34.152  0.00  0.00    -0.343 OA
ATOM     39  C   UNL     1      18.529  12.499  33.480  0.00  0.00    +0.198 C 
ENDBRANCH  26  38
BRANCH  28  40
ATOM     40  O   UNL     1      17.885   6.520  33.731  0.00  0.00    -0.390 OA
ATOM     41  H   UNL     1      18.014   6.703  34.664  0.00  0.00    +0.210 HD
ENDBRANCH  28  40
ENDBRANCH  23  24
BRANCH  23  42
ATOM     42  O   UNL     1      20.390   9.663  30.252  0.00  0.00    -0.387 OA
ATOM     43  H   UNL     1      20.949   9.442  29.503  0.00  0.00    +0.210 HD
ENDBRANCH  23  42
ENDBRANCH   1  23
TORSDOF 15
