REMARK VINA RESULT:    -6.107     20.844     24.277
REMARK INTER + INTRA:         -12.484
REMARK INTER:                  -9.938
REMARK INTRA:                  -2.546
REMARK UNBOUND:                -1.914
REMARK  Name = lig_assembled_56.pdb
REMARK  16 active torsions:
REMARK  status: ('A' for Active; 'I' for Inactive)
REMARK    1  A    between atoms: _2  and  _10
REMARK    2  A    between atoms: _5  and  _18
REMARK    3  A    between atoms: _7  and  _8
REMARK    4  A    between atoms: _7  and  _18
REMARK    5  A    between atoms: _14  and  _34
REMARK    6  A    between atoms: _16  and  _22
REMARK    7  A    between atoms: _17  and  _21
REMARK    8  A    between atoms: _21  and  _22
REMARK    9  A    between atoms: _24  and  _25
REMARK   10  A    between atoms: _26  and  _27
REMARK   11  A    between atoms: _28  and  _30
REMARK   12  A    between atoms: _30  and  _31
REMARK   13  A    between atoms: _30  and  _32
REMARK   14  A    between atoms: _32  and  _33
REMARK   15  A    between atoms: _32  and  _34
REMARK   16  A    between atoms: _35  and  _37
REMARK                            x       y       z     vdW  Elec       q    Type
REMARK                         _______ _______ _______ _____ _____    ______ ____
ROOT
ATOM      1  C   UNL     1      17.052   1.713  22.261  0.00  0.00    +0.163 C 
ENDROOT
BRANCH   1   2
ATOM      2  O   UNL     1      17.821   0.972  21.299  0.00  0.00    -0.388 OA
ATOM      3  H   UNL     1      18.538   1.520  20.971  0.00  0.00    +0.210 HD
ENDBRANCH   1   2
BRANCH   1   4
ATOM      4  C   UNL     1      16.902   3.161  21.805  0.00  0.00    +0.141 C 
BRANCH   4   7
ATOM      5  C   UNL     1      17.544   5.326  22.809  0.00  0.00    +0.401 C 
ATOM      6  O   UNL     1      16.487   5.885  22.509  0.00  0.00    -0.226 OA
ATOM      7  N   UNL     1      17.825   4.056  22.514  0.00  0.00    -0.279 N 
ATOM      8  H   UNL     1      18.724   3.689  22.794  0.00  0.00    +0.152 HD
BRANCH   5   9
ATOM      9  O   UNL     1      18.546   6.065  23.512  0.00  0.00    -0.444 OA
BRANCH   9  10
ATOM     10  C   UNL     1      18.998   5.306  24.637  0.00  0.00    +0.292 C 
BRANCH  10  12
ATOM     11  N   UNL     1      18.802   5.583  27.088  0.00  0.00    -0.131 NA
ATOM     12  C   UNL     1      18.986   6.138  25.855  0.00  0.00    +0.121 A 
ATOM     13  C   UNL     1      19.144   7.499  25.994  0.00  0.00    +0.143 A 
ATOM     14  N   UNL     1      19.066   7.729  27.348  0.00  0.00    -0.220 N 
ATOM     15  N   UNL     1      18.849   6.554  27.989  0.00  0.00    -0.060 NA
BRANCH  14  16
ATOM     16  C   UNL     1      19.192   8.953  28.050  0.00  0.00    +0.070 A 
ATOM     17  C   UNL     1      18.782  10.158  27.475  0.00  0.00    +0.047 A 
ATOM     18  C   UNL     1      18.950  11.320  28.212  0.00  0.00    +0.113 A 
ATOM     19  N   UNL     1      19.483  11.355  29.451  0.00  0.00    -0.263 NA
ATOM     20  C   UNL     1      19.868  10.177  29.984  0.00  0.00    +0.113 A 
ATOM     21  C   UNL     1      19.745   8.961  29.335  0.00  0.00    +0.047 A 
ENDBRANCH  14  16
ENDBRANCH  10  12
ENDBRANCH   9  10
ENDBRANCH   5   9
ENDBRANCH   4   7
ENDBRANCH   1   4
BRANCH   1  22
ATOM     22  C   UNL     1      17.721   1.677  23.645  0.00  0.00    +0.175 C 
BRANCH  22  23
ATOM     23  C   UNL     1      18.223   0.271  24.008  0.00  0.00    +0.176 C 
ATOM     24  O   UNL     1      17.185  -0.681  23.648  0.00  0.00    -0.332 OA
ATOM     25  C   UNL     1      17.531  -2.094  23.827  0.00  0.00    +0.277 C 
ATOM     26  C   UNL     1      18.002  -2.357  25.278  0.00  0.00    +0.110 C 
ATOM     27  C   UNL     1      19.084  -1.349  25.717  0.00  0.00    +0.143 C 
ATOM     28  C   UNL     1      18.620   0.090  25.485  0.00  0.00    +0.133 C 
BRANCH  28  29
ATOM     29  N   UNL     1      19.692   1.038  25.825  0.00  0.00    -0.308 N 
ATOM     30  H   UNL     1      20.519   1.044  25.244  0.00  0.00    +0.149 HD
ATOM     31  C   UNL     1      19.645   1.892  26.852  0.00  0.00    +0.210 C 
ATOM     32  C   UNL     1      18.383   1.839  27.734  0.00  0.00    +0.109 C 
ATOM     33  O   UNL     1      20.552   2.685  27.105  0.00  0.00    -0.276 OA
ENDBRANCH  28  29
BRANCH  25  34
ATOM     34  C   UNL     1      18.641  -2.514  22.841  0.00  0.00    +0.414 C 
ATOM     35  O   UNL     1      19.345  -3.495  23.080  0.00  0.00    -0.240 OA
ATOM     36  O   UNL     1      18.833  -1.873  21.807  0.00  0.00    -0.240 OA
ENDBRANCH  25  34
BRANCH  27  37
ATOM     37  O   UNL     1      19.378  -1.530  27.103  0.00  0.00    -0.390 OA
ATOM     38  H   UNL     1      18.954  -0.838  27.614  0.00  0.00    +0.210 HD
ENDBRANCH  27  37
BRANCH  25  39
ATOM     39  O   UNL     1      16.338  -2.883  23.583  0.00  0.00    -0.343 OA
ATOM     40  C   UNL     1      15.529  -3.148  24.757  0.00  0.00    +0.198 C 
ENDBRANCH  25  39
ENDBRANCH  22  23
BRANCH  22  41
ATOM     41  O   UNL     1      16.805   2.152  24.652  0.00  0.00    -0.387 OA
ATOM     42  H   UNL     1      15.944   2.303  24.256  0.00  0.00    +0.210 HD
ENDBRANCH  22  41
ENDBRANCH   1  22
TORSDOF 14
