REMARK VINA RESULT:    -6.204     14.246     19.759
REMARK INTER + INTRA:         -14.431
REMARK INTER:                 -11.746
REMARK INTRA:                  -2.685
REMARK UNBOUND:                -2.243
REMARK  Name = lig_assembled_31.pdb
REMARK  20 active torsions:
REMARK  status: ('A' for Active; 'I' for Inactive)
REMARK    1  A    between atoms: _2  and  _11
REMARK    2  A    between atoms: _3  and  _12
REMARK    3  A    between atoms: _4  and  _14
REMARK    4  A    between atoms: _6  and  _24
REMARK    5  A    between atoms: _8  and  _9
REMARK    6  A    between atoms: _8  and  _24
REMARK    7  A    between atoms: _11  and  _12
REMARK    8  A    between atoms: _14  and  _15
REMARK    9  A    between atoms: _20  and  _40
REMARK   10  A    between atoms: _22  and  _28
REMARK   11  A    between atoms: _23  and  _27
REMARK   12  A    between atoms: _27  and  _28
REMARK   13  A    between atoms: _30  and  _31
REMARK   14  A    between atoms: _32  and  _33
REMARK   15  A    between atoms: _34  and  _36
REMARK   16  A    between atoms: _36  and  _37
REMARK   17  A    between atoms: _36  and  _38
REMARK   18  A    between atoms: _38  and  _39
REMARK   19  A    between atoms: _38  and  _40
REMARK   20  A    between atoms: _41  and  _43
REMARK                            x       y       z     vdW  Elec       q    Type
REMARK                         _______ _______ _______ _____ _____    ______ ____
ROOT
ATOM      1  C   UNL     1      16.841  22.017  22.107  0.00  0.00    +0.401 C 
ATOM      2  O   UNL     1      15.864  21.271  22.198  0.00  0.00    -0.226 OA
ATOM      3  N   UNL     1      16.818  23.207  21.504  0.00  0.00    -0.279 N 
ATOM      4  H   UNL     1      17.669  23.751  21.489  0.00  0.00    +0.152 HD
ENDROOT
BRANCH   1   5
ATOM      5  O   UNL     1      18.085  21.605  22.679  0.00  0.00    -0.444 OA
BRANCH   5   6
ATOM      6  C   UNL     1      19.127  21.747  21.710  0.00  0.00    +0.292 C 
BRANCH   6   8
ATOM      7  N   UNL     1      18.861  19.326  21.271  0.00  0.00    -0.131 NA
ATOM      8  C   UNL     1      19.673  20.425  21.342  0.00  0.00    +0.120 A 
ATOM      9  C   UNL     1      20.962  20.054  21.029  0.00  0.00    +0.137 A 
ATOM     10  N   UNL     1      20.867  18.716  20.788  0.00  0.00    -0.250 N 
ATOM     11  N   UNL     1      19.604  18.281  20.928  0.00  0.00    -0.065 NA
BRANCH  10  12
ATOM     12  C   UNL     1      21.925  17.794  20.427  0.00  0.00    +0.164 C 
BRANCH  12  13
ATOM     13  C   UNL     1      22.381  16.976  21.625  0.00  0.00    +0.129 C 
BRANCH  13  14
ATOM     14  N   UNL     1      21.313  16.581  22.534  0.00  0.00    -0.298 N 
ATOM     15  H   UNL     1      20.347  16.620  22.243  0.00  0.00    +0.150 HD
ATOM     16  C   UNL     1      21.575  16.572  23.879  0.00  0.00    +0.300 C 
ATOM     17  O   UNL     1      22.693  16.785  24.339  0.00  0.00    -0.253 OA
ATOM     18  N   UNL     1      20.499  16.279  24.659  0.00  0.00    -0.292 N 
ATOM     19  H   UNL     1      19.571  16.145  24.282  0.00  0.00    +0.151 HD
BRANCH  18  20
ATOM     20  C   UNL     1      20.675  16.238  26.092  0.00  0.00    +0.180 C 
BRANCH  20  21
ATOM     21  C   UNL     1      20.484  17.557  26.746  0.00  0.00    +0.122 A 
ATOM     22  O   UNL     1      19.818  18.543  26.072  0.00  0.00    -0.466 OA
ATOM     23  C   UNL     1      19.787  19.628  26.894  0.00  0.00    +0.195 A 
ATOM     24  C   UNL     1      20.425  19.358  28.082  0.00  0.00    +0.041 A 
ATOM     25  C   UNL     1      20.876  18.021  27.988  0.00  0.00    +0.046 A 
ENDBRANCH  20  21
ENDBRANCH  18  20
ENDBRANCH  13  14
ENDBRANCH  12  13
ENDBRANCH  10  12
ENDBRANCH   6   8
ENDBRANCH   5   6
ENDBRANCH   1   5
BRANCH   3  26
ATOM     26  C   UNL     1      15.624  23.770  20.861  0.00  0.00    +0.141 C 
BRANCH  26  27
ATOM     27  C   UNL     1      15.746  23.774  19.340  0.00  0.00    +0.163 C 
BRANCH  27  28
ATOM     28  O   UNL     1      17.124  23.634  18.957  0.00  0.00    -0.388 OA
ATOM     29  H   UNL     1      17.504  22.871  19.400  0.00  0.00    +0.210 HD
ENDBRANCH  27  28
BRANCH  27  30
ATOM     30  C   UNL     1      14.894  22.635  18.754  0.00  0.00    +0.175 C 
BRANCH  30  31
ATOM     31  C   UNL     1      13.969  23.125  17.631  0.00  0.00    +0.176 C 
ATOM     32  O   UNL     1      14.790  23.398  16.462  0.00  0.00    -0.332 OA
ATOM     33  C   UNL     1      14.060  23.779  15.249  0.00  0.00    +0.277 C 
ATOM     34  C   UNL     1      13.133  24.987  15.532  0.00  0.00    +0.110 C 
ATOM     35  C   UNL     1      12.263  24.756  16.785  0.00  0.00    +0.143 C 
ATOM     36  C   UNL     1      13.124  24.362  17.986  0.00  0.00    +0.133 C 
BRANCH  36  37
ATOM     37  N   UNL     1      12.276  24.061  19.150  0.00  0.00    -0.308 N 
ATOM     38  H   UNL     1      11.754  23.196  19.142  0.00  0.00    +0.149 HD
ATOM     39  C   UNL     1      12.153  24.855  20.217  0.00  0.00    +0.210 C 
ATOM     40  C   UNL     1      12.942  26.177  20.188  0.00  0.00    +0.109 C 
ATOM     41  O   UNL     1      11.447  24.570  21.185  0.00  0.00    -0.276 OA
ENDBRANCH  36  37
BRANCH  33  42
ATOM     42  C   UNL     1      13.219  22.596  14.723  0.00  0.00    +0.414 C 
ATOM     43  O   UNL     1      13.743  21.500  14.531  0.00  0.00    -0.240 OA
ATOM     44  O   UNL     1      12.018  22.739  14.491  0.00  0.00    -0.240 OA
ENDBRANCH  33  42
BRANCH  35  45
ATOM     45  O   UNL     1      11.539  25.948  17.095  0.00  0.00    -0.390 OA
ATOM     46  H   UNL     1      11.921  26.688  16.617  0.00  0.00    +0.210 HD
ENDBRANCH  35  45
BRANCH  33  47
ATOM     47  O   UNL     1      15.031  24.172  14.245  0.00  0.00    -0.343 OA
ATOM     48  C   UNL     1      14.565  25.167  13.299  0.00  0.00    +0.198 C 
ENDBRANCH  33  47
ENDBRANCH  30  31
BRANCH  30  49
ATOM     49  O   UNL     1      14.121  22.006  19.795  0.00  0.00    -0.387 OA
ATOM     50  H   UNL     1      14.291  22.447  20.631  0.00  0.00    +0.210 HD
ENDBRANCH  30  49
ENDBRANCH  27  30
ENDBRANCH  26  27
ENDBRANCH   3  26
TORSDOF 18
