REMARK VINA RESULT:    -5.667     12.140     14.903
REMARK INTER + INTRA:         -14.007
REMARK INTER:                 -12.179
REMARK INTRA:                  -1.828
REMARK UNBOUND:                -3.868
REMARK  Name = lig_assembled_85.pdb
REMARK  19 active torsions:
REMARK  status: ('A' for Active; 'I' for Inactive)
REMARK    1  A    between atoms: _2  and  _10
REMARK    2  A    between atoms: _3  and  _6
REMARK    3  A    between atoms: _3  and  _17
REMARK    4  A    between atoms: _5  and  _23
REMARK    5  A    between atoms: _7  and  _8
REMARK    6  A    between atoms: _7  and  _23
REMARK    7  A    between atoms: _15  and  _16
REMARK    8  A    between atoms: _19  and  _39
REMARK    9  A    between atoms: _21  and  _27
REMARK   10  A    between atoms: _22  and  _26
REMARK   11  A    between atoms: _26  and  _27
REMARK   12  A    between atoms: _29  and  _30
REMARK   13  A    between atoms: _31  and  _32
REMARK   14  A    between atoms: _33  and  _35
REMARK   15  A    between atoms: _35  and  _36
REMARK   16  A    between atoms: _35  and  _37
REMARK   17  A    between atoms: _37  and  _38
REMARK   18  A    between atoms: _37  and  _39
REMARK   19  A    between atoms: _40  and  _42
REMARK                            x       y       z     vdW  Elec       q    Type
REMARK                         _______ _______ _______ _____ _____    ______ ____
ROOT
ATOM      1  C   UNL     1       7.891   1.325  33.212  0.00  0.00    +0.141 C 
ENDROOT
BRANCH   1   4
ATOM      2  C   UNL     1       6.389  -0.580  33.681  0.00  0.00    +0.401 C 
ATOM      3  O   UNL     1       6.852  -0.790  34.804  0.00  0.00    -0.226 OA
ATOM      4  N   UNL     1       6.819   0.383  32.865  0.00  0.00    -0.279 N 
ATOM      5  H   UNL     1       6.383   0.471  31.958  0.00  0.00    +0.152 HD
BRANCH   2   6
ATOM      6  O   UNL     1       5.329  -1.411  33.200  0.00  0.00    -0.444 OA
BRANCH   6   7
ATOM      7  C   UNL     1       5.878  -2.507  32.462  0.00  0.00    +0.292 C 
BRANCH   7   9
ATOM      8  N   UNL     1       7.152  -1.713  30.502  0.00  0.00    -0.131 NA
ATOM      9  C   UNL     1       5.976  -2.161  31.034  0.00  0.00    +0.121 A 
ATOM     10  C   UNL     1       5.034  -2.261  30.036  0.00  0.00    +0.143 A 
ATOM     11  N   UNL     1       5.690  -1.863  28.897  0.00  0.00    -0.219 N 
ATOM     12  N   UNL     1       6.975  -1.561  29.198  0.00  0.00    -0.060 NA
BRANCH  11  13
ATOM     13  C   UNL     1       5.237  -1.836  27.560  0.00  0.00    +0.080 A 
ATOM     14  C   UNL     1       5.984  -2.297  26.465  0.00  0.00    +0.062 A 
ATOM     15  C   UNL     1       5.514  -1.979  25.169  0.00  0.00    +0.016 A 
ATOM     16  C   UNL     1       4.336  -1.253  24.966  0.00  0.00    +0.021 A 
ATOM     17  C   UNL     1       3.575  -0.870  26.060  0.00  0.00    +0.043 A 
ATOM     18 CL   UNL     1       2.142   0.053  25.832  0.00  0.00    -0.083 Cl
ATOM     19  C   UNL     1       4.002  -1.180  27.348  0.00  0.00    +0.048 A 
BRANCH  14  20
ATOM     20  C   UNL     1       7.284  -3.032  26.467  0.00  0.00    +0.248 C 
ATOM     21  O   UNL     1       8.251  -2.383  26.062  0.00  0.00    -0.270 OA
ATOM     22  N   UNL     1       7.419  -4.377  26.831  0.00  0.00    -0.304 N 
ATOM     23  C   UNL     1       6.421  -5.241  27.446  0.00  0.00    +0.132 C 
ATOM     24  C   UNL     1       8.766  -4.934  26.762  0.00  0.00    +0.132 C 
ENDBRANCH  14  20
ENDBRANCH  11  13
ENDBRANCH   7   9
ENDBRANCH   6   7
ENDBRANCH   2   6
ENDBRANCH   1   4
BRANCH   1  25
ATOM     25  C   UNL     1       7.402   2.424  34.149  0.00  0.00    +0.163 C 
BRANCH  25  26
ATOM     26  O   UNL     1       7.980   2.252  35.453  0.00  0.00    -0.388 OA
ATOM     27  H   UNL     1       7.282   2.208  36.110  0.00  0.00    +0.210 HD
ENDBRANCH  25  26
BRANCH  25  28
ATOM     28  C   UNL     1       7.766   3.799  33.563  0.00  0.00    +0.175 C 
BRANCH  28  29
ATOM     29  C   UNL     1       7.119   4.951  34.346  0.00  0.00    +0.176 C 
ATOM     30  O   UNL     1       7.860   5.120  35.586  0.00  0.00    -0.332 OA
ATOM     31  C   UNL     1       7.448   6.252  36.421  0.00  0.00    +0.277 C 
ATOM     32  C   UNL     1       5.931   6.177  36.723  0.00  0.00    +0.110 C 
ATOM     33  C   UNL     1       5.104   5.966  35.438  0.00  0.00    +0.143 C 
ATOM     34  C   UNL     1       5.620   4.765  34.645  0.00  0.00    +0.133 C 
BRANCH  34  35
ATOM     35  N   UNL     1       4.881   4.626  33.380  0.00  0.00    -0.308 N 
ATOM     36  H   UNL     1       5.031   5.325  32.667  0.00  0.00    +0.149 HD
ATOM     37  C   UNL     1       4.024   3.636  33.114  0.00  0.00    +0.210 C 
ATOM     38  C   UNL     1       3.797   2.601  34.232  0.00  0.00    +0.109 C 
ATOM     39  O   UNL     1       3.429   3.537  32.040  0.00  0.00    -0.276 OA
ENDBRANCH  34  35
BRANCH  31  40
ATOM     40  C   UNL     1       7.769   7.591  35.725  0.00  0.00    +0.414 C 
ATOM     41  O   UNL     1       8.038   8.588  36.393  0.00  0.00    -0.240 OA
ATOM     42  O   UNL     1       7.760   7.674  34.496  0.00  0.00    -0.240 OA
ENDBRANCH  31  40
BRANCH  33  43
ATOM     43  O   UNL     1       3.733   5.752  35.777  0.00  0.00    -0.390 OA
ATOM     44  H   UNL     1       3.675   5.111  36.489  0.00  0.00    +0.210 HD
ENDBRANCH  33  43
BRANCH  31  45
ATOM     45  O   UNL     1       8.169   6.169  37.677  0.00  0.00    -0.343 OA
ATOM     46  C   UNL     1       9.482   5.561  37.590  0.00  0.00    +0.198 C 
ENDBRANCH  31  45
ENDBRANCH  28  29
BRANCH  28  47
ATOM     47  O   UNL     1       7.383   3.865  32.175  0.00  0.00    -0.387 OA
ATOM     48  H   UNL     1       8.169   3.940  31.628  0.00  0.00    +0.210 HD
ENDBRANCH  28  47
ENDBRANCH  25  28
ENDBRANCH   1  25
TORSDOF 15
