REMARK VINA RESULT:    -6.622      7.805     13.407
REMARK INTER + INTRA:         -13.313
REMARK INTER:                 -10.996
REMARK INTRA:                  -2.317
REMARK UNBOUND:                -1.853
REMARK  Name = lig_assembled_86.pdb
REMARK  17 active torsions:
REMARK  status: ('A' for Active; 'I' for Inactive)
REMARK    1  A    between atoms: _2  and  _10
REMARK    2  A    between atoms: _3  and  _13
REMARK    3  A    between atoms: _5  and  _21
REMARK    4  A    between atoms: _7  and  _8
REMARK    5  A    between atoms: _7  and  _21
REMARK    6  A    between atoms: _17  and  _37
REMARK    7  A    between atoms: _19  and  _25
REMARK    8  A    between atoms: _20  and  _24
REMARK    9  A    between atoms: _24  and  _25
REMARK   10  A    between atoms: _27  and  _28
REMARK   11  A    between atoms: _29  and  _30
REMARK   12  A    between atoms: _31  and  _33
REMARK   13  A    between atoms: _33  and  _34
REMARK   14  A    between atoms: _33  and  _35
REMARK   15  A    between atoms: _35  and  _36
REMARK   16  A    between atoms: _35  and  _37
REMARK   17  A    between atoms: _38  and  _40
REMARK                            x       y       z     vdW  Elec       q    Type
REMARK                         _______ _______ _______ _____ _____    ______ ____
ROOT
ATOM      1  C   UNL     1       9.757   2.957  34.770  0.00  0.00    +0.163 C 
ENDROOT
BRANCH   1   2
ATOM      2  O   UNL     1       9.527   2.007  33.716  0.00  0.00    -0.388 OA
ATOM      3  H   UNL     1      10.345   1.545  33.517  0.00  0.00    +0.210 HD
ENDBRANCH   1   2
BRANCH   1   4
ATOM      4  C   UNL     1      10.927   2.503  35.636  0.00  0.00    +0.141 C 
BRANCH   4   7
ATOM      5  C   UNL     1      12.088   4.107  37.114  0.00  0.00    +0.401 C 
ATOM      6  O   UNL     1      11.517   3.723  38.137  0.00  0.00    -0.226 OA
ATOM      7  N   UNL     1      11.869   3.598  35.901  0.00  0.00    -0.279 N 
ATOM      8  H   UNL     1      12.379   3.986  35.121  0.00  0.00    +0.152 HD
BRANCH   5   9
ATOM      9  O   UNL     1      13.045   5.166  37.209  0.00  0.00    -0.444 OA
BRANCH   9  10
ATOM     10  C   UNL     1      14.341   4.671  36.863  0.00  0.00    +0.292 C 
BRANCH  10  12
ATOM     11  N   UNL     1      14.564   4.750  34.395  0.00  0.00    -0.131 NA
ATOM     12  C   UNL     1      14.815   5.308  35.621  0.00  0.00    +0.120 A 
ATOM     13  C   UNL     1      15.519   6.477  35.443  0.00  0.00    +0.137 A 
ATOM     14  N   UNL     1      15.632   6.593  34.091  0.00  0.00    -0.248 N 
ATOM     15  N   UNL     1      15.085   5.538  33.463  0.00  0.00    -0.065 NA
BRANCH  14  16
ATOM     16  C   UNL     1      16.241   7.685  33.348  0.00  0.00    +0.112 C 
ATOM     17  C   UNL     1      15.313   8.915  33.272  0.00  0.00    +0.045 C 
ATOM     18  C   UNL     1      15.998  10.251  33.576  0.00  0.00    +0.059 C 
ATOM     19  C   UNL     1      16.228  10.424  35.081  0.00  0.00    +0.020 C 
ATOM     20  C   UNL     1      17.646   9.911  35.315  0.00  0.00    +0.020 C 
ATOM     21  C   UNL     1      18.101   9.402  33.945  0.00  0.00    +0.059 C 
ATOM     22  N   UNL     1      17.367  10.314  33.067  0.00  0.00    -0.299 NA
ATOM     23  C   UNL     1      17.545  10.119  31.641  0.00  0.00    +0.105 C 
ATOM     24  C   UNL     1      17.716   7.931  33.740  0.00  0.00    +0.045 C 
ENDBRANCH  14  16
ENDBRANCH  10  12
ENDBRANCH   9  10
ENDBRANCH   5   9
ENDBRANCH   4   7
ENDBRANCH   1   4
BRANCH   1  25
ATOM     25  C   UNL     1       8.502   3.122  35.645  0.00  0.00    +0.175 C 
BRANCH  25  26
ATOM     26  C   UNL     1       7.718   4.395  35.298  0.00  0.00    +0.176 C 
ATOM     27  O   UNL     1       7.485   5.128  36.532  0.00  0.00    -0.332 OA
ATOM     28  C   UNL     1       6.836   6.433  36.382  0.00  0.00    +0.277 C 
ATOM     29  C   UNL     1       5.507   6.291  35.599  0.00  0.00    +0.110 C 
ATOM     30  C   UNL     1       5.699   5.491  34.293  0.00  0.00    +0.143 C 
ATOM     31  C   UNL     1       6.385   4.152  34.565  0.00  0.00    +0.133 C 
BRANCH  31  32
ATOM     32  N   UNL     1       6.641   3.438  33.304  0.00  0.00    -0.308 N 
ATOM     33  H   UNL     1       7.304   3.844  32.658  0.00  0.00    +0.149 HD
ATOM     34  C   UNL     1       6.054   2.289  32.957  0.00  0.00    +0.210 C 
ATOM     35  C   UNL     1       5.030   1.710  33.952  0.00  0.00    +0.109 C 
ATOM     36  O   UNL     1       6.299   1.706  31.901  0.00  0.00    -0.276 OA
ENDBRANCH  31  32
BRANCH  28  37
ATOM     37  C   UNL     1       7.763   7.424  35.647  0.00  0.00    +0.414 C 
ATOM     38  O   UNL     1       8.958   7.485  35.935  0.00  0.00    -0.240 OA
ATOM     39  O   UNL     1       7.317   8.161  34.767  0.00  0.00    -0.240 OA
ENDBRANCH  28  37
BRANCH  30  40
ATOM     40  O   UNL     1       4.430   5.254  33.682  0.00  0.00    -0.390 OA
ATOM     41  H   UNL     1       3.898   4.698  34.256  0.00  0.00    +0.210 HD
ENDBRANCH  30  40
BRANCH  28  42
ATOM     42  O   UNL     1       6.533   6.940  37.707  0.00  0.00    -0.343 OA
ATOM     43  C   UNL     1       5.513   6.201  38.427  0.00  0.00    +0.198 C 
ENDBRANCH  28  42
ENDBRANCH  25  26
BRANCH  25  44
ATOM     44  O   UNL     1       8.868   3.128  37.040  0.00  0.00    -0.387 OA
ATOM     45  H   UNL     1       9.401   2.354  37.235  0.00  0.00    +0.210 HD
ENDBRANCH  25  44
ENDBRANCH   1  25
TORSDOF 14
