REMARK VINA RESULT:    -6.472      2.290      3.885
REMARK INTER + INTRA:         -13.914
REMARK INTER:                 -12.152
REMARK INTRA:                  -1.762
REMARK UNBOUND:                -1.955
REMARK  Name = lig_assembled_78.pdb
REMARK  18 active torsions:
REMARK  status: ('A' for Active; 'I' for Inactive)
REMARK    1  A    between atoms: _2  and  _9
REMARK    2  A    between atoms: _4  and  _21
REMARK    3  A    between atoms: _6  and  _7
REMARK    4  A    between atoms: _6  and  _21
REMARK    5  A    between atoms: _9  and  _41
REMARK    6  A    between atoms: _10  and  _41
REMARK    7  A    between atoms: _17  and  _37
REMARK    8  A    between atoms: _19  and  _25
REMARK    9  A    between atoms: _20  and  _24
REMARK   10  A    between atoms: _24  and  _25
REMARK   11  A    between atoms: _27  and  _28
REMARK   12  A    between atoms: _29  and  _30
REMARK   13  A    between atoms: _31  and  _33
REMARK   14  A    between atoms: _33  and  _34
REMARK   15  A    between atoms: _33  and  _35
REMARK   16  A    between atoms: _35  and  _36
REMARK   17  A    between atoms: _35  and  _37
REMARK   18  A    between atoms: _38  and  _40
REMARK                            x       y       z     vdW  Elec       q    Type
REMARK                         _______ _______ _______ _____ _____    ______ ____
ROOT
ATOM      1  C   UNL     1       7.287   2.496  34.336  0.00  0.00    +0.163 C 
ENDROOT
BRANCH   1   2
ATOM      2  O   UNL     1       7.782   2.276  35.667  0.00  0.00    -0.388 OA
ATOM      3  H   UNL     1       8.442   1.579  35.652  0.00  0.00    +0.210 HD
ENDBRANCH   1   2
BRANCH   1   4
ATOM      4  C   UNL     1       7.751   3.859  33.794  0.00  0.00    +0.175 C 
BRANCH   4   5
ATOM      5  C   UNL     1       7.185   5.029  34.611  0.00  0.00    +0.176 C 
ATOM      6  O   UNL     1       7.937   5.113  35.853  0.00  0.00    -0.332 OA
ATOM      7  C   UNL     1       7.603   6.246  36.721  0.00  0.00    +0.277 C 
ATOM      8  C   UNL     1       6.085   6.265  37.026  0.00  0.00    +0.110 C 
ATOM      9  C   UNL     1       5.243   6.146  35.738  0.00  0.00    +0.143 C 
ATOM     10  C   UNL     1       5.677   4.936  34.909  0.00  0.00    +0.133 C 
BRANCH  10  11
ATOM     11  N   UNL     1       4.928   4.883  33.644  0.00  0.00    -0.308 N 
ATOM     12  H   UNL     1       5.143   5.575  32.939  0.00  0.00    +0.149 HD
ATOM     13  C   UNL     1       3.982   3.982  33.366  0.00  0.00    +0.210 C 
ATOM     14  C   UNL     1       3.659   2.958  34.470  0.00  0.00    +0.109 C 
ATOM     15  O   UNL     1       3.381   3.953  32.291  0.00  0.00    -0.276 OA
ENDBRANCH  10  11
BRANCH   7  16
ATOM     16  C   UNL     1       8.013   7.579  36.062  0.00  0.00    +0.414 C 
ATOM     17  O   UNL     1       8.115   7.661  34.839  0.00  0.00    -0.240 OA
ATOM     18  O   UNL     1       8.242   8.573  36.753  0.00  0.00    -0.240 OA
ENDBRANCH   7  16
BRANCH   7  19
ATOM     19  O   UNL     1       8.318   6.079  37.972  0.00  0.00    -0.343 OA
ATOM     20  C   UNL     1       9.149   4.893  38.049  0.00  0.00    +0.198 C 
ENDBRANCH   7  19
BRANCH   9  21
ATOM     21  O   UNL     1       3.862   6.015  36.075  0.00  0.00    -0.390 OA
ATOM     22  H   UNL     1       3.363   6.725  35.664  0.00  0.00    +0.210 HD
ENDBRANCH   9  21
ENDBRANCH   4   5
BRANCH   4  23
ATOM     23  O   UNL     1       7.380   3.995  32.408  0.00  0.00    -0.387 OA
ATOM     24  H   UNL     1       7.621   3.197  31.932  0.00  0.00    +0.210 HD
ENDBRANCH   4  23
ENDBRANCH   1   4
BRANCH   1  25
ATOM     25  C   UNL     1       7.774   1.387  33.409  0.00  0.00    +0.141 C 
BRANCH  25  28
ATOM     26  C   UNL     1       6.088  -0.174  32.498  0.00  0.00    +0.401 C 
ATOM     27  O   UNL     1       6.288  -1.038  33.355  0.00  0.00    -0.226 OA
ATOM     28  N   UNL     1       6.741   0.988  32.444  0.00  0.00    -0.279 N 
ATOM     29  H   UNL     1       6.513   1.629  31.697  0.00  0.00    +0.152 HD
BRANCH  26  30
ATOM     30  O   UNL     1       5.103  -0.411  31.489  0.00  0.00    -0.444 OA
BRANCH  30  31
ATOM     31  C   UNL     1       4.078   0.583  31.579  0.00  0.00    +0.292 C 
BRANCH  31  33
ATOM     32  N   UNL     1       3.585  -0.198  29.279  0.00  0.00    -0.131 NA
ATOM     33  C   UNL     1       3.341   0.676  30.305  0.00  0.00    +0.120 A 
ATOM     34  C   UNL     1       2.360   1.561  29.917  0.00  0.00    +0.139 A 
ATOM     35  N   UNL     1       2.007   1.135  28.671  0.00  0.00    -0.230 N 
ATOM     36  N   UNL     1       2.776   0.107  28.273  0.00  0.00    -0.064 NA
BRANCH  35  37
ATOM     37  C   UNL     1       1.024   1.688  27.774  0.00  0.00    +0.316 C 
BRANCH  37  38
ATOM     38  S   UNL     1       1.300   3.397  27.385  0.00  0.00    +0.017 S 
ATOM     39  O   UNL     1       0.090   4.159  27.617  0.00  0.00    -0.168 OA
ATOM     40  O   UNL     1       2.559   3.795  27.990  0.00  0.00    -0.168 OA
BRANCH  38  41
ATOM     41  C   UNL     1       1.548   3.407  25.621  0.00  0.00    +0.090 A 
ATOM     42  C   UNL     1       2.020   2.250  24.992  0.00  0.00    +0.027 A 
ATOM     43  C   UNL     1       2.191   2.245  23.609  0.00  0.00    +0.002 A 
ATOM     44  C   UNL     1       1.874   3.380  22.860  0.00  0.00    +0.000 A 
ATOM     45  C   UNL     1       1.384   4.524  23.491  0.00  0.00    +0.002 A 
ATOM     46  C   UNL     1       1.219   4.543  24.877  0.00  0.00    +0.027 A 
ENDBRANCH  38  41
ENDBRANCH  37  38
ENDBRANCH  35  37
ENDBRANCH  31  33
ENDBRANCH  30  31
ENDBRANCH  26  30
ENDBRANCH  25  28
ENDBRANCH   1  25
TORSDOF 16
