REMARK VINA RESULT:    -6.825      4.903      6.154
REMARK INTER + INTRA:         -13.844
REMARK INTER:                 -11.754
REMARK INTRA:                  -2.090
REMARK UNBOUND:                -2.031
REMARK  Name = lig_assembled_42.pdb
REMARK  16 active torsions:
REMARK  status: ('A' for Active; 'I' for Inactive)
REMARK    1  A    between atoms: _2  and  _9
REMARK    2  A    between atoms: _4  and  _21
REMARK    3  A    between atoms: _6  and  _7
REMARK    4  A    between atoms: _6  and  _21
REMARK    5  A    between atoms: _17  and  _37
REMARK    6  A    between atoms: _19  and  _25
REMARK    7  A    between atoms: _20  and  _24
REMARK    8  A    between atoms: _24  and  _25
REMARK    9  A    between atoms: _27  and  _28
REMARK   10  A    between atoms: _29  and  _30
REMARK   11  A    between atoms: _31  and  _33
REMARK   12  A    between atoms: _33  and  _34
REMARK   13  A    between atoms: _33  and  _35
REMARK   14  A    between atoms: _35  and  _36
REMARK   15  A    between atoms: _35  and  _37
REMARK   16  A    between atoms: _38  and  _40
REMARK                            x       y       z     vdW  Elec       q    Type
REMARK                         _______ _______ _______ _____ _____    ______ ____
ROOT
ATOM      1  C   UNL     1       7.680   2.318  34.134  0.00  0.00    +0.163 C 
ENDROOT
BRANCH   1   2
ATOM      2  O   UNL     1       8.384   2.487  35.376  0.00  0.00    -0.388 OA
ATOM      3  H   UNL     1       9.317   2.627  35.199  0.00  0.00    +0.210 HD
ENDBRANCH   1   2
BRANCH   1   4
ATOM      4  C   UNL     1       8.293   1.171  33.339  0.00  0.00    +0.141 C 
BRANCH   4   7
ATOM      5  C   UNL     1       6.731  -0.741  33.240  0.00  0.00    +0.401 C 
ATOM      6  O   UNL     1       7.047  -1.178  34.349  0.00  0.00    -0.226 OA
ATOM      7  N   UNL     1       7.267   0.347  32.687  0.00  0.00    -0.279 N 
ATOM      8  H   UNL     1       6.949   0.621  31.768  0.00  0.00    +0.152 HD
BRANCH   5   9
ATOM      9  O   UNL     1       5.735  -1.431  32.480  0.00  0.00    -0.444 OA
BRANCH   9  10
ATOM     10  C   UNL     1       5.367  -0.641  31.347  0.00  0.00    +0.292 C 
BRANCH  10  12
ATOM     11  N   UNL     1       7.231  -1.648  30.057  0.00  0.00    -0.131 NA
ATOM     12  C   UNL     1       5.941  -1.207  30.112  0.00  0.00    +0.121 A 
ATOM     13  C   UNL     1       5.355  -1.387  28.883  0.00  0.00    +0.143 A 
ATOM     14  N   UNL     1       6.331  -1.949  28.096  0.00  0.00    -0.220 N 
ATOM     15  N   UNL     1       7.463  -2.099  28.829  0.00  0.00    -0.060 NA
BRANCH  14  16
ATOM     16  C   UNL     1       6.250  -2.333  26.734  0.00  0.00    +0.071 A 
ATOM     17  C   UNL     1       5.014  -2.703  26.182  0.00  0.00    +0.077 A 
ATOM     18  C   UNL     1       4.987  -3.068  24.853  0.00  0.00    +0.168 A 
ATOM     19  O   UNL     1       3.876  -3.448  24.169  0.00  0.00    -0.453 OA
ATOM     20  C   UNL     1       4.436  -3.694  22.863  0.00  0.00    +0.466 C 
ATOM     21  O   UNL     1       5.860  -3.465  22.798  0.00  0.00    -0.453 OA
ATOM     22  C   UNL     1       6.118  -3.076  24.074  0.00  0.00    +0.166 A 
ATOM     23  C   UNL     1       7.349  -2.720  24.583  0.00  0.00    +0.051 A 
ATOM     24  C   UNL     1       7.416  -2.343  25.931  0.00  0.00    +0.031 A 
ENDBRANCH  14  16
ENDBRANCH  10  12
ENDBRANCH   9  10
ENDBRANCH   5   9
ENDBRANCH   4   7
ENDBRANCH   1   4
BRANCH   1  25
ATOM     25  C   UNL     1       7.726   3.608  33.296  0.00  0.00    +0.175 C 
BRANCH  25  26
ATOM     26  C   UNL     1       6.919   4.745  33.940  0.00  0.00    +0.176 C 
ATOM     27  O   UNL     1       7.696   5.270  35.052  0.00  0.00    -0.332 OA
ATOM     28  C   UNL     1       7.126   6.440  35.726  0.00  0.00    +0.277 C 
ATOM     29  C   UNL     1       5.679   6.146  36.192  0.00  0.00    +0.110 C 
ATOM     30  C   UNL     1       4.823   5.555  35.051  0.00  0.00    +0.143 C 
ATOM     31  C   UNL     1       5.511   4.345  34.419  0.00  0.00    +0.133 C 
BRANCH  31  32
ATOM     32  N   UNL     1       4.728   3.845  33.278  0.00  0.00    -0.308 N 
ATOM     33  H   UNL     1       4.678   4.423  32.451  0.00  0.00    +0.149 HD
ATOM     34  C   UNL     1       4.079   2.678  33.264  0.00  0.00    +0.210 C 
ATOM     35  C   UNL     1       4.154   1.832  34.549  0.00  0.00    +0.109 C 
ATOM     36  O   UNL     1       3.443   2.278  32.288  0.00  0.00    -0.276 OA
ENDBRANCH  31  32
BRANCH  28  37
ATOM     37  C   UNL     1       7.127   7.666  34.789  0.00  0.00    +0.414 C 
ATOM     38  O   UNL     1       8.187   8.203  34.471  0.00  0.00    -0.240 OA
ATOM     39  O   UNL     1       6.068   8.117  34.350  0.00  0.00    -0.240 OA
ENDBRANCH  28  37
BRANCH  30  40
ATOM     40  O   UNL     1       3.549   5.160  35.560  0.00  0.00    -0.390 OA
ATOM     41  H   UNL     1       2.886   5.251  34.872  0.00  0.00    +0.210 HD
ENDBRANCH  30  40
BRANCH  28  42
ATOM     42  O   UNL     1       7.935   6.721  36.898  0.00  0.00    -0.343 OA
ATOM     43  C   UNL     1       8.633   5.576  37.449  0.00  0.00    +0.198 C 
ENDBRANCH  28  42
ENDBRANCH  25  26
BRANCH  25  44
ATOM     44  O   UNL     1       7.244   3.350  31.962  0.00  0.00    -0.387 OA
ATOM     45  H   UNL     1       7.630   2.535  31.634  0.00  0.00    +0.210 HD
ENDBRANCH  25  44
ENDBRANCH   1  25
TORSDOF 14
