REMARK VINA RESULT:    -6.785      6.080     11.099
REMARK INTER + INTRA:         -14.844
REMARK INTER:                 -13.068
REMARK INTRA:                  -1.776
REMARK UNBOUND:                -1.911
REMARK  Name = lig_assembled_26.pdb
REMARK  20 active torsions:
REMARK  status: ('A' for Active; 'I' for Inactive)
REMARK    1  A    between atoms: _2  and  _9
REMARK    2  A    between atoms: _4  and  _23
REMARK    3  A    between atoms: _6  and  _7
REMARK    4  A    between atoms: _6  and  _23
REMARK    5  A    between atoms: _9  and  _10
REMARK    6  A    between atoms: _9  and  _11
REMARK    7  A    between atoms: _11  and  _12
REMARK    8  A    between atoms: _12  and  _13
REMARK    9  A    between atoms: _19  and  _39
REMARK   10  A    between atoms: _21  and  _27
REMARK   11  A    between atoms: _22  and  _26
REMARK   12  A    between atoms: _26  and  _27
REMARK   13  A    between atoms: _29  and  _30
REMARK   14  A    between atoms: _31  and  _32
REMARK   15  A    between atoms: _33  and  _35
REMARK   16  A    between atoms: _35  and  _36
REMARK   17  A    between atoms: _35  and  _37
REMARK   18  A    between atoms: _37  and  _38
REMARK   19  A    between atoms: _37  and  _39
REMARK   20  A    between atoms: _40  and  _42
REMARK                            x       y       z     vdW  Elec       q    Type
REMARK                         _______ _______ _______ _____ _____    ______ ____
ROOT
ATOM      1  C   UNL     1       7.340   3.169  33.316  0.00  0.00    +0.163 C 
ENDROOT
BRANCH   1   2
ATOM      2  O   UNL     1       7.144   3.353  31.905  0.00  0.00    -0.388 OA
ATOM      3  H   UNL     1       7.701   2.739  31.421  0.00  0.00    +0.210 HD
ENDBRANCH   1   2
BRANCH   1   4
ATOM      4  C   UNL     1       6.009   3.295  34.077  0.00  0.00    +0.175 C 
BRANCH   4   5
ATOM      5  C   UNL     1       5.871   4.654  34.778  0.00  0.00    +0.176 C 
ATOM      6  O   UNL     1       7.190   5.056  35.239  0.00  0.00    -0.332 OA
ATOM      7  C   UNL     1       7.271   6.389  35.844  0.00  0.00    +0.277 C 
ATOM      8  C   UNL     1       6.250   6.522  37.000  0.00  0.00    +0.110 C 
ATOM      9  C   UNL     1       4.838   6.075  36.567  0.00  0.00    +0.143 C 
ATOM     10  C   UNL     1       4.870   4.677  35.948  0.00  0.00    +0.133 C 
BRANCH  10  11
ATOM     11  N   UNL     1       3.535   4.299  35.461  0.00  0.00    -0.308 N 
ATOM     12  H   UNL     1       3.180   4.772  34.641  0.00  0.00    +0.149 HD
ATOM     13  C   UNL     1       2.760   3.371  36.030  0.00  0.00    +0.210 C 
ATOM     14  C   UNL     1       3.318   2.687  37.292  0.00  0.00    +0.109 C 
ATOM     15  O   UNL     1       1.651   3.064  35.591  0.00  0.00    -0.276 OA
ENDBRANCH  10  11
BRANCH   7  16
ATOM     16  C   UNL     1       7.004   7.485  34.791  0.00  0.00    +0.414 C 
ATOM     17  O   UNL     1       7.941   8.092  34.276  0.00  0.00    -0.240 OA
ATOM     18  O   UNL     1       5.851   7.762  34.458  0.00  0.00    -0.240 OA
ENDBRANCH   7  16
BRANCH   7  19
ATOM     19  O   UNL     1       8.605   6.553  36.391  0.00  0.00    -0.343 OA
ATOM     20  C   UNL     1       8.661   7.205  37.685  0.00  0.00    +0.198 C 
ENDBRANCH   7  19
BRANCH   9  21
ATOM     21  O   UNL     1       3.966   6.070  37.698  0.00  0.00    -0.390 OA
ATOM     22  H   UNL     1       4.264   5.411  38.329  0.00  0.00    +0.210 HD
ENDBRANCH   9  21
ENDBRANCH   4   5
BRANCH   4  23
ATOM     23  O   UNL     1       5.882   2.226  35.037  0.00  0.00    -0.387 OA
ATOM     24  H   UNL     1       6.723   1.770  35.121  0.00  0.00    +0.210 HD
ENDBRANCH   4  23
ENDBRANCH   1   4
BRANCH   1  25
ATOM     25  C   UNL     1       7.952   1.797  33.583  0.00  0.00    +0.141 C 
BRANCH  25  28
ATOM     26  C   UNL     1      10.108   2.113  34.748  0.00  0.00    +0.401 C 
ATOM     27  O   UNL     1       9.590   2.345  35.843  0.00  0.00    -0.226 OA
ATOM     28  N   UNL     1       9.418   1.853  33.637  0.00  0.00    -0.279 N 
ATOM     29  H   UNL     1       9.932   1.684  32.784  0.00  0.00    +0.152 HD
BRANCH  26  30
ATOM     30  O   UNL     1      11.533   2.122  34.638  0.00  0.00    -0.444 OA
BRANCH  30  31
ATOM     31  C   UNL     1      12.102   2.652  35.839  0.00  0.00    +0.292 C 
BRANCH  31  33
ATOM     32  N   UNL     1      13.734   3.742  34.321  0.00  0.00    -0.131 NA
ATOM     33  C   UNL     1      13.078   3.710  35.522  0.00  0.00    +0.120 A 
ATOM     34  C   UNL     1      13.484   4.779  36.287  0.00  0.00    +0.137 A 
ATOM     35  N   UNL     1      14.409   5.412  35.513  0.00  0.00    -0.248 N 
ATOM     36  N   UNL     1      14.536   4.800  34.318  0.00  0.00    -0.065 NA
BRANCH  35  37
ATOM     37  C   UNL     1      15.163   6.628  35.780  0.00  0.00    +0.113 C 
ATOM     38  C   UNL     1      15.889   6.640  37.132  0.00  0.00    +0.033 C 
BRANCH  37  39
ATOM     39  C   UNL     1      16.105   7.008  34.623  0.00  0.00    +0.106 C 
BRANCH  39  40
ATOM     40  C   UNL     1      15.648   8.214  33.825  0.00  0.00    +0.165 C 
ATOM     41  O   UNL     1      14.821   8.128  32.919  0.00  0.00    -0.292 OA
BRANCH  40  42
ATOM     42  C   UNL     1      16.255   9.547  34.123  0.00  0.00    +0.017 A 
ATOM     43  C   UNL     1      16.662   9.916  35.410  0.00  0.00    +0.011 A 
ATOM     44  C   UNL     1      17.262  11.160  35.624  0.00  0.00    +0.001 A 
ATOM     45  C   UNL     1      17.451  12.040  34.559  0.00  0.00    +0.000 A 
ATOM     46  C   UNL     1      17.038  11.685  33.279  0.00  0.00    +0.001 A 
ATOM     47  C   UNL     1      16.442  10.442  33.060  0.00  0.00    +0.011 A 
ENDBRANCH  40  42
ENDBRANCH  39  40
ENDBRANCH  37  39
ENDBRANCH  35  37
ENDBRANCH  31  33
ENDBRANCH  30  31
ENDBRANCH  26  30
ENDBRANCH  25  28
ENDBRANCH   1  25
TORSDOF 17
