REMARK VINA RESULT:    -6.103     14.544     18.657
REMARK INTER + INTRA:         -14.338
REMARK INTER:                 -12.288
REMARK INTRA:                  -2.050
REMARK UNBOUND:                -1.813
REMARK  Name = lig_assembled_33.pdb
REMARK  22 active torsions:
REMARK  status: ('A' for Active; 'I' for Inactive)
REMARK    1  A    between atoms: _2  and  _9
REMARK    2  A    between atoms: _4  and  _20
REMARK    3  A    between atoms: _5  and  _13
REMARK    4  A    between atoms: _5  and  _14
REMARK    5  A    between atoms: _6  and  _7
REMARK    6  A    between atoms: _6  and  _20
REMARK    7  A    between atoms: _9  and  _10
REMARK    8  A    between atoms: _10  and  _11
REMARK    9  A    between atoms: _11  and  _12
REMARK   10  A    between atoms: _12  and  _13
REMARK   11  A    between atoms: _16  and  _36
REMARK   12  A    between atoms: _18  and  _24
REMARK   13  A    between atoms: _19  and  _23
REMARK   14  A    between atoms: _23  and  _24
REMARK   15  A    between atoms: _26  and  _27
REMARK   16  A    between atoms: _28  and  _29
REMARK   17  A    between atoms: _30  and  _32
REMARK   18  A    between atoms: _32  and  _33
REMARK   19  A    between atoms: _32  and  _34
REMARK   20  A    between atoms: _34  and  _35
REMARK   21  A    between atoms: _34  and  _36
REMARK   22  A    between atoms: _37  and  _39
REMARK                            x       y       z     vdW  Elec       q    Type
REMARK                         _______ _______ _______ _____ _____    ______ ____
ROOT
ATOM      1  C   UNL     1      17.039   1.805  26.193  0.00  0.00    +0.163 C 
ENDROOT
BRANCH   1   2
ATOM      2  O   UNL     1      16.136   2.714  26.843  0.00  0.00    -0.388 OA
ATOM      3  H   UNL     1      16.458   2.908  27.727  0.00  0.00    +0.210 HD
ENDBRANCH   1   2
BRANCH   1   4
ATOM      4  C   UNL     1      16.525   1.427  24.793  0.00  0.00    +0.175 C 
BRANCH   4   5
ATOM      5  C   UNL     1      17.620   0.782  23.930  0.00  0.00    +0.176 C 
ATOM      6  O   UNL     1      17.633   1.460  22.644  0.00  0.00    -0.332 OA
ATOM      7  C   UNL     1      18.693   1.046  21.719  0.00  0.00    +0.277 C 
ATOM      8  C   UNL     1      18.653  -0.487  21.503  0.00  0.00    +0.110 C 
ATOM      9  C   UNL     1      18.607  -1.250  22.844  0.00  0.00    +0.143 C 
ATOM     10  C   UNL     1      17.470  -0.737  23.728  0.00  0.00    +0.133 C 
BRANCH  10  11
ATOM     11  N   UNL     1      17.490  -1.411  25.036  0.00  0.00    -0.308 N 
ATOM     12  H   UNL     1      18.247  -1.192  25.668  0.00  0.00    +0.149 HD
ATOM     13  C   UNL     1      16.573  -2.293  25.442  0.00  0.00    +0.210 C 
ATOM     14  C   UNL     1      15.446  -2.625  24.445  0.00  0.00    +0.109 C 
ATOM     15  O   UNL     1      16.607  -2.831  26.549  0.00  0.00    -0.276 OA
ENDBRANCH  10  11
BRANCH   7  16
ATOM     16  C   UNL     1      20.079   1.455  22.258  0.00  0.00    +0.414 C 
ATOM     17  O   UNL     1      21.079   0.803  21.957  0.00  0.00    -0.240 OA
ATOM     18  O   UNL     1      20.199   2.436  22.993  0.00  0.00    -0.240 OA
ENDBRANCH   7  16
BRANCH   9  19
ATOM     19  O   UNL     1      18.419  -2.645  22.598  0.00  0.00    -0.390 OA
ATOM     20  H   UNL     1      17.828  -2.762  21.850  0.00  0.00    +0.210 HD
ENDBRANCH   9  19
BRANCH   7  21
ATOM     21  O   UNL     1      18.454   1.694  20.443  0.00  0.00    -0.343 OA
ATOM     22  C   UNL     1      17.059   1.801  20.062  0.00  0.00    +0.198 C 
ENDBRANCH   7  21
ENDBRANCH   4   5
BRANCH   4  23
ATOM     23  O   UNL     1      15.991   2.590  24.129  0.00  0.00    -0.387 OA
ATOM     24  H   UNL     1      15.358   3.025  24.705  0.00  0.00    +0.210 HD
ENDBRANCH   4  23
ENDBRANCH   1   4
BRANCH   1  25
ATOM     25  C   UNL     1      18.421   2.438  26.075  0.00  0.00    +0.141 C 
BRANCH  25  28
ATOM     26  C   UNL     1      19.368   4.648  25.504  0.00  0.00    +0.401 C 
ATOM     27  O   UNL     1      20.448   4.434  26.059  0.00  0.00    -0.226 OA
ATOM     28  N   UNL     1      18.362   3.774  25.467  0.00  0.00    -0.279 N 
ATOM     29  H   UNL     1      17.511   4.045  24.995  0.00  0.00    +0.152 HD
BRANCH  26  30
ATOM     30  O   UNL     1      19.158   5.906  24.856  0.00  0.00    -0.444 OA
BRANCH  30  31
ATOM     31  C   UNL     1      18.481   6.795  25.748  0.00  0.00    +0.292 C 
BRANCH  31  33
ATOM     32  N   UNL     1      20.612   8.039  25.575  0.00  0.00    -0.131 NA
ATOM     33  C   UNL     1      19.355   7.926  26.109  0.00  0.00    +0.120 A 
ATOM     34  C   UNL     1      19.132   8.985  26.962  0.00  0.00    +0.137 A 
ATOM     35  N   UNL     1      20.285   9.707  26.894  0.00  0.00    -0.251 N 
ATOM     36  N   UNL     1      21.178   9.128  26.074  0.00  0.00    -0.065 NA
BRANCH  35  37
ATOM     37  C   UNL     1      20.615  10.938  27.583  0.00  0.00    +0.145 C 
BRANCH  37  38
ATOM     38  C   UNL     1      19.505  11.378  28.536  0.00  0.00    +0.023 C 
BRANCH  38  39
ATOM     39  C   UNL     1      19.851  11.114  30.004  0.00  0.00    +0.002 C 
BRANCH  39  40
ATOM     40  C   UNL     1      18.586  10.727  30.774  0.00  0.00    +0.011 C 
BRANCH  40  41
ATOM     41  C   UNL     1      18.157   9.284  30.522  0.00  0.00    +0.120 C 
BRANCH  41  42
ATOM     42  C   UNL     1      17.569   8.660  31.768  0.00  0.00    +0.305 C 
ATOM     43  O   UNL     1      17.829   8.991  32.914  0.00  0.00    -0.251 OA
BRANCH  42  44
ATOM     44  O   UNL     1      16.692   7.670  31.484  0.00  0.00    -0.481 OA
ATOM     45  H   UNL     1      16.719   6.926  32.113  0.00  0.00    +0.295 HD
ENDBRANCH  42  44
ENDBRANCH  41  42
ENDBRANCH  40  41
ENDBRANCH  39  40
ENDBRANCH  38  39
ENDBRANCH  37  38
ENDBRANCH  35  37
ENDBRANCH  31  33
ENDBRANCH  30  31
ENDBRANCH  26  30
ENDBRANCH  25  28
ENDBRANCH   1  25
TORSDOF 20
