REMARK VINA RESULT:    -5.772     13.751     17.812
REMARK INTER + INTRA:         -13.097
REMARK INTER:                 -11.254
REMARK INTRA:                  -1.843
REMARK UNBOUND:                -2.094
REMARK  Name = lig_assembled_19.pdb
REMARK  20 active torsions:
REMARK  status: ('A' for Active; 'I' for Inactive)
REMARK    1  A    between atoms: _2  and  _9
REMARK    2  A    between atoms: _4  and  _18
REMARK    3  A    between atoms: _5  and  _11
REMARK    4  A    between atoms: _6  and  _7
REMARK    5  A    between atoms: _6  and  _18
REMARK    6  A    between atoms: _9  and  _10
REMARK    7  A    between atoms: _10  and  _13
REMARK    8  A    between atoms: _11  and  _13
REMARK    9  A    between atoms: _14  and  _34
REMARK   10  A    between atoms: _16  and  _22
REMARK   11  A    between atoms: _17  and  _21
REMARK   12  A    between atoms: _21  and  _22
REMARK   13  A    between atoms: _24  and  _25
REMARK   14  A    between atoms: _26  and  _27
REMARK   15  A    between atoms: _28  and  _30
REMARK   16  A    between atoms: _30  and  _31
REMARK   17  A    between atoms: _30  and  _32
REMARK   18  A    between atoms: _32  and  _33
REMARK   19  A    between atoms: _32  and  _34
REMARK   20  A    between atoms: _35  and  _37
REMARK                            x       y       z     vdW  Elec       q    Type
REMARK                         _______ _______ _______ _____ _____    ______ ____
ROOT
ATOM      1  C   UNL     1      18.508   5.808  23.948  0.00  0.00    +0.163 C 
ENDROOT
BRANCH   1   2
ATOM      2  O   UNL     1      17.508   5.847  22.917  0.00  0.00    -0.388 OA
ATOM      3  H   UNL     1      17.883   6.230  22.121  0.00  0.00    +0.210 HD
ENDBRANCH   1   2
BRANCH   1   4
ATOM      4  C   UNL     1      19.214   4.441  23.979  0.00  0.00    +0.175 C 
BRANCH   4   5
ATOM      5  C   UNL     1      18.435   3.407  24.804  0.00  0.00    +0.176 C 
ATOM      6  O   UNL     1      19.302   2.944  25.876  0.00  0.00    -0.332 OA
ATOM      7  C   UNL     1      18.688   2.023  26.836  0.00  0.00    +0.277 C 
ATOM      8  C   UNL     1      18.070   0.808  26.102  0.00  0.00    +0.110 C 
ATOM      9  C   UNL     1      17.164   1.249  24.933  0.00  0.00    +0.143 C 
ATOM     10  C   UNL     1      17.902   2.207  23.998  0.00  0.00    +0.133 C 
BRANCH  10  11
ATOM     11  N   UNL     1      17.002   2.689  22.938  0.00  0.00    -0.308 N 
ATOM     12  H   UNL     1      16.246   3.303  23.205  0.00  0.00    +0.149 HD
ATOM     13  C   UNL     1      17.120   2.366  21.647  0.00  0.00    +0.210 C 
ATOM     14  C   UNL     1      18.267   1.408  21.277  0.00  0.00    +0.109 C 
ATOM     15  O   UNL     1      16.360   2.796  20.779  0.00  0.00    -0.276 OA
ENDBRANCH  10  11
BRANCH   7  16
ATOM     16  C   UNL     1      17.595   2.738  27.658  0.00  0.00    +0.414 C 
ATOM     17  O   UNL     1      16.427   2.732  27.274  0.00  0.00    -0.240 OA
ATOM     18  O   UNL     1      17.883   3.321  28.705  0.00  0.00    -0.240 OA
ENDBRANCH   7  16
BRANCH   9  19
ATOM     19  O   UNL     1      16.739   0.104  24.194  0.00  0.00    -0.390 OA
ATOM     20  H   UNL     1      17.186   0.087  23.344  0.00  0.00    +0.210 HD
ENDBRANCH   9  19
BRANCH   7  21
ATOM     21  O   UNL     1      19.729   1.540  27.724  0.00  0.00    -0.343 OA
ATOM     22  C   UNL     1      20.484   0.408  27.223  0.00  0.00    +0.198 C 
ENDBRANCH   7  21
ENDBRANCH   4   5
BRANCH   4  23
ATOM     23  O   UNL     1      20.551   4.585  24.497  0.00  0.00    -0.387 OA
ATOM     24  H   UNL     1      21.184   4.307  23.831  0.00  0.00    +0.210 HD
ENDBRANCH   4  23
ENDBRANCH   1   4
BRANCH   1  25
ATOM     25  C   UNL     1      19.538   6.908  23.718  0.00  0.00    +0.141 C 
BRANCH  25  28
ATOM     26  C   UNL     1      20.719   7.817  25.689  0.00  0.00    +0.401 C 
ATOM     27  O   UNL     1      21.702   7.085  25.555  0.00  0.00    -0.226 OA
ATOM     28  N   UNL     1      19.659   7.797  24.880  0.00  0.00    -0.279 N 
ATOM     29  H   UNL     1      18.896   8.430  25.078  0.00  0.00    +0.152 HD
BRANCH  26  30
ATOM     30  O   UNL     1      20.689   8.748  26.774  0.00  0.00    -0.444 OA
BRANCH  30  31
ATOM     31  C   UNL     1      19.427   9.420  26.792  0.00  0.00    +0.292 C 
BRANCH  31  33
ATOM     32  N   UNL     1      17.971  10.487  28.490  0.00  0.00    -0.131 NA
ATOM     33  C   UNL     1      18.946   9.575  28.177  0.00  0.00    +0.120 A 
ATOM     34  C   UNL     1      19.325   8.913  29.322  0.00  0.00    +0.137 A 
ATOM     35  N   UNL     1      18.556   9.476  30.295  0.00  0.00    -0.248 N 
ATOM     36  N   UNL     1      17.739  10.416  29.794  0.00  0.00    -0.065 NA
BRANCH  35  37
ATOM     37  C   UNL     1      18.536   9.159  31.706  0.00  0.00    +0.186 C 
BRANCH  37  38
ATOM     38  C   UNL     1      17.141   9.315  32.303  0.00  0.00    +0.255 C 
BRANCH  38  39
ATOM     39  O   UNL     1      16.277   8.211  31.964  0.00  0.00    -0.463 OA
BRANCH  39  40
ATOM     40  C   UNL     1      15.845   7.451  33.004  0.00  0.00    +0.304 C 
ATOM     41  O   UNL     1      14.903   7.733  33.732  0.00  0.00    -0.251 OA
ATOM     42  C   UNL     1      16.657   6.198  33.125  0.00  0.00    +0.136 C 
ENDBRANCH  39  40
ENDBRANCH  38  39
ENDBRANCH  37  38
ENDBRANCH  35  37
ENDBRANCH  31  33
ENDBRANCH  30  31
ENDBRANCH  26  30
ENDBRANCH  25  28
ENDBRANCH   1  25
TORSDOF 17
