REMARK VINA RESULT:    -6.871     14.562     18.315
REMARK INTER + INTRA:         -14.009
REMARK INTER:                 -12.428
REMARK INTRA:                  -1.581
REMARK UNBOUND:                -2.118
REMARK  Name = lig_assembled_7.pdb
REMARK  19 active torsions:
REMARK  status: ('A' for Active; 'I' for Inactive)
REMARK    1  A    between atoms: _2  and  _9
REMARK    2  A    between atoms: _4  and  _21
REMARK    3  A    between atoms: _5  and  _16
REMARK    4  A    between atoms: _6  and  _7
REMARK    5  A    between atoms: _6  and  _21
REMARK    6  A    between atoms: _10  and  _11
REMARK    7  A    between atoms: _13  and  _14
REMARK    8  A    between atoms: _17  and  _37
REMARK    9  A    between atoms: _19  and  _25
REMARK   10  A    between atoms: _20  and  _24
REMARK   11  A    between atoms: _24  and  _25
REMARK   12  A    between atoms: _27  and  _28
REMARK   13  A    between atoms: _29  and  _30
REMARK   14  A    between atoms: _31  and  _33
REMARK   15  A    between atoms: _33  and  _34
REMARK   16  A    between atoms: _33  and  _35
REMARK   17  A    between atoms: _35  and  _36
REMARK   18  A    between atoms: _35  and  _37
REMARK   19  A    between atoms: _38  and  _40
REMARK                            x       y       z     vdW  Elec       q    Type
REMARK                         _______ _______ _______ _____ _____    ______ ____
ROOT
ATOM      1  C   UNL     1      17.292   1.947  26.132  0.00  0.00    +0.163 C 
ENDROOT
BRANCH   1   2
ATOM      2  O   UNL     1      16.341   2.767  26.829  0.00  0.00    -0.388 OA
ATOM      3  H   UNL     1      16.700   3.651  26.939  0.00  0.00    +0.210 HD
ENDBRANCH   1   2
BRANCH   1   4
ATOM      4  C   UNL     1      18.570   2.737  25.869  0.00  0.00    +0.141 C 
BRANCH   4   7
ATOM      5  C   UNL     1      19.045   4.646  24.374  0.00  0.00    +0.401 C 
ATOM      6  O   UNL     1      20.068   4.143  23.902  0.00  0.00    -0.226 OA
ATOM      7  N   UNL     1      18.287   4.062  25.303  0.00  0.00    -0.279 N 
ATOM      8  H   UNL     1      17.473   4.559  25.635  0.00  0.00    +0.152 HD
BRANCH   5   9
ATOM      9  O   UNL     1      18.631   5.936  23.916  0.00  0.00    -0.444 OA
BRANCH   9  10
ATOM     10  C   UNL     1      19.730   6.847  23.995  0.00  0.00    +0.292 C 
BRANCH  10  12
ATOM     11  N   UNL     1      21.067   7.578  25.933  0.00  0.00    -0.131 NA
ATOM     12  C   UNL     1      19.847   7.391  25.360  0.00  0.00    +0.121 A 
ATOM     13  C   UNL     1      18.871   7.791  26.252  0.00  0.00    +0.143 A 
ATOM     14  N   UNL     1      19.550   8.176  27.389  0.00  0.00    -0.219 N 
ATOM     15  N   UNL     1      20.881   8.078  27.143  0.00  0.00    -0.060 NA
BRANCH  14  16
ATOM     16  C   UNL     1      19.039   8.626  28.650  0.00  0.00    +0.073 A 
ATOM     17  C   UNL     1      18.711  10.006  28.819  0.00  0.00    -0.024 A 
ATOM     18  C   UNL     1      18.206  10.459  30.057  0.00  0.00    +0.008 A 
ATOM     19  C   UNL     1      18.008   9.588  31.125  0.00  0.00    -0.050 A 
ATOM     20  C   UNL     1      17.467  10.102  32.426  0.00  0.00    +0.044 C 
ATOM     21  C   UNL     1      18.327   8.243  30.955  0.00  0.00    +0.008 A 
ATOM     22  C   UNL     1      18.815  11.052  27.731  0.00  0.00    +0.046 C 
ATOM     23  C   UNL     1      18.861   7.742  29.745  0.00  0.00    -0.024 A 
ATOM     24  C   UNL     1      19.254   6.288  29.813  0.00  0.00    +0.046 C 
ENDBRANCH  14  16
ENDBRANCH  10  12
ENDBRANCH   9  10
ENDBRANCH   5   9
ENDBRANCH   4   7
ENDBRANCH   1   4
BRANCH   1  25
ATOM     25  C   UNL     1      16.714   1.448  24.796  0.00  0.00    +0.175 C 
BRANCH  25  26
ATOM     26  C   UNL     1      17.761   0.704  23.955  0.00  0.00    +0.176 C 
ATOM     27  O   UNL     1      17.825   1.345  22.651  0.00  0.00    -0.332 OA
ATOM     28  C   UNL     1      18.854   0.832  21.742  0.00  0.00    +0.277 C 
ATOM     29  C   UNL     1      18.704  -0.699  21.565  0.00  0.00    +0.110 C 
ATOM     30  C   UNL     1      18.600  -1.422  22.924  0.00  0.00    +0.143 C 
ATOM     31  C   UNL     1      17.501  -0.806  23.791  0.00  0.00    +0.133 C 
BRANCH  31  32
ATOM     32  N   UNL     1      17.470  -1.445  25.116  0.00  0.00    -0.308 N 
ATOM     33  H   UNL     1      18.211  -1.222  25.765  0.00  0.00    +0.149 HD
ATOM     34  C   UNL     1      16.527  -2.302  25.516  0.00  0.00    +0.210 C 
ATOM     35  C   UNL     1      15.426  -2.643  24.493  0.00  0.00    +0.109 C 
ATOM     36  O   UNL     1      16.518  -2.812  26.637  0.00  0.00    -0.276 OA
ENDBRANCH  31  32
BRANCH  28  37
ATOM     37  C   UNL     1      20.265   1.154  22.275  0.00  0.00    +0.414 C 
ATOM     38  O   UNL     1      20.503   1.085  23.481  0.00  0.00    -0.240 OA
ATOM     39  O   UNL     1      21.165   1.482  21.501  0.00  0.00    -0.240 OA
ENDBRANCH  28  37
BRANCH  30  40
ATOM     40  O   UNL     1      18.313  -2.805  22.714  0.00  0.00    -0.390 OA
ATOM     41  H   UNL     1      17.365  -2.947  22.767  0.00  0.00    +0.210 HD
ENDBRANCH  30  40
BRANCH  28  42
ATOM     42  O   UNL     1      18.665   1.462  20.449  0.00  0.00    -0.343 OA
ATOM     43  C   UNL     1      17.284   1.723  20.091  0.00  0.00    +0.198 C 
ENDBRANCH  28  42
ENDBRANCH  25  26
BRANCH  25  44
ATOM     44  O   UNL     1      16.168   2.552  24.048  0.00  0.00    -0.387 OA
ATOM     45  H   UNL     1      15.407   2.254  23.545  0.00  0.00    +0.210 HD
ENDBRANCH  25  44
ENDBRANCH   1  25
TORSDOF 14
