REMARK VINA RESULT:    -6.506     21.955     23.774
REMARK INTER + INTRA:         -13.704
REMARK INTER:                 -11.725
REMARK INTRA:                  -1.979
REMARK UNBOUND:                -1.873
REMARK  Name = lig_assembled_60.pdb
REMARK  18 active torsions:
REMARK  status: ('A' for Active; 'I' for Inactive)
REMARK    1  A    between atoms: _2  and  _10
REMARK    2  A    between atoms: _3  and  _41
REMARK    3  A    between atoms: _5  and  _21
REMARK    4  A    between atoms: _7  and  _8
REMARK    5  A    between atoms: _7  and  _21
REMARK    6  A    between atoms: _13  and  _41
REMARK    7  A    between atoms: _17  and  _37
REMARK    8  A    between atoms: _19  and  _25
REMARK    9  A    between atoms: _20  and  _24
REMARK   10  A    between atoms: _24  and  _25
REMARK   11  A    between atoms: _27  and  _28
REMARK   12  A    between atoms: _29  and  _30
REMARK   13  A    between atoms: _31  and  _33
REMARK   14  A    between atoms: _33  and  _34
REMARK   15  A    between atoms: _33  and  _35
REMARK   16  A    between atoms: _35  and  _36
REMARK   17  A    between atoms: _35  and  _37
REMARK   18  A    between atoms: _38  and  _40
REMARK                            x       y       z     vdW  Elec       q    Type
REMARK                         _______ _______ _______ _____ _____    ______ ____
ROOT
ATOM      1  C   UNL     1      13.958  23.522  25.841  0.00  0.00    +0.141 C 
ENDROOT
BRANCH   1   4
ATOM      2  C   UNL     1      15.748  22.169  24.806  0.00  0.00    +0.401 C 
ATOM      3  O   UNL     1      16.026  21.568  25.846  0.00  0.00    -0.226 OA
ATOM      4  N   UNL     1      14.801  23.103  24.714  0.00  0.00    -0.279 N 
ATOM      5  H   UNL     1      14.654  23.547  23.818  0.00  0.00    +0.152 HD
BRANCH   2   6
ATOM      6  O   UNL     1      16.478  21.866  23.613  0.00  0.00    -0.444 OA
BRANCH   6   7
ATOM      7  C   UNL     1      16.834  23.081  22.949  0.00  0.00    +0.292 C 
BRANCH   7   9
ATOM      8  N   UNL     1      14.931  24.305  21.943  0.00  0.00    -0.131 NA
ATOM      9  C   UNL     1      15.901  23.351  21.839  0.00  0.00    +0.121 A 
ATOM     10  C   UNL     1      15.829  22.772  20.593  0.00  0.00    +0.143 A 
ATOM     11  N   UNL     1      14.810  23.437  19.949  0.00  0.00    -0.220 N 
ATOM     12  N   UNL     1      14.266  24.345  20.796  0.00  0.00    -0.060 NA
BRANCH  11  13
ATOM     13  C   UNL     1      14.368  23.294  18.608  0.00  0.00    +0.067 A 
ATOM     14  C   UNL     1      13.234  22.521  18.309  0.00  0.00    +0.030 A 
ATOM     15  C   UNL     1      12.849  22.329  16.981  0.00  0.00    +0.030 A 
ATOM     16  C   UNL     1      13.585  22.921  15.951  0.00  0.00    +0.105 A 
ATOM     17  C   UNL     1      14.706  23.705  16.239  0.00  0.00    +0.030 A 
ATOM     18  C   UNL     1      15.093  23.897  17.568  0.00  0.00    +0.030 A 
BRANCH  16  19
ATOM     19  S   UNL     1      13.132  22.605  14.271  0.00  0.00    +0.056 S 
ATOM     20  O   UNL     1      11.766  23.022  14.059  0.00  0.00    -0.153 OA
ATOM     21  O   UNL     1      14.214  23.017  13.406  0.00  0.00    -0.153 OA
BRANCH  19  22
ATOM     22  N   UNL     1      13.119  20.929  14.231  0.00  0.00    -0.204 NA
ATOM     23  H   UNL     1      12.803  20.607  13.316  0.00  0.00    +0.144 HD
ATOM     24  H   UNL     1      12.564  20.570  15.009  0.00  0.00    +0.144 HD
ENDBRANCH  19  22
ENDBRANCH  16  19
ENDBRANCH  11  13
ENDBRANCH   7   9
ENDBRANCH   6   7
ENDBRANCH   2   6
ENDBRANCH   1   4
BRANCH   1  25
ATOM     25  C   UNL     1      12.476  23.303  25.555  0.00  0.00    +0.163 C 
BRANCH  25  26
ATOM     26  O   UNL     1      11.817  22.808  26.732  0.00  0.00    -0.388 OA
ATOM     27  H   UNL     1      11.004  23.298  26.874  0.00  0.00    +0.210 HD
ENDBRANCH  25  26
BRANCH  25  28
ATOM     28  C   UNL     1      11.843  24.623  25.084  0.00  0.00    +0.175 C 
BRANCH  28  29
ATOM     29  C   UNL     1      10.308  24.568  25.106  0.00  0.00    +0.176 C 
ATOM     30  O   UNL     1       9.826  25.027  23.813  0.00  0.00    -0.332 OA
ATOM     31  C   UNL     1       8.377  24.943  23.610  0.00  0.00    +0.277 C 
ATOM     32  C   UNL     1       7.628  25.688  24.742  0.00  0.00    +0.110 C 
ATOM     33  C   UNL     1       8.129  25.257  26.137  0.00  0.00    +0.143 C 
ATOM     34  C   UNL     1       9.650  25.381  26.236  0.00  0.00    +0.133 C 
BRANCH  34  35
ATOM     35  N   UNL     1      10.124  24.885  27.538  0.00  0.00    -0.308 N 
ATOM     36  H   UNL     1       9.986  23.907  27.748  0.00  0.00    +0.149 HD
ATOM     37  C   UNL     1      10.723  25.644  28.460  0.00  0.00    +0.210 C 
ATOM     38  C   UNL     1      10.893  27.137  28.120  0.00  0.00    +0.109 C 
ATOM     39  O   UNL     1      11.122  25.198  29.536  0.00  0.00    -0.276 OA
ENDBRANCH  34  35
BRANCH  31  40
ATOM     40  C   UNL     1       7.915  23.472  23.568  0.00  0.00    +0.414 C 
ATOM     41  O   UNL     1       7.011  23.084  24.307  0.00  0.00    -0.240 OA
ATOM     42  O   UNL     1       8.446  22.672  22.796  0.00  0.00    -0.240 OA
ENDBRANCH  31  40
BRANCH  33  43
ATOM     43  O   UNL     1       7.524  26.073  27.140  0.00  0.00    -0.390 OA
ATOM     44  H   UNL     1       8.060  26.856  27.283  0.00  0.00    +0.210 HD
ENDBRANCH  33  43
BRANCH  31  45
ATOM     45  O   UNL     1       8.062  25.590  22.350  0.00  0.00    -0.343 OA
ATOM     46  C   UNL     1       6.901  26.458  22.381  0.00  0.00    +0.198 C 
ENDBRANCH  31  45
ENDBRANCH  28  29
BRANCH  28  47
ATOM     47  O   UNL     1      12.310  24.954  23.761  0.00  0.00    -0.387 OA
ATOM     48  H   UNL     1      11.976  24.309  23.133  0.00  0.00    +0.210 HD
ENDBRANCH  28  47
ENDBRANCH  25  28
ENDBRANCH   1  25
TORSDOF 16
