REMARK VINA RESULT:    -6.762      1.810      3.498
REMARK INTER + INTRA:         -13.821
REMARK INTER:                 -12.355
REMARK INTRA:                  -1.466
REMARK UNBOUND:                -2.118
REMARK  Name = lig_assembled_7.pdb
REMARK  19 active torsions:
REMARK  status: ('A' for Active; 'I' for Inactive)
REMARK    1  A    between atoms: _2  and  _9
REMARK    2  A    between atoms: _4  and  _21
REMARK    3  A    between atoms: _5  and  _16
REMARK    4  A    between atoms: _6  and  _7
REMARK    5  A    between atoms: _6  and  _21
REMARK    6  A    between atoms: _10  and  _11
REMARK    7  A    between atoms: _13  and  _14
REMARK    8  A    between atoms: _17  and  _37
REMARK    9  A    between atoms: _19  and  _25
REMARK   10  A    between atoms: _20  and  _24
REMARK   11  A    between atoms: _24  and  _25
REMARK   12  A    between atoms: _27  and  _28
REMARK   13  A    between atoms: _29  and  _30
REMARK   14  A    between atoms: _31  and  _33
REMARK   15  A    between atoms: _33  and  _34
REMARK   16  A    between atoms: _33  and  _35
REMARK   17  A    between atoms: _35  and  _36
REMARK   18  A    between atoms: _35  and  _37
REMARK   19  A    between atoms: _38  and  _40
REMARK                            x       y       z     vdW  Elec       q    Type
REMARK                         _______ _______ _______ _____ _____    ______ ____
ROOT
ATOM      1  C   UNL     1       3.293   3.416  33.362  0.00  0.00    +0.163 C 
ENDROOT
BRANCH   1   2
ATOM      2  O   UNL     1       3.910   4.595  32.820  0.00  0.00    -0.388 OA
ATOM      3  H   UNL     1       4.431   4.359  32.049  0.00  0.00    +0.210 HD
ENDBRANCH   1   2
BRANCH   1   4
ATOM      4  C   UNL     1       1.915   3.215  32.739  0.00  0.00    +0.141 C 
BRANCH   4   7
ATOM      5  C   UNL     1       1.459   3.231  30.311  0.00  0.00    +0.401 C 
ATOM      6  O   UNL     1       1.204   2.026  30.255  0.00  0.00    -0.226 OA
ATOM      7  N   UNL     1       1.806   3.869  31.429  0.00  0.00    -0.279 N 
ATOM      8  H   UNL     1       2.006   4.858  31.372  0.00  0.00    +0.152 HD
BRANCH   5   9
ATOM      9  O   UNL     1       1.388   4.012  29.115  0.00  0.00    -0.444 OA
BRANCH   9  10
ATOM     10  C   UNL     1       0.588   3.330  28.145  0.00  0.00    +0.292 C 
BRANCH  10  12
ATOM     11  N   UNL     1       2.467   3.935  26.669  0.00  0.00    -0.131 NA
ATOM     12  C   UNL     1       1.234   3.381  26.821  0.00  0.00    +0.121 A 
ATOM     13  C   UNL     1       0.796   2.927  25.593  0.00  0.00    +0.143 A 
ATOM     14  N   UNL     1       1.788   3.274  24.699  0.00  0.00    -0.219 N 
ATOM     15  N   UNL     1       2.806   3.841  25.394  0.00  0.00    -0.060 NA
BRANCH  14  16
ATOM     16  C   UNL     1       1.840   3.100  23.278  0.00  0.00    +0.073 A 
ATOM     17  C   UNL     1       1.973   1.784  22.739  0.00  0.00    -0.024 A 
ATOM     18  C   UNL     1       2.024   1.603  21.340  0.00  0.00    +0.008 A 
ATOM     19  C   UNL     1       1.937   2.680  20.462  0.00  0.00    -0.050 A 
ATOM     20  C   UNL     1       1.991   2.452  18.981  0.00  0.00    +0.044 C 
ATOM     21  C   UNL     1       1.804   3.961  20.992  0.00  0.00    +0.008 A 
ATOM     22  C   UNL     1       2.017   0.518  23.566  0.00  0.00    +0.046 C 
ATOM     23  C   UNL     1       1.775   4.201  22.386  0.00  0.00    -0.024 A 
ATOM     24  C   UNL     1       1.754   5.665  22.747  0.00  0.00    +0.046 C 
ENDBRANCH  14  16
ENDBRANCH  10  12
ENDBRANCH   9  10
ENDBRANCH   5   9
ENDBRANCH   4   7
ENDBRANCH   1   4
BRANCH   1  25
ATOM     25  C   UNL     1       3.155   3.521  34.891  0.00  0.00    +0.175 C 
BRANCH  25  26
ATOM     26  C   UNL     1       3.986   4.675  35.469  0.00  0.00    +0.176 C 
ATOM     27  O   UNL     1       5.375   4.455  35.098  0.00  0.00    -0.332 OA
ATOM     28  C   UNL     1       6.309   5.520  35.476  0.00  0.00    +0.277 C 
ATOM     29  C   UNL     1       6.212   5.811  36.994  0.00  0.00    +0.110 C 
ATOM     30  C   UNL     1       4.750   6.020  37.441  0.00  0.00    +0.143 C 
ATOM     31  C   UNL     1       3.867   4.856  36.993  0.00  0.00    +0.133 C 
BRANCH  31  32
ATOM     32  N   UNL     1       2.462   5.108  37.349  0.00  0.00    -0.308 N 
ATOM     33  H   UNL     1       2.003   5.903  36.927  0.00  0.00    +0.149 HD
ATOM     34  C   UNL     1       1.752   4.355  38.195  0.00  0.00    +0.210 C 
ATOM     35  C   UNL     1       2.487   3.167  38.842  0.00  0.00    +0.109 C 
ATOM     36  O   UNL     1       0.572   4.582  38.463  0.00  0.00    -0.276 OA
ENDBRANCH  31  32
BRANCH  28  37
ATOM     37  C   UNL     1       6.016   6.811  34.684  0.00  0.00    +0.414 C 
ATOM     38  O   UNL     1       5.113   6.835  33.849  0.00  0.00    -0.240 OA
ATOM     39  O   UNL     1       6.681   7.829  34.881  0.00  0.00    -0.240 OA
ENDBRANCH  28  37
BRANCH  30  40
ATOM     40  O   UNL     1       4.694   6.134  38.864  0.00  0.00    -0.390 OA
ATOM     41  H   UNL     1       4.461   5.284  39.244  0.00  0.00    +0.210 HD
ENDBRANCH  30  40
BRANCH  28  42
ATOM     42  O   UNL     1       7.654   5.063  35.183  0.00  0.00    -0.343 OA
ATOM     43  C   UNL     1       7.762   4.161  34.052  0.00  0.00    +0.198 C 
ENDBRANCH  28  42
ENDBRANCH  25  26
BRANCH  25  44
ATOM     44  O   UNL     1       3.535   2.276  35.510  0.00  0.00    -0.387 OA
ATOM     45  H   UNL     1       2.931   2.077  36.229  0.00  0.00    +0.210 HD
ENDBRANCH  25  44
ENDBRANCH   1  25
TORSDOF 14
