REMARK VINA RESULT:    -7.054      9.966     16.240
REMARK INTER + INTRA:         -14.201
REMARK INTER:                 -12.352
REMARK INTRA:                  -1.849
REMARK UNBOUND:                -1.992
REMARK  Name = lig_assembled_25.pdb
REMARK  16 active torsions:
REMARK  status: ('A' for Active; 'I' for Inactive)
REMARK    1  A    between atoms: _2  and  _9
REMARK    2  A    between atoms: _4  and  _25
REMARK    3  A    between atoms: _6  and  _7
REMARK    4  A    between atoms: _6  and  _25
REMARK    5  A    between atoms: _21  and  _41
REMARK    6  A    between atoms: _23  and  _29
REMARK    7  A    between atoms: _24  and  _28
REMARK    8  A    between atoms: _28  and  _29
REMARK    9  A    between atoms: _31  and  _32
REMARK   10  A    between atoms: _33  and  _34
REMARK   11  A    between atoms: _35  and  _37
REMARK   12  A    between atoms: _37  and  _38
REMARK   13  A    between atoms: _37  and  _39
REMARK   14  A    between atoms: _39  and  _40
REMARK   15  A    between atoms: _39  and  _41
REMARK   16  A    between atoms: _42  and  _44
REMARK                            x       y       z     vdW  Elec       q    Type
REMARK                         _______ _______ _______ _____ _____    ______ ____
ROOT
ATOM      1  C   UNL     1      -6.552   7.686  18.361  0.00  0.00    +0.141 C 
ENDROOT
BRANCH   1   4
ATOM      2  C   UNL     1      -5.940   5.823  19.865  0.00  0.00    +0.401 C 
ATOM      3  O   UNL     1      -5.856   4.993  18.957  0.00  0.00    -0.226 OA
ATOM      4  N   UNL     1      -6.265   7.103  19.677  0.00  0.00    -0.279 N 
ATOM      5  H   UNL     1      -6.317   7.706  20.487  0.00  0.00    +0.152 HD
BRANCH   2   6
ATOM      6  O   UNL     1      -5.680   5.411  21.209  0.00  0.00    -0.444 OA
BRANCH   6   7
ATOM      7  C   UNL     1      -4.779   4.300  21.203  0.00  0.00    +0.292 C 
BRANCH   7   9
ATOM      8  N   UNL     1      -3.233   5.918  22.249  0.00  0.00    -0.131 NA
ATOM      9  C   UNL     1      -3.423   4.735  21.587  0.00  0.00    +0.120 A 
ATOM     10  C   UNL     1      -2.201   4.138  21.372  0.00  0.00    +0.138 A 
ATOM     11  N   UNL     1      -1.301   5.014  21.910  0.00  0.00    -0.240 N 
ATOM     12  N   UNL     1      -1.933   6.080  22.447  0.00  0.00    -0.064 NA
BRANCH  11  13
ATOM     13  C   UNL     1       0.153   4.984  21.898  0.00  0.00    +0.170 C 
ATOM     14  C   UNL     1       0.708   4.094  20.794  0.00  0.00    -0.011 A 
ATOM     15  C   UNL     1       1.569   3.120  21.347  0.00  0.00    -0.012 A 
ATOM     16  C   UNL     1       1.612   3.292  22.786  0.00  0.00    -0.012 A 
ATOM     17  C   UNL     1       2.336   2.608  23.749  0.00  0.00    +0.009 A 
ATOM     18  C   UNL     1       2.212   3.009  25.082  0.00  0.00    +0.001 A 
ATOM     19  C   UNL     1       1.370   4.075  25.439  0.00  0.00    +0.000 A 
ATOM     20  C   UNL     1       0.638   4.766  24.470  0.00  0.00    +0.006 A 
ATOM     21  C   UNL     1       2.212   2.207  20.529  0.00  0.00    +0.009 A 
ATOM     22  C   UNL     1       1.990   2.276  19.150  0.00  0.00    +0.001 A 
ATOM     23  C   UNL     1       1.137   3.249  18.605  0.00  0.00    +0.000 A 
ATOM     24  C   UNL     1       0.488   4.173  19.426  0.00  0.00    +0.006 A 
ATOM     25  C   UNL     1       0.765   4.365  23.148  0.00  0.00    -0.011 A 
ENDBRANCH  11  13
ENDBRANCH   7   9
ENDBRANCH   6   7
ENDBRANCH   2   6
ENDBRANCH   1   4
BRANCH   1  26
ATOM     26  C   UNL     1      -5.614   8.843  18.034  0.00  0.00    +0.163 C 
BRANCH  26  27
ATOM     27  O   UNL     1      -4.951   9.290  19.229  0.00  0.00    -0.388 OA
ATOM     28  H   UNL     1      -4.043   8.980  19.227  0.00  0.00    +0.210 HD
ENDBRANCH  26  27
BRANCH  26  29
ATOM     29  C   UNL     1      -4.593   8.393  16.975  0.00  0.00    +0.175 C 
BRANCH  29  30
ATOM     30  C   UNL     1      -4.116   9.562  16.100  0.00  0.00    +0.176 C 
ATOM     31  O   UNL     1      -5.287  10.314  15.681  0.00  0.00    -0.332 OA
ATOM     32  C   UNL     1      -5.016  11.537  14.919  0.00  0.00    +0.277 C 
ATOM     33  C   UNL     1      -4.128  11.223  13.689  0.00  0.00    +0.110 C 
ATOM     34  C   UNL     1      -2.885  10.396  14.081  0.00  0.00    +0.143 C 
ATOM     35  C   UNL     1      -3.283   9.150  14.872  0.00  0.00    +0.133 C 
BRANCH  35  36
ATOM     36  N   UNL     1      -2.086   8.417  15.314  0.00  0.00    -0.308 N 
ATOM     37  H   UNL     1      -1.480   8.865  15.988  0.00  0.00    +0.149 HD
ATOM     38  C   UNL     1      -1.747   7.199  14.883  0.00  0.00    +0.210 C 
ATOM     39  C   UNL     1      -2.676   6.554  13.837  0.00  0.00    +0.109 C 
ATOM     40  O   UNL     1      -0.746   6.603  15.282  0.00  0.00    -0.276 OA
ENDBRANCH  35  36
BRANCH  32  41
ATOM     41  C   UNL     1      -4.317  12.590  15.804  0.00  0.00    +0.414 C 
ATOM     42  O   UNL     1      -3.773  13.567  15.292  0.00  0.00    -0.240 OA
ATOM     43  O   UNL     1      -4.298  12.461  17.029  0.00  0.00    -0.240 OA
ENDBRANCH  32  41
BRANCH  34  44
ATOM     44  O   UNL     1      -2.179  10.002  12.904  0.00  0.00    -0.390 OA
ATOM     45  H   UNL     1      -1.376  10.522  12.823  0.00  0.00    +0.210 HD
ENDBRANCH  34  44
BRANCH  32  46
ATOM     46  O   UNL     1      -6.284  12.061  14.445  0.00  0.00    -0.343 OA
ATOM     47  C   UNL     1      -7.292  12.245  15.471  0.00  0.00    +0.198 C 
ENDBRANCH  32  46
ENDBRANCH  29  30
BRANCH  29  48
ATOM     48  O   UNL     1      -5.157   7.354  16.151  0.00  0.00    -0.387 OA
ATOM     49  H   UNL     1      -5.451   6.629  16.706  0.00  0.00    +0.210 HD
ENDBRANCH  29  48
ENDBRANCH  26  29
ENDBRANCH   1  26
TORSDOF 14
