REMARK VINA RESULT:    -5.838     15.028     17.254
REMARK INTER + INTRA:         -13.920
REMARK INTER:                 -11.529
REMARK INTRA:                  -2.391
REMARK UNBOUND:                -2.450
REMARK  Name = lig_assembled_10.pdb
REMARK  21 active torsions:
REMARK  status: ('A' for Active; 'I' for Inactive)
REMARK    1  A    between atoms: _2  and  _9
REMARK    2  A    between atoms: _4  and  _20
REMARK    3  A    between atoms: _5  and  _9
REMARK    4  A    between atoms: _5  and  _12
REMARK    5  A    between atoms: _6  and  _7
REMARK    6  A    between atoms: _6  and  _20
REMARK    7  A    between atoms: _9  and  _10
REMARK    8  A    between atoms: _10  and  _11
REMARK    9  A    between atoms: _11  and  _14
REMARK   10  A    between atoms: _16  and  _36
REMARK   11  A    between atoms: _18  and  _24
REMARK   12  A    between atoms: _19  and  _23
REMARK   13  A    between atoms: _23  and  _24
REMARK   14  A    between atoms: _26  and  _27
REMARK   15  A    between atoms: _28  and  _29
REMARK   16  A    between atoms: _30  and  _32
REMARK   17  A    between atoms: _32  and  _33
REMARK   18  A    between atoms: _32  and  _34
REMARK   19  A    between atoms: _34  and  _35
REMARK   20  A    between atoms: _34  and  _36
REMARK   21  A    between atoms: _37  and  _39
REMARK                            x       y       z     vdW  Elec       q    Type
REMARK                         _______ _______ _______ _____ _____    ______ ____
ROOT
ATOM      1  C   UNL     1       6.918   3.786  33.518  0.00  0.00    +0.163 C 
ENDROOT
BRANCH   1   2
ATOM      2  O   UNL     1       7.623   4.913  32.974  0.00  0.00    -0.388 OA
ATOM      3  H   UNL     1       8.453   5.030  33.444  0.00  0.00    +0.210 HD
ENDBRANCH   1   2
BRANCH   1   4
ATOM      4  C   UNL     1       5.688   4.242  34.322  0.00  0.00    +0.175 C 
BRANCH   4   5
ATOM      5  C   UNL     1       6.043   5.315  35.361  0.00  0.00    +0.176 C 
ATOM      6  O   UNL     1       7.428   5.113  35.758  0.00  0.00    -0.332 OA
ATOM      7  C   UNL     1       7.978   6.117  36.674  0.00  0.00    +0.277 C 
ATOM      8  C   UNL     1       7.086   6.247  37.933  0.00  0.00    +0.110 C 
ATOM      9  C   UNL     1       5.600   6.432  37.561  0.00  0.00    +0.143 C 
ATOM     10  C   UNL     1       5.133   5.336  36.603  0.00  0.00    +0.133 C 
BRANCH  10  11
ATOM     11  N   UNL     1       3.741   5.572  36.188  0.00  0.00    -0.308 N 
ATOM     12  H   UNL     1       3.564   6.328  35.542  0.00  0.00    +0.149 HD
ATOM     13  C   UNL     1       2.697   4.853  36.610  0.00  0.00    +0.210 C 
ATOM     14  C   UNL     1       2.998   3.725  37.615  0.00  0.00    +0.109 C 
ATOM     15  O   UNL     1       1.544   5.065  36.234  0.00  0.00    -0.276 OA
ENDBRANCH  10  11
BRANCH   7  16
ATOM     16  C   UNL     1       8.090   7.489  35.978  0.00  0.00    +0.414 C 
ATOM     17  O   UNL     1       8.270   8.509  36.642  0.00  0.00    -0.240 OA
ATOM     18  O   UNL     1       8.002   7.576  34.752  0.00  0.00    -0.240 OA
ENDBRANCH   7  16
BRANCH   7  19
ATOM     19  O   UNL     1       9.294   5.671  37.090  0.00  0.00    -0.343 OA
ATOM     20  C   UNL     1       9.659   4.340  36.646  0.00  0.00    +0.198 C 
ENDBRANCH   7  19
BRANCH   9  21
ATOM     21  O   UNL     1       4.799   6.396  38.744  0.00  0.00    -0.390 OA
ATOM     22  H   UNL     1       5.368   6.423  39.517  0.00  0.00    +0.210 HD
ENDBRANCH   9  21
ENDBRANCH   4   5
BRANCH   4  23
ATOM     23  O   UNL     1       5.070   3.111  34.967  0.00  0.00    -0.387 OA
ATOM     24  H   UNL     1       5.694   2.708  35.575  0.00  0.00    +0.210 HD
ENDBRANCH   4  23
ENDBRANCH   1   4
BRANCH   1  25
ATOM     25  C   UNL     1       6.475   2.856  32.393  0.00  0.00    +0.141 C 
BRANCH  25  28
ATOM     26  C   UNL     1       4.205   2.450  31.505  0.00  0.00    +0.401 C 
ATOM     27  O   UNL     1       4.248   1.231  31.692  0.00  0.00    -0.226 OA
ATOM     28  N   UNL     1       5.203   3.284  31.798  0.00  0.00    -0.279 N 
ATOM     29  H   UNL     1       5.077   4.267  31.599  0.00  0.00    +0.152 HD
BRANCH  26  30
ATOM     30  O   UNL     1       3.025   3.024  30.937  0.00  0.00    -0.444 OA
BRANCH  30  31
ATOM     31  C   UNL     1       2.416   2.084  30.048  0.00  0.00    +0.292 C 
BRANCH  31  33
ATOM     32  N   UNL     1       0.565   3.594  29.395  0.00  0.00    -0.131 NA
ATOM     33  C   UNL     1       1.611   2.789  29.033  0.00  0.00    +0.120 A 
ATOM     34  C   UNL     1       1.731   2.795  27.661  0.00  0.00    +0.138 A 
ATOM     35  N   UNL     1       0.760   3.653  27.245  0.00  0.00    -0.237 N 
ATOM     36  N   UNL     1       0.045   4.112  28.292  0.00  0.00    -0.065 NA
BRANCH  35  37
ATOM     37  C   UNL     1       0.407   4.120  25.914  0.00  0.00    +0.227 C 
BRANCH  37  38
ATOM     38  C   UNL     1      -0.905   4.871  25.838  0.00  0.00    +0.330 C 
ATOM     39  O   UNL     1      -0.974   6.000  25.366  0.00  0.00    -0.249 OA
BRANCH  38  40
ATOM     40  O   UNL     1      -2.013   4.233  26.271  0.00  0.00    -0.479 OA
ATOM     41  H   UNL     1      -2.600   3.838  25.575  0.00  0.00    +0.295 HD
ENDBRANCH  38  40
ENDBRANCH  37  38
BRANCH  37  42
ATOM     42  C   UNL     1       0.532   3.052  24.818  0.00  0.00    +0.158 C 
BRANCH  42  43
ATOM     43  C   UNL     1       1.640   3.361  23.851  0.00  0.00    +0.307 C 
ATOM     44  O   UNL     1       1.919   4.493  23.476  0.00  0.00    -0.251 OA
BRANCH  43  45
ATOM     45  O   UNL     1       2.359   2.281  23.492  0.00  0.00    -0.481 OA
ATOM     46  H   UNL     1       3.237   2.474  23.108  0.00  0.00    +0.295 HD
ENDBRANCH  43  45
ENDBRANCH  42  43
ENDBRANCH  37  42
ENDBRANCH  35  37
ENDBRANCH  31  33
ENDBRANCH  30  31
ENDBRANCH  26  30
ENDBRANCH  25  28
ENDBRANCH   1  25
TORSDOF 19
