REMARK VINA RESULT:    -6.966      7.016     12.163
REMARK INTER + INTRA:         -13.844
REMARK INTER:                 -11.628
REMARK INTRA:                  -2.215
REMARK UNBOUND:                -1.788
REMARK  Name = lig_assembled_20.pdb
REMARK  16 active torsions:
REMARK  status: ('A' for Active; 'I' for Inactive)
REMARK    1  A    between atoms: _2  and  _11
REMARK    2  A    between atoms: _6  and  _21
REMARK    3  A    between atoms: _8  and  _9
REMARK    4  A    between atoms: _8  and  _21
REMARK    5  A    between atoms: _17  and  _37
REMARK    6  A    between atoms: _19  and  _25
REMARK    7  A    between atoms: _20  and  _24
REMARK    8  A    between atoms: _24  and  _25
REMARK    9  A    between atoms: _27  and  _28
REMARK   10  A    between atoms: _29  and  _30
REMARK   11  A    between atoms: _31  and  _33
REMARK   12  A    between atoms: _33  and  _34
REMARK   13  A    between atoms: _33  and  _35
REMARK   14  A    between atoms: _35  and  _36
REMARK   15  A    between atoms: _35  and  _37
REMARK   16  A    between atoms: _38  and  _40
REMARK                            x       y       z     vdW  Elec       q    Type
REMARK                         _______ _______ _______ _____ _____    ______ ____
ROOT
ATOM      1  C   UNL     1       9.879   3.015  34.884  0.00  0.00    +0.163 C 
ENDROOT
BRANCH   1   2
ATOM      2  O   UNL     1       9.683   2.100  33.794  0.00  0.00    -0.388 OA
ATOM      3  H   UNL     1      10.228   1.320  33.927  0.00  0.00    +0.210 HD
ENDBRANCH   1   2
BRANCH   1   4
ATOM      4  C   UNL     1      11.033   2.541  35.762  0.00  0.00    +0.141 C 
BRANCH   4   7
ATOM      5  C   UNL     1      12.199   4.166  37.212  0.00  0.00    +0.401 C 
ATOM      6  O   UNL     1      11.579   3.847  38.229  0.00  0.00    -0.226 OA
ATOM      7  N   UNL     1      12.004   3.612  36.015  0.00  0.00    -0.279 N 
ATOM      8  H   UNL     1      12.556   3.949  35.238  0.00  0.00    +0.152 HD
BRANCH   5   9
ATOM      9  O   UNL     1      13.190   5.194  37.298  0.00  0.00    -0.444 OA
BRANCH   9  10
ATOM     10  C   UNL     1      14.441   4.693  36.818  0.00  0.00    +0.292 C 
BRANCH  10  12
ATOM     11  N   UNL     1      14.714   4.870  34.359  0.00  0.00    -0.131 NA
ATOM     12  C   UNL     1      14.856   5.417  35.601  0.00  0.00    +0.121 A 
ATOM     13  C   UNL     1      15.415   6.666  35.480  0.00  0.00    +0.143 A 
ATOM     14  N   UNL     1      15.602   6.847  34.129  0.00  0.00    -0.220 N 
ATOM     15  N   UNL     1      15.169   5.744  33.469  0.00  0.00    -0.060 NA
BRANCH  14  16
ATOM     16  C   UNL     1      16.147   7.971  33.456  0.00  0.00    +0.068 A 
ATOM     17  C   UNL     1      15.890   9.266  33.936  0.00  0.00    +0.030 A 
ATOM     18  C   UNL     1      16.418  10.397  33.298  0.00  0.00    +0.030 A 
ATOM     19  C   UNL     1      17.210  10.181  32.166  0.00  0.00    +0.066 A 
ATOM     20  C   UNL     1      17.480   8.914  31.665  0.00  0.00    +0.021 A 
ATOM     21  C   UNL     1      18.297   9.143  30.537  0.00  0.00    +0.142 A 
ATOM     22  N   UNL     1      18.534  10.440  30.328  0.00  0.00    -0.181 NA
ATOM     23  N   UNL     1      17.867  11.044  31.328  0.00  0.00    -0.277 N 
ATOM     24  H   UNL     1      17.896  12.055  31.383  0.00  0.00    +0.189 HD
ATOM     25  C   UNL     1      16.946   7.785  32.312  0.00  0.00    +0.039 A 
ENDBRANCH  14  16
ENDBRANCH  10  12
ENDBRANCH   9  10
ENDBRANCH   5   9
ENDBRANCH   4   7
ENDBRANCH   1   4
BRANCH   1  26
ATOM     26  C   UNL     1       8.604   3.138  35.735  0.00  0.00    +0.175 C 
BRANCH  26  27
ATOM     27  C   UNL     1       7.767   4.366  35.347  0.00  0.00    +0.176 C 
ATOM     28  O   UNL     1       7.494   5.123  36.559  0.00  0.00    -0.332 OA
ATOM     29  C   UNL     1       6.790   6.394  36.368  0.00  0.00    +0.277 C 
ATOM     30  C   UNL     1       5.474   6.171  35.583  0.00  0.00    +0.110 C 
ATOM     31  C   UNL     1       5.708   5.344  34.302  0.00  0.00    +0.143 C 
ATOM     32  C   UNL     1       6.450   4.044  34.616  0.00  0.00    +0.133 C 
BRANCH  32  33
ATOM     33  N   UNL     1       6.744   3.306  33.377  0.00  0.00    -0.308 N 
ATOM     34  H   UNL     1       7.343   3.749  32.695  0.00  0.00    +0.149 HD
ATOM     35  C   UNL     1       6.271   2.089  33.096  0.00  0.00    +0.210 C 
ATOM     36  C   UNL     1       5.341   1.451  34.145  0.00  0.00    +0.109 C 
ATOM     37  O   UNL     1       6.546   1.488  32.056  0.00  0.00    -0.276 OA
ENDBRANCH  32  33
BRANCH  29  38
ATOM     38  C   UNL     1       7.678   7.402  35.609  0.00  0.00    +0.414 C 
ATOM     39  O   UNL     1       8.867   7.526  35.904  0.00  0.00    -0.240 OA
ATOM     40  O   UNL     1       7.207   8.092  34.704  0.00  0.00    -0.240 OA
ENDBRANCH  29  38
BRANCH  31  41
ATOM     41  O   UNL     1       4.455   5.034  33.692  0.00  0.00    -0.390 OA
ATOM     42  H   UNL     1       4.591   4.405  32.980  0.00  0.00    +0.210 HD
ENDBRANCH  31  41
BRANCH  29  43
ATOM     43  O   UNL     1       6.458   6.924  37.677  0.00  0.00    -0.343 OA
ATOM     44  C   UNL     1       6.953   6.147  38.796  0.00  0.00    +0.198 C 
ENDBRANCH  29  43
ENDBRANCH  26  27
BRANCH  26  45
ATOM     45  O   UNL     1       8.943   3.191  37.135  0.00  0.00    -0.387 OA
ATOM     46  H   UNL     1       8.434   2.533  37.613  0.00  0.00    +0.210 HD
ENDBRANCH  26  45
ENDBRANCH   1  26
TORSDOF 14
