REMARK VINA RESULT:    -5.690      7.491     12.632
REMARK INTER + INTRA:         -12.569
REMARK INTER:                  -9.703
REMARK INTRA:                  -2.867
REMARK UNBOUND:                -2.722
REMARK  Name = lig_assembled_3.pdb
REMARK  16 active torsions:
REMARK  status: ('A' for Active; 'I' for Inactive)
REMARK    1  A    between atoms: _2  and  _9
REMARK    2  A    between atoms: _4  and  _18
REMARK    3  A    between atoms: _6  and  _7
REMARK    4  A    between atoms: _6  and  _18
REMARK    5  A    between atoms: _14  and  _34
REMARK    6  A    between atoms: _16  and  _22
REMARK    7  A    between atoms: _17  and  _21
REMARK    8  A    between atoms: _21  and  _22
REMARK    9  A    between atoms: _24  and  _25
REMARK   10  A    between atoms: _26  and  _27
REMARK   11  A    between atoms: _28  and  _30
REMARK   12  A    between atoms: _30  and  _31
REMARK   13  A    between atoms: _30  and  _32
REMARK   14  A    between atoms: _32  and  _33
REMARK   15  A    between atoms: _32  and  _34
REMARK   16  A    between atoms: _35  and  _37
REMARK                            x       y       z     vdW  Elec       q    Type
REMARK                         _______ _______ _______ _____ _____    ______ ____
ROOT
ATOM      1  C   UNL     1      -1.949   3.424  22.616  0.00  0.00    +0.163 C 
ENDROOT
BRANCH   1   2
ATOM      2  O   UNL     1      -2.925   2.539  22.041  0.00  0.00    -0.388 OA
ATOM      3  H   UNL     1      -3.432   3.010  21.376  0.00  0.00    +0.210 HD
ENDBRANCH   1   2
BRANCH   1   4
ATOM      4  C   UNL     1      -2.450   3.954  23.955  0.00  0.00    +0.141 C 
BRANCH   4   7
ATOM      5  C   UNL     1      -0.856   4.778  25.654  0.00  0.00    +0.401 C 
ATOM      6  O   UNL     1      -1.058   5.968  25.402  0.00  0.00    -0.226 OA
ATOM      7  N   UNL     1      -1.458   3.770  25.022  0.00  0.00    -0.279 N 
ATOM      8  H   UNL     1      -1.219   2.826  25.293  0.00  0.00    +0.152 HD
BRANCH   5   9
ATOM      9  O   UNL     1       0.081   4.434  26.678  0.00  0.00    -0.444 OA
BRANCH   9  10
ATOM     10  C   UNL     1      -0.432   3.343  27.447  0.00  0.00    +0.292 C 
BRANCH  10  12
ATOM     11  N   UNL     1      -0.406   1.010  26.622  0.00  0.00    -0.131 NA
ATOM     12  C   UNL     1       0.273   2.094  27.099  0.00  0.00    +0.121 A 
ATOM     13  C   UNL     1       1.614   1.793  27.164  0.00  0.00    +0.143 A 
ATOM     14  N   UNL     1       1.715   0.506  26.685  0.00  0.00    -0.220 N 
ATOM     15  N   UNL     1       0.475   0.049  26.378  0.00  0.00    -0.060 NA
BRANCH  14  16
ATOM     16  C   UNL     1       2.879  -0.281  26.490  0.00  0.00    +0.067 A 
ATOM     17  C   UNL     1       3.331  -0.590  25.199  0.00  0.00    +0.028 A 
ATOM     18  C   UNL     1       4.462  -1.392  25.028  0.00  0.00    +0.002 A 
ATOM     19  C   UNL     1       5.146  -1.886  26.136  0.00  0.00    +0.000 A 
ATOM     20  C   UNL     1       4.708  -1.575  27.422  0.00  0.00    +0.002 A 
ATOM     21  C   UNL     1       3.578  -0.774  27.602  0.00  0.00    +0.028 A 
ENDBRANCH  14  16
ENDBRANCH  10  12
ENDBRANCH   9  10
ENDBRANCH   5   9
ENDBRANCH   4   7
ENDBRANCH   1   4
BRANCH   1  22
ATOM     22  C   UNL     1      -1.654   4.604  21.674  0.00  0.00    +0.175 C 
BRANCH  22  23
ATOM     23  C   UNL     1      -0.646   4.230  20.577  0.00  0.00    +0.176 C 
ATOM     24  O   UNL     1      -1.364   3.509  19.537  0.00  0.00    -0.332 OA
ATOM     25  C   UNL     1      -0.578   3.161  18.350  0.00  0.00    +0.277 C 
ATOM     26  C   UNL     1       0.692   2.372  18.753  0.00  0.00    +0.110 C 
ATOM     27  C   UNL     1       1.471   3.083  19.879  0.00  0.00    +0.143 C 
ATOM     28  C   UNL     1       0.557   3.401  21.063  0.00  0.00    +0.133 C 
BRANCH  28  29
ATOM     29  N   UNL     1       1.290   4.156  22.092  0.00  0.00    -0.308 N 
ATOM     30  H   UNL     1       1.512   5.123  21.899  0.00  0.00    +0.149 HD
ATOM     31  C   UNL     1       1.681   3.647  23.263  0.00  0.00    +0.210 C 
ATOM     32  C   UNL     1       1.351   2.164  23.515  0.00  0.00    +0.109 C 
ATOM     33  O   UNL     1       2.281   4.307  24.112  0.00  0.00    -0.276 OA
ENDBRANCH  28  29
BRANCH  25  34
ATOM     34  C   UNL     1      -0.170   4.430  17.572  0.00  0.00    +0.414 C 
ATOM     35  O   UNL     1       0.775   4.398  16.785  0.00  0.00    -0.240 OA
ATOM     36  O   UNL     1      -0.786   5.485  17.732  0.00  0.00    -0.240 OA
ENDBRANCH  25  34
BRANCH  27  37
ATOM     37  O   UNL     1       2.544   2.252  20.323  0.00  0.00    -0.390 OA
ATOM     38  H   UNL     1       2.187   1.469  20.748  0.00  0.00    +0.210 HD
ENDBRANCH  27  37
BRANCH  25  39
ATOM     39  O   UNL     1      -1.395   2.312  17.504  0.00  0.00    -0.343 OA
ATOM     40  C   UNL     1      -0.792   1.043  17.146  0.00  0.00    +0.198 C 
ENDBRANCH  25  39
ENDBRANCH  22  23
BRANCH  22  41
ATOM     41  O   UNL     1      -1.171   5.733  22.428  0.00  0.00    -0.387 OA
ATOM     42  H   UNL     1      -1.832   5.993  23.074  0.00  0.00    +0.210 HD
ENDBRANCH  22  41
ENDBRANCH   1  22
TORSDOF 14
