REMARK VINA RESULT:    -6.190     13.579     14.939
REMARK INTER + INTRA:         -15.025
REMARK INTER:                 -12.543
REMARK INTRA:                  -2.482
REMARK UNBOUND:                -3.588
REMARK  Name = lig_assembled_58.pdb
REMARK  18 active torsions:
REMARK  status: ('A' for Active; 'I' for Inactive)
REMARK    1  A    between atoms: _2  and  _9
REMARK    2  A    between atoms: _4  and  _25
REMARK    3  A    between atoms: _6  and  _7
REMARK    4  A    between atoms: _6  and  _25
REMARK    5  A    between atoms: _9  and  _10
REMARK    6  A    between atoms: _9  and  _16
REMARK    7  A    between atoms: _21  and  _41
REMARK    8  A    between atoms: _23  and  _29
REMARK    9  A    between atoms: _24  and  _28
REMARK   10  A    between atoms: _28  and  _29
REMARK   11  A    between atoms: _31  and  _32
REMARK   12  A    between atoms: _33  and  _34
REMARK   13  A    between atoms: _35  and  _37
REMARK   14  A    between atoms: _37  and  _38
REMARK   15  A    between atoms: _37  and  _39
REMARK   16  A    between atoms: _39  and  _40
REMARK   17  A    between atoms: _39  and  _41
REMARK   18  A    between atoms: _42  and  _44
REMARK                            x       y       z     vdW  Elec       q    Type
REMARK                         _______ _______ _______ _____ _____    ______ ____
ROOT
ATOM      1  C   UNL     1       4.221   1.660  32.379  0.00  0.00    +0.141 C 
ENDROOT
BRANCH   1   4
ATOM      2  C   UNL     1       2.294   1.834  30.843  0.00  0.00    +0.401 C 
ATOM      3  O   UNL     1       1.759   2.754  31.466  0.00  0.00    -0.226 OA
ATOM      4  N   UNL     1       3.442   1.258  31.201  0.00  0.00    -0.279 N 
ATOM      5  H   UNL     1       3.796   0.504  30.631  0.00  0.00    +0.152 HD
BRANCH   2   6
ATOM      6  O   UNL     1       1.659   1.335  29.662  0.00  0.00    -0.444 OA
BRANCH   6   7
ATOM      7  C   UNL     1       0.814   2.347  29.110  0.00  0.00    +0.292 C 
BRANCH   7   9
ATOM      8  N   UNL     1       2.145   3.828  27.623  0.00  0.00    -0.131 NA
ATOM      9  C   UNL     1       1.307   2.757  27.782  0.00  0.00    +0.120 A 
ATOM     10  C   UNL     1       1.082   2.180  26.554  0.00  0.00    +0.138 A 
ATOM     11  N   UNL     1       1.929   2.843  25.709  0.00  0.00    -0.240 N 
ATOM     12  N   UNL     1       2.505   3.887  26.347  0.00  0.00    -0.064 NA
BRANCH  11  13
ATOM     13  C   UNL     1       2.280   2.541  24.309  0.00  0.00    +0.169 C 
BRANCH  13  14
ATOM     14  C   UNL     1       2.239   1.024  24.075  0.00  0.00    -0.019 A 
ATOM     15  C   UNL     1       3.264   0.204  24.577  0.00  0.00    +0.006 A 
ATOM     16  C   UNL     1       3.266  -1.170  24.320  0.00  0.00    +0.000 A 
ATOM     17  C   UNL     1       2.242  -1.748  23.572  0.00  0.00    +0.000 A 
ATOM     18  C   UNL     1       1.221  -0.953  23.064  0.00  0.00    +0.000 A 
ATOM     19  C   UNL     1       1.227   0.420  23.303  0.00  0.00    +0.006 A 
ENDBRANCH  13  14
BRANCH  13  20
ATOM     20  C   UNL     1       1.475   3.373  23.302  0.00  0.00    -0.019 A 
ATOM     21  C   UNL     1       1.939   3.579  21.990  0.00  0.00    +0.006 A 
ATOM     22  C   UNL     1       1.202   4.339  21.078  0.00  0.00    +0.000 A 
ATOM     23  C   UNL     1      -0.021   4.888  21.451  0.00  0.00    +0.000 A 
ATOM     24  C   UNL     1      -0.525   4.652  22.723  0.00  0.00    +0.000 A 
ATOM     25  C   UNL     1       0.205   3.888  23.631  0.00  0.00    +0.006 A 
ENDBRANCH  13  20
ENDBRANCH  11  13
ENDBRANCH   7   9
ENDBRANCH   6   7
ENDBRANCH   2   6
ENDBRANCH   1   4
BRANCH   1  26
ATOM     26  C   UNL     1       5.012   2.939  32.129  0.00  0.00    +0.163 C 
BRANCH  26  27
ATOM     27  O   UNL     1       4.287   4.073  32.634  0.00  0.00    -0.388 OA
ATOM     28  H   UNL     1       4.823   4.864  32.540  0.00  0.00    +0.210 HD
ENDBRANCH  26  27
BRANCH  26  29
ATOM     29  C   UNL     1       6.394   2.828  32.797  0.00  0.00    +0.175 C 
BRANCH  29  30
ATOM     30  C   UNL     1       6.430   3.520  34.167  0.00  0.00    +0.176 C 
ATOM     31  O   UNL     1       6.854   4.896  33.962  0.00  0.00    -0.332 OA
ATOM     32  C   UNL     1       6.847   5.746  35.156  0.00  0.00    +0.277 C 
ATOM     33  C   UNL     1       7.688   5.102  36.285  0.00  0.00    +0.110 C 
ATOM     34  C   UNL     1       7.295   3.628  36.518  0.00  0.00    +0.143 C 
ATOM     35  C   UNL     1       7.334   2.836  35.210  0.00  0.00    +0.133 C 
BRANCH  35  36
ATOM     36  N   UNL     1       6.874   1.456  35.429  0.00  0.00    -0.308 N 
ATOM     37  H   UNL     1       5.913   1.318  35.711  0.00  0.00    +0.149 HD
ATOM     38  C   UNL     1       7.642   0.374  35.280  0.00  0.00    +0.210 C 
ATOM     39  C   UNL     1       9.108   0.619  34.875  0.00  0.00    +0.109 C 
ATOM     40  O   UNL     1       7.226  -0.772  35.457  0.00  0.00    -0.276 OA
ENDBRANCH  35  36
BRANCH  32  41
ATOM     41  C   UNL     1       5.405   5.975  35.655  0.00  0.00    +0.414 C 
ATOM     42  O   UNL     1       4.457   5.888  34.875  0.00  0.00    -0.240 OA
ATOM     43  O   UNL     1       5.189   6.247  36.837  0.00  0.00    -0.240 OA
ENDBRANCH  32  41
BRANCH  34  44
ATOM     44  O   UNL     1       8.193   3.032  37.455  0.00  0.00    -0.390 OA
ATOM     45  H   UNL     1       8.962   2.692  36.992  0.00  0.00    +0.210 HD
ENDBRANCH  34  44
BRANCH  32  46
ATOM     46  O   UNL     1       7.450   7.018  34.805  0.00  0.00    -0.343 OA
ATOM     47  C   UNL     1       8.186   7.663  35.876  0.00  0.00    +0.198 C 
ENDBRANCH  32  46
ENDBRANCH  29  30
BRANCH  29  48
ATOM     48  O   UNL     1       7.408   3.380  31.934  0.00  0.00    -0.387 OA
ATOM     49  H   UNL     1       8.199   3.565  32.447  0.00  0.00    +0.210 HD
ENDBRANCH  29  48
ENDBRANCH  26  29
ENDBRANCH   1  26
TORSDOF 16
