REMARK VINA RESULT:    -6.407      5.892      9.320
REMARK INTER + INTRA:         -13.641
REMARK INTER:                 -10.820
REMARK INTRA:                  -2.820
REMARK UNBOUND:                -1.802
REMARK  Name = lig_assembled_36.pdb
REMARK  18 active torsions:
REMARK  status: ('A' for Active; 'I' for Inactive)
REMARK    1  A    between atoms: _2  and  _10
REMARK    2  A    between atoms: _5  and  _21
REMARK    3  A    between atoms: _7  and  _8
REMARK    4  A    between atoms: _7  and  _21
REMARK    5  A    between atoms: _10  and  _11
REMARK    6  A    between atoms: _14  and  _15
REMARK    7  A    between atoms: _17  and  _37
REMARK    8  A    between atoms: _19  and  _25
REMARK    9  A    between atoms: _20  and  _24
REMARK   10  A    between atoms: _24  and  _25
REMARK   11  A    between atoms: _27  and  _28
REMARK   12  A    between atoms: _29  and  _30
REMARK   13  A    between atoms: _31  and  _33
REMARK   14  A    between atoms: _33  and  _34
REMARK   15  A    between atoms: _33  and  _35
REMARK   16  A    between atoms: _35  and  _36
REMARK   17  A    between atoms: _35  and  _37
REMARK   18  A    between atoms: _38  and  _40
REMARK                            x       y       z     vdW  Elec       q    Type
REMARK                         _______ _______ _______ _____ _____    ______ ____
ROOT
ATOM      1  C   UNL     1      16.919   3.663  22.689  0.00  0.00    +0.163 C 
ENDROOT
BRANCH   1   2
ATOM      2  O   UNL     1      15.953   2.987  23.511  0.00  0.00    -0.388 OA
ATOM      3  H   UNL     1      16.399   2.339  24.062  0.00  0.00    +0.210 HD
ENDBRANCH   1   2
BRANCH   1   4
ATOM      4  C   UNL     1      18.260   3.813  23.427  0.00  0.00    +0.175 C 
BRANCH   4   5
ATOM      5  C   UNL     1      18.444   2.745  24.515  0.00  0.00    +0.176 C 
ATOM      6  O   UNL     1      17.792   3.222  25.724  0.00  0.00    -0.332 OA
ATOM      7  C   UNL     1      17.774   2.280  26.848  0.00  0.00    +0.277 C 
ATOM      8  C   UNL     1      19.210   1.806  27.179  0.00  0.00    +0.110 C 
ATOM      9  C   UNL     1      19.955   1.319  25.918  0.00  0.00    +0.143 C 
ATOM     10  C   UNL     1      19.909   2.374  24.812  0.00  0.00    +0.133 C 
BRANCH  10  11
ATOM     11  N   UNL     1      20.546   1.865  23.588  0.00  0.00    -0.308 N 
ATOM     12  H   UNL     1      20.114   1.078  23.124  0.00  0.00    +0.149 HD
ATOM     13  C   UNL     1      21.657   2.374  23.049  0.00  0.00    +0.210 C 
ATOM     14  C   UNL     1      22.305   3.556  23.795  0.00  0.00    +0.109 C 
ATOM     15  O   UNL     1      22.160   1.936  22.014  0.00  0.00    -0.276 OA
ENDBRANCH  10  11
BRANCH   7  16
ATOM     16  C   UNL     1      16.890   1.059  26.523  0.00  0.00    +0.414 C 
ATOM     17  O   UNL     1      15.890   1.187  25.818  0.00  0.00    -0.240 OA
ATOM     18  O   UNL     1      17.175  -0.054  26.966  0.00  0.00    -0.240 OA
ENDBRANCH   7  16
BRANCH   7  19
ATOM     19  O   UNL     1      17.243   2.974  28.006  0.00  0.00    -0.343 OA
ATOM     20  C   UNL     1      18.236   3.402  28.972  0.00  0.00    +0.198 C 
ENDBRANCH   7  19
BRANCH   9  21
ATOM     21  O   UNL     1      21.317   1.036  26.242  0.00  0.00    -0.390 OA
ATOM     22  H   UNL     1      21.372   0.718  27.146  0.00  0.00    +0.210 HD
ENDBRANCH   9  21
ENDBRANCH   4   5
BRANCH   4  23
ATOM     23  O   UNL     1      18.366   5.131  24.001  0.00  0.00    -0.387 OA
ATOM     24  H   UNL     1      17.761   5.207  24.743  0.00  0.00    +0.210 HD
ENDBRANCH   4  23
ENDBRANCH   1   4
BRANCH   1  25
ATOM     25  C   UNL     1      17.134   2.888  21.393  0.00  0.00    +0.141 C 
BRANCH  25  28
ATOM     26  C   UNL     1      18.334   0.733  21.250  0.00  0.00    +0.401 C 
ATOM     27  O   UNL     1      19.300   1.203  20.644  0.00  0.00    -0.226 OA
ATOM     28  N   UNL     1      17.275   1.447  21.633  0.00  0.00    -0.279 N 
ATOM     29  H   UNL     1      16.528   0.969  22.117  0.00  0.00    +0.152 HD
BRANCH  26  30
ATOM     30  O   UNL     1      18.326  -0.661  21.567  0.00  0.00    -0.444 OA
BRANCH  30  31
ATOM     31  C   UNL     1      18.141  -0.829  22.975  0.00  0.00    +0.292 C 
BRANCH  31  33
ATOM     32  N   UNL     1      18.260  -3.303  23.056  0.00  0.00    -0.131 NA
ATOM     33  C   UNL     1      17.549  -2.150  23.259  0.00  0.00    +0.120 A 
ATOM     34  C   UNL     1      16.305  -2.469  23.757  0.00  0.00    +0.137 A 
ATOM     35  N   UNL     1      16.360  -3.822  23.923  0.00  0.00    -0.247 N 
ATOM     36  N   UNL     1      17.514  -4.325  23.449  0.00  0.00    -0.065 NA
BRANCH  35  37
ATOM     37  C   UNL     1      15.370  -4.687  24.533  0.00  0.00    +0.180 C 
BRANCH  37  38
ATOM     38  C   UNL     1      15.540  -4.741  26.034  0.00  0.00    -0.026 A 
ATOM     39  C   UNL     1      14.532  -4.272  26.890  0.00  0.00    +0.007 A 
ATOM     40  C   UNL     1      14.696  -4.330  28.278  0.00  0.00    +0.019 A 
ATOM     41  C   UNL     1      15.871  -4.853  28.828  0.00  0.00    +0.052 A 
ATOM     42  C   UNL     1      16.889  -5.299  27.982  0.00  0.00    +0.019 A 
ATOM     43  C   UNL     1      16.726  -5.240  26.595  0.00  0.00    +0.007 A 
BRANCH  41  44
ATOM     44  C   UNL     1      16.028  -4.931  30.253  0.00  0.00    +0.099 C 
ATOM     45  N   UNL     1      16.154  -4.982  31.405  0.00  0.00    -0.191 NA
ENDBRANCH  41  44
ENDBRANCH  37  38
ENDBRANCH  35  37
ENDBRANCH  31  33
ENDBRANCH  30  31
ENDBRANCH  26  30
ENDBRANCH  25  28
ENDBRANCH   1  25
TORSDOF 16
