REMARK VINA RESULT:    -5.507     15.197     18.110
REMARK INTER + INTRA:         -13.992
REMARK INTER:                 -11.140
REMARK INTRA:                  -2.852
REMARK UNBOUND:                -2.852
REMARK  Name = lig_assembled_11.pdb
REMARK  22 active torsions:
REMARK  status: ('A' for Active; 'I' for Inactive)
REMARK    1  A    between atoms: _2  and  _9
REMARK    2  A    between atoms: _4  and  _21
REMARK    3  A    between atoms: _5  and  _9
REMARK    4  A    between atoms: _5  and  _13
REMARK    5  A    between atoms: _6  and  _7
REMARK    6  A    between atoms: _6  and  _21
REMARK    7  A    between atoms: _9  and  _10
REMARK    8  A    between atoms: _10  and  _11
REMARK    9  A    between atoms: _11  and  _12
REMARK   10  A    between atoms: _12  and  _15
REMARK   11  A    between atoms: _17  and  _37
REMARK   12  A    between atoms: _19  and  _25
REMARK   13  A    between atoms: _20  and  _24
REMARK   14  A    between atoms: _24  and  _25
REMARK   15  A    between atoms: _27  and  _28
REMARK   16  A    between atoms: _29  and  _30
REMARK   17  A    between atoms: _31  and  _33
REMARK   18  A    between atoms: _33  and  _34
REMARK   19  A    between atoms: _33  and  _35
REMARK   20  A    between atoms: _35  and  _36
REMARK   21  A    between atoms: _35  and  _37
REMARK   22  A    between atoms: _38  and  _40
REMARK                            x       y       z     vdW  Elec       q    Type
REMARK                         _______ _______ _______ _____ _____    ______ ____
ROOT
ATOM      1  C   UNL     1      -1.520   3.168  28.826  0.00  0.00    +0.163 C 
ENDROOT
BRANCH   1   2
ATOM      2  O   UNL     1      -1.156   4.479  28.365  0.00  0.00    -0.388 OA
ATOM      3  H   UNL     1      -1.524   5.141  28.955  0.00  0.00    +0.210 HD
ENDBRANCH   1   2
BRANCH   1   4
ATOM      4  C   UNL     1      -0.990   2.083  27.873  0.00  0.00    +0.175 C 
BRANCH   4   5
ATOM      5  C   UNL     1      -0.211   2.681  26.692  0.00  0.00    +0.176 C 
ATOM      6  O   UNL     1      -1.166   2.997  25.642  0.00  0.00    -0.332 OA
ATOM      7  C   UNL     1      -0.613   3.679  24.468  0.00  0.00    +0.277 C 
ATOM      8  C   UNL     1       0.567   2.868  23.877  0.00  0.00    +0.110 C 
ATOM      9  C   UNL     1       1.592   2.481  24.962  0.00  0.00    +0.143 C 
ATOM     10  C   UNL     1       0.909   1.781  26.138  0.00  0.00    +0.133 C 
BRANCH  10  11
ATOM     11  N   UNL     1       1.882   1.495  27.204  0.00  0.00    -0.308 N 
ATOM     12  H   UNL     1       2.354   2.278  27.634  0.00  0.00    +0.149 HD
ATOM     13  C   UNL     1       2.183   0.268  27.639  0.00  0.00    +0.210 C 
ATOM     14  C   UNL     1       1.466  -0.905  26.944  0.00  0.00    +0.109 C 
ATOM     15  O   UNL     1       2.992   0.059  28.544  0.00  0.00    -0.276 OA
ENDBRANCH  10  11
BRANCH   7  16
ATOM     16  C   UNL     1      -0.130   5.098  24.836  0.00  0.00    +0.414 C 
ATOM     17  O   UNL     1       0.969   5.497  24.453  0.00  0.00    -0.240 OA
ATOM     18  O   UNL     1      -0.838   5.842  25.515  0.00  0.00    -0.240 OA
ENDBRANCH   7  16
BRANCH   7  19
ATOM     19  O   UNL     1      -1.658   3.764  23.465  0.00  0.00    -0.343 OA
ATOM     20  C   UNL     1      -1.272   4.427  22.234  0.00  0.00    +0.198 C 
ENDBRANCH   7  19
BRANCH   9  21
ATOM     21  O   UNL     1       2.578   1.611  24.405  0.00  0.00    -0.390 OA
ATOM     22  H   UNL     1       2.170   1.045  23.745  0.00  0.00    +0.210 HD
ENDBRANCH   9  21
ENDBRANCH   4   5
BRANCH   4  23
ATOM     23  O   UNL     1      -2.080   1.272  27.390  0.00  0.00    -0.387 OA
ATOM     24  H   UNL     1      -2.429   1.654  26.582  0.00  0.00    +0.210 HD
ENDBRANCH   4  23
ENDBRANCH   1   4
BRANCH   1  25
ATOM     25  C   UNL     1      -0.961   2.934  30.226  0.00  0.00    +0.141 C 
BRANCH  25  28
ATOM     26  C   UNL     1       1.466   3.400  30.272  0.00  0.00    +0.401 C 
ATOM     27  O   UNL     1       1.325   4.621  30.372  0.00  0.00    -0.226 OA
ATOM     28  N   UNL     1       0.452   2.537  30.192  0.00  0.00    -0.279 N 
ATOM     29  H   UNL     1       0.669   1.554  30.102  0.00  0.00    +0.152 HD
BRANCH  26  30
ATOM     30  O   UNL     1       2.787   2.854  30.234  0.00  0.00    -0.444 OA
BRANCH  30  31
ATOM     31  C   UNL     1       2.982   1.995  31.360  0.00  0.00    +0.292 C 
BRANCH  31  33
ATOM     32  N   UNL     1       5.374   1.444  31.681  0.00  0.00    -0.131 NA
ATOM     33  C   UNL     1       4.301   2.241  31.973  0.00  0.00    +0.120 A 
ATOM     34  C   UNL     1       4.695   3.216  32.859  0.00  0.00    +0.138 A 
ATOM     35  N   UNL     1       6.009   2.937  33.106  0.00  0.00    -0.238 N 
ATOM     36  N   UNL     1       6.418   1.886  32.370  0.00  0.00    -0.065 NA
BRANCH  35  37
ATOM     37  C   UNL     1       6.998   3.664  33.895  0.00  0.00    +0.217 C 
BRANCH  37  38
ATOM     38  C   UNL     1       8.063   2.773  34.517  0.00  0.00    +0.330 C 
ATOM     39  O   UNL     1       8.065   2.356  35.666  0.00  0.00    -0.249 OA
BRANCH  38  40
ATOM     40  O   UNL     1       9.077   2.453  33.674  0.00  0.00    -0.479 OA
ATOM     41  H   UNL     1       9.861   3.035  33.679  0.00  0.00    +0.295 HD
ENDBRANCH  38  40
ENDBRANCH  37  38
BRANCH  37  42
ATOM     42  C   UNL     1       6.337   4.602  34.920  0.00  0.00    +0.049 C 
BRANCH  42  43
ATOM     43  C   UNL     1       7.062   5.937  35.135  0.00  0.00    +0.123 C 
BRANCH  43  44
ATOM     44  C   UNL     1       6.290   7.079  34.513  0.00  0.00    +0.305 C 
ATOM     45  O   UNL     1       6.663   8.240  34.490  0.00  0.00    -0.251 OA
BRANCH  44  46
ATOM     46  O   UNL     1       5.106   6.684  33.993  0.00  0.00    -0.481 OA
ATOM     47  H   UNL     1       4.900   7.067  33.119  0.00  0.00    +0.295 HD
ENDBRANCH  44  46
ENDBRANCH  43  44
ENDBRANCH  42  43
ENDBRANCH  37  42
ENDBRANCH  35  37
ENDBRANCH  31  33
ENDBRANCH  30  31
ENDBRANCH  26  30
ENDBRANCH  25  28
ENDBRANCH   1  25
TORSDOF 20
