REMARK VINA RESULT:    -5.175     11.387     15.345
REMARK INTER + INTRA:         -13.244
REMARK INTER:                 -11.095
REMARK INTRA:                  -2.149
REMARK UNBOUND:                -3.380
REMARK  Name = lig_assembled_62.pdb
REMARK  20 active torsions:
REMARK  status: ('A' for Active; 'I' for Inactive)
REMARK    1  A    between atoms: _2  and  _10
REMARK    2  A    between atoms: _5  and  _19
REMARK    3  A    between atoms: _6  and  _10
REMARK    4  A    between atoms: _7  and  _8
REMARK    5  A    between atoms: _7  and  _19
REMARK    6  A    between atoms: _10  and  _11
REMARK    7  A    between atoms: _11  and  _14
REMARK    8  A    between atoms: _12  and  _14
REMARK    9  A    between atoms: _15  and  _35
REMARK   10  A    between atoms: _17  and  _23
REMARK   11  A    between atoms: _18  and  _22
REMARK   12  A    between atoms: _22  and  _23
REMARK   13  A    between atoms: _25  and  _26
REMARK   14  A    between atoms: _27  and  _28
REMARK   15  A    between atoms: _29  and  _31
REMARK   16  A    between atoms: _31  and  _32
REMARK   17  A    between atoms: _31  and  _33
REMARK   18  A    between atoms: _33  and  _34
REMARK   19  A    between atoms: _33  and  _35
REMARK   20  A    between atoms: _36  and  _38
REMARK                            x       y       z     vdW  Elec       q    Type
REMARK                         _______ _______ _______ _____ _____    ______ ____
ROOT
ATOM      1  C   UNL     1       9.833   2.981  34.850  0.00  0.00    +0.163 C 
ENDROOT
BRANCH   1   2
ATOM      2  O   UNL     1       9.559   2.159  33.704  0.00  0.00    -0.388 OA
ATOM      3  H   UNL     1       9.601   2.695  32.908  0.00  0.00    +0.210 HD
ENDBRANCH   1   2
BRANCH   1   4
ATOM      4  C   UNL     1       8.573   3.157  35.715  0.00  0.00    +0.175 C 
BRANCH   4   5
ATOM      5  C   UNL     1       7.777   4.412  35.328  0.00  0.00    +0.176 C 
ATOM      6  O   UNL     1       7.524   5.173  36.540  0.00  0.00    -0.332 OA
ATOM      7  C   UNL     1       6.860   6.467  36.350  0.00  0.00    +0.277 C 
ATOM      8  C   UNL     1       5.541   6.287  35.560  0.00  0.00    +0.110 C 
ATOM      9  C   UNL     1       5.753   5.455  34.277  0.00  0.00    +0.143 C 
ATOM     10  C   UNL     1       6.453   4.132  34.591  0.00  0.00    +0.133 C 
BRANCH  10  11
ATOM     11  N   UNL     1       6.728   3.389  33.352  0.00  0.00    -0.308 N 
ATOM     12  H   UNL     1       7.363   3.803  32.684  0.00  0.00    +0.149 HD
ATOM     13  C   UNL     1       6.194   2.202  33.052  0.00  0.00    +0.210 C 
ATOM     14  C   UNL     1       5.210   1.609  34.078  0.00  0.00    +0.109 C 
ATOM     15  O   UNL     1       6.454   1.595  32.012  0.00  0.00    -0.276 OA
ENDBRANCH  10  11
BRANCH   7  16
ATOM     16  C   UNL     1       7.782   7.448  35.597  0.00  0.00    +0.414 C 
ATOM     17  O   UNL     1       8.945   7.613  35.964  0.00  0.00    -0.240 OA
ATOM     18  O   UNL     1       7.363   8.076  34.623  0.00  0.00    -0.240 OA
ENDBRANCH   7  16
BRANCH   7  19
ATOM     19  O   UNL     1       6.540   7.004  37.659  0.00  0.00    -0.343 OA
ATOM     20  C   UNL     1       6.577   6.040  38.742  0.00  0.00    +0.198 C 
ENDBRANCH   7  19
BRANCH   9  21
ATOM     21  O   UNL     1       4.493   5.186  33.663  0.00  0.00    -0.390 OA
ATOM     22  H   UNL     1       4.238   4.277  33.838  0.00  0.00    +0.210 HD
ENDBRANCH   9  21
ENDBRANCH   4   5
BRANCH   4  23
ATOM     23  O   UNL     1       8.932   3.208  37.111  0.00  0.00    -0.387 OA
ATOM     24  H   UNL     1       9.836   3.519  37.198  0.00  0.00    +0.210 HD
ENDBRANCH   4  23
ENDBRANCH   1   4
BRANCH   1  25
ATOM     25  C   UNL     1      10.943   2.355  35.688  0.00  0.00    +0.141 C 
BRANCH  25  28
ATOM     26  C   UNL     1      13.123   3.503  35.496  0.00  0.00    +0.401 C 
ATOM     27  O   UNL     1      13.501   2.826  34.537  0.00  0.00    -0.226 OA
ATOM     28  N   UNL     1      11.944   3.346  36.100  0.00  0.00    -0.279 N 
ATOM     29  H   UNL     1      11.728   3.944  36.886  0.00  0.00    +0.152 HD
BRANCH  26  30
ATOM     30  O   UNL     1      13.985   4.520  36.012  0.00  0.00    -0.444 OA
BRANCH  30  31
ATOM     31  C   UNL     1      15.211   4.526  35.275  0.00  0.00    +0.292 C 
BRANCH  31  33
ATOM     32  N   UNL     1      15.226   5.922  33.229  0.00  0.00    -0.131 NA
ATOM     33  C   UNL     1      15.388   5.818  34.585  0.00  0.00    +0.120 A 
ATOM     34  C   UNL     1      15.714   7.055  35.094  0.00  0.00    +0.138 A 
ATOM     35  N   UNL     1      15.751   7.868  33.998  0.00  0.00    -0.237 N 
ATOM     36  N   UNL     1      15.448   7.182  32.880  0.00  0.00    -0.065 NA
BRANCH  35  37
ATOM     37  C   UNL     1      16.023   9.293  33.912  0.00  0.00    +0.219 C 
BRANCH  37  38
ATOM     38  C   UNL     1      16.841   9.599  32.667  0.00  0.00    +0.237 C 
ATOM     39  O   UNL     1      16.591  10.510  31.881  0.00  0.00    -0.274 OA
ATOM     40  N   UNL     1      17.955   8.827  32.475  0.00  0.00    -0.328 N 
ATOM     41  H   UNL     1      18.270   8.121  33.128  0.00  0.00    +0.145 HD
ATOM     42  H   UNL     1      18.523   9.015  31.658  0.00  0.00    +0.145 HD
ENDBRANCH  37  38
BRANCH  37  43
ATOM     43  C   UNL     1      16.737   9.784  35.169  0.00  0.00    +0.195 C 
BRANCH  43  44
ATOM     44  O   UNL     1      16.057  10.939  35.680  0.00  0.00    -0.380 OA
ATOM     45  C   UNL     1      16.593  11.355  36.931  0.00  0.00    +0.194 C 
ENDBRANCH  43  44
ENDBRANCH  37  43
ENDBRANCH  35  37
ENDBRANCH  31  33
ENDBRANCH  30  31
ENDBRANCH  26  30
ENDBRANCH  25  28
ENDBRANCH   1  25
TORSDOF 17
