REMARK VINA RESULT:    -6.794     20.232     25.099
REMARK INTER + INTRA:         -15.252
REMARK INTER:                 -13.051
REMARK INTRA:                  -2.201
REMARK UNBOUND:                -2.499
REMARK  Name = lig_assembled_64.pdb
REMARK  19 active torsions:
REMARK  status: ('A' for Active; 'I' for Inactive)
REMARK    1  A    between atoms: _2  and  _10
REMARK    2  A    between atoms: _5  and  _27
REMARK    3  A    between atoms: _7  and  _8
REMARK    4  A    between atoms: _7  and  _27
REMARK    5  A    between atoms: _12  and  _13
REMARK    6  A    between atoms: _13  and  _21
REMARK    7  A    between atoms: _14  and  _15
REMARK    8  A    between atoms: _23  and  _43
REMARK    9  A    between atoms: _25  and  _31
REMARK   10  A    between atoms: _26  and  _30
REMARK   11  A    between atoms: _30  and  _31
REMARK   12  A    between atoms: _33  and  _34
REMARK   13  A    between atoms: _35  and  _36
REMARK   14  A    between atoms: _37  and  _39
REMARK   15  A    between atoms: _39  and  _40
REMARK   16  A    between atoms: _39  and  _41
REMARK   17  A    between atoms: _41  and  _42
REMARK   18  A    between atoms: _41  and  _43
REMARK   19  A    between atoms: _44  and  _46
REMARK                            x       y       z     vdW  Elec       q    Type
REMARK                         _______ _______ _______ _____ _____    ______ ____
ROOT
ATOM      1  C   UNL     1       2.227  23.976  16.722  0.00  0.00    +0.401 C 
ATOM      2  O   UNL     1       2.341  25.196  16.862  0.00  0.00    -0.226 OA
ATOM      3  N   UNL     1       3.230  23.111  16.878  0.00  0.00    -0.279 N 
ATOM      4  H   UNL     1       3.036  22.127  16.751  0.00  0.00    +0.152 HD
ENDROOT
BRANCH   3   5
ATOM      5  C   UNL     1       4.601  23.506  17.224  0.00  0.00    +0.141 C 
BRANCH   5   6
ATOM      6  C   UNL     1       5.612  23.012  16.195  0.00  0.00    +0.163 C 
BRANCH   6   7
ATOM      7  O   UNL     1       5.548  21.581  16.091  0.00  0.00    -0.388 OA
ATOM      8  H   UNL     1       6.219  21.188  16.655  0.00  0.00    +0.210 HD
ENDBRANCH   6   7
BRANCH   6   9
ATOM      9  C   UNL     1       5.328  23.676  14.836  0.00  0.00    +0.175 C 
BRANCH   9  10
ATOM     10  C   UNL     1       6.507  23.526  13.862  0.00  0.00    +0.176 C 
ATOM     11  O   UNL     1       7.104  24.839  13.677  0.00  0.00    -0.332 OA
ATOM     12  C   UNL     1       8.317  24.873  12.855  0.00  0.00    +0.277 C 
ATOM     13  C   UNL     1       8.055  24.218  11.477  0.00  0.00    +0.110 C 
ATOM     14  C   UNL     1       7.391  22.833  11.621  0.00  0.00    +0.143 C 
ATOM     15  C   UNL     1       6.141  22.913  12.498  0.00  0.00    +0.133 C 
BRANCH  15  16
ATOM     16  N   UNL     1       5.567  21.573  12.699  0.00  0.00    -0.308 N 
ATOM     17  H   UNL     1       6.115  20.897  13.213  0.00  0.00    +0.149 HD
ATOM     18  C   UNL     1       4.369  21.192  12.248  0.00  0.00    +0.210 C 
ATOM     19  C   UNL     1       3.569  22.236  11.446  0.00  0.00    +0.109 C 
ATOM     20  O   UNL     1       3.907  20.067  12.444  0.00  0.00    -0.276 OA
ENDBRANCH  15  16
BRANCH  12  21
ATOM     21  C   UNL     1       9.477  24.141  13.561  0.00  0.00    +0.414 C 
ATOM     22  O   UNL     1       9.461  23.987  14.782  0.00  0.00    -0.240 OA
ATOM     23  O   UNL     1      10.429  23.706  12.911  0.00  0.00    -0.240 OA
ENDBRANCH  12  21
BRANCH  12  24
ATOM     24  O   UNL     1       8.675  26.263  12.641  0.00  0.00    -0.343 OA
ATOM     25  C   UNL     1       8.166  26.844  11.414  0.00  0.00    +0.198 C 
ENDBRANCH  12  24
BRANCH  14  26
ATOM     26  O   UNL     1       7.031  22.335  10.332  0.00  0.00    -0.390 OA
ATOM     27  H   UNL     1       7.245  21.400  10.278  0.00  0.00    +0.210 HD
ENDBRANCH  14  26
ENDBRANCH   9  10
BRANCH   9  28
ATOM     28  O   UNL     1       5.011  25.070  15.021  0.00  0.00    -0.387 OA
ATOM     29  H   UNL     1       4.966  25.504  14.166  0.00  0.00    +0.210 HD
ENDBRANCH   9  28
ENDBRANCH   6   9
ENDBRANCH   5   6
ENDBRANCH   3   5
BRANCH   1  30
ATOM     30  O   UNL     1       0.951  23.433  16.375  0.00  0.00    -0.444 OA
BRANCH  30  31
ATOM     31  C   UNL     1      -0.077  24.150  17.065  0.00  0.00    +0.292 C 
BRANCH  31  33
ATOM     32  N   UNL     1      -2.210  23.322  18.023  0.00  0.00    -0.131 NA
ATOM     33  C   UNL     1      -0.851  23.239  17.930  0.00  0.00    +0.121 A 
ATOM     34  C   UNL     1      -0.408  22.219  18.739  0.00  0.00    +0.143 A 
ATOM     35  N   UNL     1      -1.544  21.708  19.320  0.00  0.00    -0.220 N 
ATOM     36  N   UNL     1      -2.625  22.386  18.869  0.00  0.00    -0.060 NA
BRANCH  35  37
ATOM     37  C   UNL     1      -1.655  20.642  20.246  0.00  0.00    +0.071 A 
ATOM     38  C   UNL     1      -1.034  19.424  19.993  0.00  0.00    +0.063 A 
ATOM     39  CA  UNL     1      -1.181  18.425  20.935  0.00  0.00    +0.150 A 
ATOM     40  N   UNL     1      -1.894  18.543  22.091  0.00  0.00    -0.240 NA
ATOM     41  C   UNL     1      -2.511  19.733  22.325  0.00  0.00    +0.074 A 
ATOM     42  C   UNL     1      -2.397  20.800  21.428  0.00  0.00    +0.056 A 
BRANCH  41  43
ATOM     43  C   UNL     1      -3.319  19.803  23.567  0.00  0.00    +0.000 A 
ATOM     44  C   UNL     1      -2.807  20.344  24.762  0.00  0.00    +0.010 A 
ATOM     45  C   UNL     1      -3.592  20.439  25.918  0.00  0.00    +0.001 A 
ATOM     46  C   UNL     1      -4.911  19.996  25.907  0.00  0.00    +0.000 A 
ATOM     47  C   UNL     1      -5.441  19.450  24.743  0.00  0.00    +0.001 A 
ATOM     48  C   UNL     1      -4.654  19.355  23.589  0.00  0.00    +0.010 A 
ENDBRANCH  41  43
BRANCH  39  49
ATOM     49  C   UNL     1      -0.532  17.102  20.704  0.00  0.00    +0.355 C 
ATOM     50  OXT UNL     1      -0.857  16.068  21.260  0.00  0.00    -0.243 OA
BRANCH  49  51
ATOM     51  O   UNL     1       0.465  17.210  19.797  0.00  0.00    -0.476 OA
ATOM     52  H   UNL     1       0.408  16.454  19.167  0.00  0.00    +0.295 HD
ENDBRANCH  49  51
ENDBRANCH  39  49
ENDBRANCH  35  37
ENDBRANCH  31  33
ENDBRANCH  30  31
ENDBRANCH   1  30
TORSDOF 17
