REMARK VINA RESULT:    -6.849     13.203     15.411
REMARK INTER + INTRA:         -15.453
REMARK INTER:                 -12.262
REMARK INTRA:                  -3.191
REMARK UNBOUND:                -2.597
REMARK  Name = lig_assembled_77.pdb
REMARK  19 active torsions:
REMARK  status: ('A' for Active; 'I' for Inactive)
REMARK    1  A    between atoms: _2  and  _10
REMARK    2  A    between atoms: _3  and  _17
REMARK    3  A    between atoms: _5  and  _27
REMARK    4  A    between atoms: _7  and  _8
REMARK    5  A    between atoms: _7  and  _27
REMARK    6  A    between atoms: _13  and  _47
REMARK    7  A    between atoms: _14  and  _47
REMARK    8  A    between atoms: _23  and  _43
REMARK    9  A    between atoms: _25  and  _31
REMARK   10  A    between atoms: _26  and  _30
REMARK   11  A    between atoms: _30  and  _31
REMARK   12  A    between atoms: _33  and  _34
REMARK   13  A    between atoms: _35  and  _36
REMARK   14  A    between atoms: _37  and  _39
REMARK   15  A    between atoms: _39  and  _40
REMARK   16  A    between atoms: _39  and  _41
REMARK   17  A    between atoms: _41  and  _42
REMARK   18  A    between atoms: _41  and  _43
REMARK   19  A    between atoms: _44  and  _46
REMARK                            x       y       z     vdW  Elec       q    Type
REMARK                         _______ _______ _______ _____ _____    ______ ____
ROOT
ATOM      1  C   UNL     1      20.029  10.978  26.862  0.00  0.00    +0.401 C 
ATOM      2  O   UNL     1      20.317  12.175  26.916  0.00  0.00    -0.226 OA
ATOM      3  N   UNL     1      19.078  10.405  27.600  0.00  0.00    -0.279 N 
ATOM      4  H   UNL     1      18.909   9.417  27.478  0.00  0.00    +0.152 HD
ENDROOT
BRANCH   3   5
ATOM      5  C   UNL     1      18.263  11.130  28.583  0.00  0.00    +0.141 C 
BRANCH   5   6
ATOM      6  C   UNL     1      18.353  10.503  29.970  0.00  0.00    +0.163 C 
BRANCH   6   7
ATOM      7  O   UNL     1      17.098  10.643  30.656  0.00  0.00    -0.388 OA
ATOM      8  H   UNL     1      16.592  11.355  30.256  0.00  0.00    +0.210 HD
ENDBRANCH   6   7
BRANCH   6   9
ATOM      9  C   UNL     1      18.746   9.021  29.840  0.00  0.00    +0.175 C 
BRANCH   9  10
ATOM     10  C   UNL     1      18.095   8.153  30.927  0.00  0.00    +0.176 C 
ATOM     11  O   UNL     1      18.172   8.880  32.184  0.00  0.00    -0.332 OA
ATOM     12  C   UNL     1      17.502   8.246  33.324  0.00  0.00    +0.277 C 
ATOM     13  C   UNL     1      18.022   6.801  33.522  0.00  0.00    +0.110 C 
ATOM     14  C   UNL     1      17.990   5.999  32.205  0.00  0.00    +0.143 C 
ATOM     15  C   UNL     1      18.712   6.751  31.086  0.00  0.00    +0.133 C 
BRANCH  15  16
ATOM     16  N   UNL     1      18.600   6.017  29.816  0.00  0.00    -0.308 N 
ATOM     17  H   UNL     1      17.691   5.971  29.377  0.00  0.00    +0.149 HD
ATOM     18  C   UNL     1      19.620   5.409  29.205  0.00  0.00    +0.210 C 
ATOM     19  C   UNL     1      20.986   5.476  29.913  0.00  0.00    +0.109 C 
ATOM     20  O   UNL     1      19.499   4.814  28.133  0.00  0.00    -0.276 OA
ENDBRANCH  15  16
BRANCH  12  21
ATOM     21  C   UNL     1      15.974   8.220  33.115  0.00  0.00    +0.414 C 
ATOM     22  O   UNL     1      15.313   7.253  33.493  0.00  0.00    -0.240 OA
ATOM     23  O   UNL     1      15.402   9.165  32.570  0.00  0.00    -0.240 OA
ENDBRANCH  12  21
BRANCH  14  24
ATOM     24  O   UNL     1      18.615   4.729  32.398  0.00  0.00    -0.390 OA
ATOM     25  H   UNL     1      19.525   4.771  32.096  0.00  0.00    +0.210 HD
ENDBRANCH  14  24
BRANCH  12  26
ATOM     26  O   UNL     1      17.819   9.013  34.514  0.00  0.00    -0.343 OA
ATOM     27  C   UNL     1      18.434  10.303  34.266  0.00  0.00    +0.198 C 
ENDBRANCH  12  26
ENDBRANCH   9  10
BRANCH   9  28
ATOM     28  O   UNL     1      20.180   8.882  29.885  0.00  0.00    -0.387 OA
ATOM     29  H   UNL     1      20.519   8.776  28.993  0.00  0.00    +0.210 HD
ENDBRANCH   9  28
ENDBRANCH   6   9
ENDBRANCH   5   6
ENDBRANCH   3   5
BRANCH   1  30
ATOM     30  O   UNL     1      20.742  10.133  25.955  0.00  0.00    -0.444 OA
BRANCH  30  31
ATOM     31  C   UNL     1      21.021   8.881  26.587  0.00  0.00    +0.292 C 
BRANCH  31  33
ATOM     32  N   UNL     1      18.791   7.880  26.216  0.00  0.00    -0.131 NA
ATOM     33  C   UNL     1      20.143   7.824  26.049  0.00  0.00    +0.121 A 
ATOM     34  C   UNL     1      20.462   6.687  25.341  0.00  0.00    +0.143 A 
ATOM     35  N   UNL     1      19.255   6.078  25.085  0.00  0.00    -0.220 N 
ATOM     36  N   UNL     1      18.259   6.813  25.637  0.00  0.00    -0.060 NA
BRANCH  35  37
ATOM     37  C   UNL     1      18.991   4.910  24.321  0.00  0.00    +0.067 A 
ATOM     38  C   UNL     1      19.870   3.817  24.348  0.00  0.00    +0.030 A 
ATOM     39  C   UNL     1      19.659   2.726  23.499  0.00  0.00    +0.029 A 
ATOM     40  C   UNL     1      18.567   2.729  22.628  0.00  0.00    +0.094 A 
ATOM     41  C   UNL     1      17.634   3.770  22.658  0.00  0.00    +0.029 A 
ATOM     42  C   UNL     1      17.854   4.866  23.496  0.00  0.00    +0.030 A 
BRANCH  40  43
ATOM     43  S   UNL     1      18.338   1.371  21.497  0.00  0.00    +0.025 S 
ATOM     44  O   UNL     1      17.182   1.712  20.685  0.00  0.00    -0.164 OA
ATOM     45  O   UNL     1      19.622   1.101  20.879  0.00  0.00    -0.164 OA
BRANCH  43  46
ATOM     46  C   UNL     1      17.912  -0.087  22.426  0.00  0.00    +0.094 A 
ATOM     47  C   UNL     1      18.290  -1.356  21.986  0.00  0.00    +0.029 A 
ATOM     48  C   UNL     1      17.885  -2.485  22.708  0.00  0.00    +0.024 A 
ATOM     49  C   UNL     1      17.146  -2.359  23.892  0.00  0.00    +0.025 A 
ATOM     50  C   UNL     1      16.751  -1.081  24.301  0.00  0.00    +0.024 A 
ATOM     51  C   UNL     1      17.147   0.054  23.588  0.00  0.00    +0.029 A 
BRANCH  49  52
ATOM     52  N   UNL     1      16.604  -3.491  24.507  0.00  0.00    -0.358 N 
ATOM     53  H   UNL     1      17.089  -3.791  25.347  0.00  0.00    +0.142 HD
ATOM     54  H   UNL     1      15.598  -3.461  24.629  0.00  0.00    +0.142 HD
ENDBRANCH  49  52
ENDBRANCH  43  46
ENDBRANCH  40  43
ENDBRANCH  35  37
ENDBRANCH  31  33
ENDBRANCH  30  31
ENDBRANCH   1  30
TORSDOF 17
