REMARK VINA RESULT:    -6.747      7.063     11.738
REMARK INTER + INTRA:         -12.878
REMARK INTER:                 -10.744
REMARK INTRA:                  -2.134
REMARK UNBOUND:                -1.202
REMARK  Name = lig_assembled_40.pdb
REMARK  17 active torsions:
REMARK  status: ('A' for Active; 'I' for Inactive)
REMARK    1  A    between atoms: _2  and  _9
REMARK    2  A    between atoms: _4  and  _19
REMARK    3  A    between atoms: _6  and  _7
REMARK    4  A    between atoms: _6  and  _19
REMARK    5  A    between atoms: _12  and  _13
REMARK    6  A    between atoms: _15  and  _35
REMARK    7  A    between atoms: _17  and  _23
REMARK    8  A    between atoms: _18  and  _22
REMARK    9  A    between atoms: _22  and  _23
REMARK   10  A    between atoms: _25  and  _26
REMARK   11  A    between atoms: _27  and  _28
REMARK   12  A    between atoms: _29  and  _31
REMARK   13  A    between atoms: _31  and  _32
REMARK   14  A    between atoms: _31  and  _33
REMARK   15  A    between atoms: _33  and  _34
REMARK   16  A    between atoms: _33  and  _35
REMARK   17  A    between atoms: _36  and  _38
REMARK                            x       y       z     vdW  Elec       q    Type
REMARK                         _______ _______ _______ _____ _____    ______ ____
ROOT
ATOM      1  C   UNL     1       9.969   4.274  37.401  0.00  0.00    +0.163 C 
ENDROOT
BRANCH   1   2
ATOM      2  O   UNL     1      10.073   5.675  37.097  0.00  0.00    -0.388 OA
ATOM      3  H   UNL     1       9.944   5.809  36.155  0.00  0.00    +0.210 HD
ENDBRANCH   1   2
BRANCH   1   4
ATOM      4  C   UNL     1      11.360   3.663  37.528  0.00  0.00    +0.141 C 
BRANCH   4   7
ATOM      5  C   UNL     1      12.588   3.057  35.471  0.00  0.00    +0.401 C 
ATOM      6  O   UNL     1      12.292   1.861  35.534  0.00  0.00    -0.226 OA
ATOM      7  N   UNL     1      12.201   3.969  36.364  0.00  0.00    -0.279 N 
ATOM      8  H   UNL     1      12.502   4.924  36.232  0.00  0.00    +0.152 HD
BRANCH   5   9
ATOM      9  O   UNL     1      13.398   3.515  34.386  0.00  0.00    -0.444 OA
BRANCH   9  10
ATOM     10  C   UNL     1      14.697   3.864  34.874  0.00  0.00    +0.292 C 
BRANCH  10  12
ATOM     11  N   UNL     1      14.524   6.320  35.126  0.00  0.00    -0.131 NA
ATOM     12  C   UNL     1      15.043   5.241  34.473  0.00  0.00    +0.121 A 
ATOM     13  C   UNL     1      15.882   5.680  33.477  0.00  0.00    +0.143 A 
ATOM     14  N   UNL     1      15.871   7.053  33.578  0.00  0.00    -0.220 N 
ATOM     15  N   UNL     1      15.024   7.418  34.573  0.00  0.00    -0.060 NA
BRANCH  14  16
ATOM     16  C   UNL     1      16.625   8.000  32.839  0.00  0.00    +0.067 A 
ATOM     17  C   UNL     1      16.481   9.372  33.075  0.00  0.00    +0.028 A 
ATOM     18  C   UNL     1      17.178  10.297  32.291  0.00  0.00    +0.005 A 
ATOM     19  C   UNL     1      18.024   9.865  31.265  0.00  0.00    -0.050 A 
ATOM     20  C   UNL     1      18.195   8.492  31.054  0.00  0.00    +0.005 A 
ATOM     21  C   UNL     1      18.737  10.855  30.392  0.00  0.00    +0.044 C 
ATOM     22  C   UNL     1      17.502   7.563  31.835  0.00  0.00    +0.028 A 
ENDBRANCH  14  16
ENDBRANCH  10  12
ENDBRANCH   9  10
ENDBRANCH   5   9
ENDBRANCH   4   7
ENDBRANCH   1   4
BRANCH   1  23
ATOM     23  C   UNL     1       9.179   3.532  36.309  0.00  0.00    +0.175 C 
BRANCH  23  24
ATOM     24  C   UNL     1       8.176   4.450  35.596  0.00  0.00    +0.176 C 
ATOM     25  O   UNL     1       7.458   5.203  36.612  0.00  0.00    -0.332 OA
ATOM     26  C   UNL     1       6.525   6.216  36.110  0.00  0.00    +0.277 C 
ATOM     27  C   UNL     1       5.517   5.580  35.121  0.00  0.00    +0.110 C 
ATOM     28  C   UNL     1       6.232   4.743  34.039  0.00  0.00    +0.143 C 
ATOM     29  C   UNL     1       7.180   3.724  34.672  0.00  0.00    +0.133 C 
BRANCH  29  30
ATOM     30  N   UNL     1       7.920   2.992  33.632  0.00  0.00    -0.308 N 
ATOM     31  H   UNL     1       8.587   3.509  33.076  0.00  0.00    +0.149 HD
ATOM     32  C   UNL     1       7.768   1.690  33.375  0.00  0.00    +0.210 C 
ATOM     33  C   UNL     1       6.725   0.937  34.222  0.00  0.00    +0.109 C 
ATOM     34  O   UNL     1       8.412   1.100  32.506  0.00  0.00    -0.276 OA
ENDBRANCH  29  30
BRANCH  26  35
ATOM     35  C   UNL     1       7.285   7.360  35.407  0.00  0.00    +0.414 C 
ATOM     36  O   UNL     1       6.713   8.068  34.580  0.00  0.00    -0.240 OA
ATOM     37  O   UNL     1       8.469   7.575  35.668  0.00  0.00    -0.240 OA
ENDBRANCH  26  35
BRANCH  28  38
ATOM     38  O   UNL     1       5.265   4.055  33.245  0.00  0.00    -0.390 OA
ATOM     39  H   UNL     1       5.422   4.242  32.316  0.00  0.00    +0.210 HD
ENDBRANCH  28  38
BRANCH  26  40
ATOM     40  O   UNL     1       5.784   6.744  37.240  0.00  0.00    -0.343 OA
ATOM     41  C   UNL     1       4.748   5.870  37.755  0.00  0.00    +0.198 C 
ENDBRANCH  26  40
ENDBRANCH  23  24
BRANCH  23  42
ATOM     42  O   UNL     1       8.496   2.396  36.876  0.00  0.00    -0.387 OA
ATOM     43  H   UNL     1       7.634   2.301  36.463  0.00  0.00    +0.210 HD
ENDBRANCH  23  42
ENDBRANCH   1  23
TORSDOF 14
