REMARK VINA RESULT:    -7.036      5.776     10.698
REMARK INTER + INTRA:         -14.715
REMARK INTER:                 -11.838
REMARK INTRA:                  -2.877
REMARK UNBOUND:                -1.921
REMARK  Name = lig_assembled_23.pdb
REMARK  18 active torsions:
REMARK  status: ('A' for Active; 'I' for Inactive)
REMARK    1  A    between atoms: _2  and  _10
REMARK    2  A    between atoms: _3  and  _41
REMARK    3  A    between atoms: _5  and  _21
REMARK    4  A    between atoms: _7  and  _8
REMARK    5  A    between atoms: _7  and  _21
REMARK    6  A    between atoms: _12  and  _41
REMARK    7  A    between atoms: _17  and  _37
REMARK    8  A    between atoms: _19  and  _25
REMARK    9  A    between atoms: _20  and  _24
REMARK   10  A    between atoms: _24  and  _25
REMARK   11  A    between atoms: _27  and  _28
REMARK   12  A    between atoms: _29  and  _30
REMARK   13  A    between atoms: _31  and  _33
REMARK   14  A    between atoms: _33  and  _34
REMARK   15  A    between atoms: _33  and  _35
REMARK   16  A    between atoms: _35  and  _36
REMARK   17  A    between atoms: _35  and  _37
REMARK   18  A    between atoms: _38  and  _40
REMARK                            x       y       z     vdW  Elec       q    Type
REMARK                         _______ _______ _______ _____ _____    ______ ____
ROOT
ATOM      1  C   UNL     1      17.139   2.807  21.383  0.00  0.00    +0.141 C 
ENDROOT
BRANCH   1   4
ATOM      2  C   UNL     1      18.391   0.680  21.270  0.00  0.00    +0.401 C 
ATOM      3  O   UNL     1      19.309   1.147  20.591  0.00  0.00    -0.226 OA
ATOM      4  N   UNL     1      17.335   1.383  21.680  0.00  0.00    -0.279 N 
ATOM      5  H   UNL     1      16.628   0.909  22.225  0.00  0.00    +0.152 HD
BRANCH   2   6
ATOM      6  O   UNL     1      18.440  -0.698  21.650  0.00  0.00    -0.444 OA
BRANCH   6   7
ATOM      7  C   UNL     1      18.291  -0.808  23.068  0.00  0.00    +0.292 C 
BRANCH   7   9
ATOM      8  N   UNL     1      18.528  -3.269  23.136  0.00  0.00    -0.131 NA
ATOM      9  C   UNL     1      17.801  -2.151  23.428  0.00  0.00    +0.121 A 
ATOM     10  C   UNL     1      16.638  -2.526  24.063  0.00  0.00    +0.143 A 
ATOM     11  N   UNL     1      16.706  -3.897  24.148  0.00  0.00    -0.220 N 
ATOM     12  N   UNL     1      17.856  -4.324  23.573  0.00  0.00    -0.060 NA
BRANCH  11  13
ATOM     13  C   UNL     1      15.771  -4.803  24.713  0.00  0.00    +0.069 A 
ATOM     14  C   UNL     1      15.107  -4.457  25.899  0.00  0.00    +0.056 A 
ATOM     15  C   UNL     1      14.211  -5.363  26.478  0.00  0.00    +0.107 A 
ATOM     16  C   UNL     1      13.947  -6.595  25.877  0.00  0.00    +0.028 A 
ATOM     17  C   UNL     1      14.597  -6.930  24.689  0.00  0.00    +0.004 A 
ATOM     18  C   UNL     1      15.509  -6.041  24.109  0.00  0.00    +0.028 A 
BRANCH  15  19
ATOM     19  S   UNL     1      13.427  -4.936  28.003  0.00  0.00    +0.056 S 
ATOM     20  O   UNL     1      11.997  -4.929  27.805  0.00  0.00    -0.153 OA
ATOM     21  O   UNL     1      14.063  -5.654  29.083  0.00  0.00    -0.153 OA
BRANCH  19  22
ATOM     22  N   UNL     1      13.893  -3.335  28.199  0.00  0.00    -0.204 NA
ATOM     23  H   UNL     1      14.862  -3.289  28.514  0.00  0.00    +0.144 HD
ATOM     24  H   UNL     1      13.234  -2.851  28.810  0.00  0.00    +0.144 HD
ENDBRANCH  19  22
ENDBRANCH  15  19
ENDBRANCH  11  13
ENDBRANCH   7   9
ENDBRANCH   6   7
ENDBRANCH   2   6
ENDBRANCH   1   4
BRANCH   1  25
ATOM     25  C   UNL     1      16.936   3.630  22.651  0.00  0.00    +0.163 C 
BRANCH  25  26
ATOM     26  O   UNL     1      15.938   3.014  23.482  0.00  0.00    -0.388 OA
ATOM     27  H   UNL     1      15.401   3.694  23.894  0.00  0.00    +0.210 HD
ENDBRANCH  25  26
BRANCH  25  28
ATOM     28  C   UNL     1      18.274   3.757  23.400  0.00  0.00    +0.175 C 
BRANCH  28  29
ATOM     29  C   UNL     1      18.464   2.641  24.438  0.00  0.00    +0.176 C 
ATOM     30  O   UNL     1      17.775   3.040  25.655  0.00  0.00    -0.332 OA
ATOM     31  C   UNL     1      17.759   2.044  26.730  0.00  0.00    +0.277 C 
ATOM     32  C   UNL     1      19.200   1.590  27.069  0.00  0.00    +0.110 C 
ATOM     33  C   UNL     1      19.982   1.185  25.802  0.00  0.00    +0.143 C 
ATOM     34  C   UNL     1      19.931   2.293  24.749  0.00  0.00    +0.133 C 
BRANCH  34  35
ATOM     35  N   UNL     1      20.606   1.862  23.514  0.00  0.00    -0.308 N 
ATOM     36  H   UNL     1      20.198   1.095  22.997  0.00  0.00    +0.149 HD
ATOM     37  C   UNL     1      21.721   2.417  23.032  0.00  0.00    +0.210 C 
ATOM     38  C   UNL     1      22.332   3.565  23.857  0.00  0.00    +0.109 C 
ATOM     39  O   UNL     1      22.256   2.044  21.988  0.00  0.00    -0.276 OA
ENDBRANCH  34  35
BRANCH  31  40
ATOM     40  C   UNL     1      16.913   0.818  26.327  0.00  0.00    +0.414 C 
ATOM     41  O   UNL     1      15.891   0.963  25.658  0.00  0.00    -0.240 OA
ATOM     42  O   UNL     1      17.254  -0.315  26.670  0.00  0.00    -0.240 OA
ENDBRANCH  31  40
BRANCH  33  43
ATOM     43  O   UNL     1      21.344   0.920  26.140  0.00  0.00    -0.390 OA
ATOM     44  H   UNL     1      21.921   1.318  25.484  0.00  0.00    +0.210 HD
ENDBRANCH  33  43
BRANCH  31  45
ATOM     45  O   UNL     1      17.186   2.665  27.910  0.00  0.00    -0.343 OA
ATOM     46  C   UNL     1      18.098   3.503  28.664  0.00  0.00    +0.198 C 
ENDBRANCH  31  45
ENDBRANCH  28  29
BRANCH  28  47
ATOM     47  O   UNL     1      18.365   5.048  24.037  0.00  0.00    -0.387 OA
ATOM     48  H   UNL     1      18.745   4.947  24.913  0.00  0.00    +0.210 HD
ENDBRANCH  28  47
ENDBRANCH  25  28
ENDBRANCH   1  25
TORSDOF 16
