REMARK VINA RESULT:    -6.213     14.519     16.781
REMARK INTER + INTRA:         -14.675
REMARK INTER:                 -11.404
REMARK INTRA:                  -3.271
REMARK UNBOUND:                -3.014
REMARK  Name = lig_assembled_75.pdb
REMARK  19 active torsions:
REMARK  status: ('A' for Active; 'I' for Inactive)
REMARK    1  A    between atoms: _2  and  _9
REMARK    2  A    between atoms: _4  and  _23
REMARK    3  A    between atoms: _6  and  _7
REMARK    4  A    between atoms: _6  and  _23
REMARK    5  A    between atoms: _11  and  _12
REMARK    6  A    between atoms: _13  and  _14
REMARK    7  A    between atoms: _14  and  _17
REMARK    8  A    between atoms: _19  and  _39
REMARK    9  A    between atoms: _21  and  _27
REMARK   10  A    between atoms: _22  and  _26
REMARK   11  A    between atoms: _26  and  _27
REMARK   12  A    between atoms: _29  and  _30
REMARK   13  A    between atoms: _31  and  _32
REMARK   14  A    between atoms: _33  and  _35
REMARK   15  A    between atoms: _35  and  _36
REMARK   16  A    between atoms: _35  and  _37
REMARK   17  A    between atoms: _37  and  _38
REMARK   18  A    between atoms: _37  and  _39
REMARK   19  A    between atoms: _40  and  _42
REMARK                            x       y       z     vdW  Elec       q    Type
REMARK                         _______ _______ _______ _____ _____    ______ ____
ROOT
ATOM      1  C   UNL     1      16.933   3.162  21.528  0.00  0.00    +0.141 C 
ENDROOT
BRANCH   1   4
ATOM      2  C   UNL     1      18.151   1.155  20.758  0.00  0.00    +0.401 C 
ATOM      3  O   UNL     1      18.954   1.791  20.071  0.00  0.00    -0.226 OA
ATOM      4  N   UNL     1      17.170   1.714  21.467  0.00  0.00    -0.279 N 
ATOM      5  H   UNL     1      16.555   1.108  21.992  0.00  0.00    +0.152 HD
BRANCH   2   6
ATOM      6  O   UNL     1      18.257  -0.270  20.809  0.00  0.00    -0.444 OA
BRANCH   6   7
ATOM      7  C   UNL     1      18.863  -0.661  22.044  0.00  0.00    +0.292 C 
BRANCH   7   9
ATOM      8  N   UNL     1      17.029  -0.424  23.687  0.00  0.00    -0.131 NA
ATOM      9  C   UNL     1      17.852  -1.230  22.955  0.00  0.00    +0.121 A 
ATOM     10  C   UNL     1      17.558  -2.545  23.231  0.00  0.00    +0.143 A 
ATOM     11  N   UNL     1      16.537  -2.495  24.151  0.00  0.00    -0.220 N 
ATOM     12  N   UNL     1      16.235  -1.198  24.413  0.00  0.00    -0.060 NA
BRANCH  11  13
ATOM     13  C   UNL     1      15.869  -3.565  24.800  0.00  0.00    +0.068 A 
ATOM     14  C   UNL     1      15.627  -4.756  24.093  0.00  0.00    +0.035 A 
ATOM     15  C   UNL     1      14.911  -5.809  24.681  0.00  0.00    -0.023 A 
ATOM     16  C   UNL     1      14.496  -5.678  26.012  0.00  0.00    +0.008 A 
ATOM     17  C   UNL     1      14.753  -4.506  26.727  0.00  0.00    +0.003 A 
ATOM     18  C   UNL     1      15.429  -3.447  26.123  0.00  0.00    +0.028 A 
BRANCH  15  19
ATOM     19  C   UNL     1      14.599  -7.052  23.960  0.00  0.00    +0.015 C 
ATOM     20  C   UNL     1      15.298  -7.498  22.904  0.00  0.00    +0.092 C 
BRANCH  20  21
ATOM     21  C   UNL     1      14.873  -8.730  22.214  0.00  0.00    +0.330 C 
ATOM     22  O   UNL     1      14.001  -9.482  22.610  0.00  0.00    -0.246 OA
BRANCH  21  23
ATOM     23  O   UNL     1      15.560  -8.930  21.070  0.00  0.00    -0.478 OA
ATOM     24  H   UNL     1      16.070  -8.166  20.746  0.00  0.00    +0.295 HD
ENDBRANCH  21  23
ENDBRANCH  20  21
ENDBRANCH  15  19
ENDBRANCH  11  13
ENDBRANCH   7   9
ENDBRANCH   6   7
ENDBRANCH   2   6
ENDBRANCH   1   4
BRANCH   1  25
ATOM     25  C   UNL     1      16.836   3.662  22.965  0.00  0.00    +0.163 C 
BRANCH  25  26
ATOM     26  O   UNL     1      16.036   2.760  23.747  0.00  0.00    -0.388 OA
ATOM     27  H   UNL     1      16.538   1.961  23.928  0.00  0.00    +0.210 HD
ENDBRANCH  25  26
BRANCH  25  28
ATOM     28  C   UNL     1      18.249   3.799  23.558  0.00  0.00    +0.175 C 
BRANCH  28  29
ATOM     29  C   UNL     1      18.493   2.809  24.706  0.00  0.00    +0.176 C 
ATOM     30  O   UNL     1      17.976   3.405  25.928  0.00  0.00    -0.332 OA
ATOM     31  C   UNL     1      18.027   2.552  27.119  0.00  0.00    +0.277 C 
ATOM     32  C   UNL     1      19.468   2.040  27.357  0.00  0.00    +0.110 C 
ATOM     33  C   UNL     1      20.073   1.426  26.077  0.00  0.00    +0.143 C 
ATOM     34  C   UNL     1      19.964   2.396  24.899  0.00  0.00    +0.133 C 
BRANCH  34  35
ATOM     35  N   UNL     1      20.464   1.767  23.666  0.00  0.00    -0.308 N 
ATOM     36  H   UNL     1      19.966   0.963  23.312  0.00  0.00    +0.149 HD
ATOM     37  C   UNL     1      21.532   2.190  22.985  0.00  0.00    +0.210 C 
ATOM     38  C   UNL     1      22.284   3.403  23.566  0.00  0.00    +0.109 C 
ATOM     39  O   UNL     1      21.919   1.653  21.947  0.00  0.00    -0.276 OA
ENDBRANCH  34  35
BRANCH  31  40
ATOM     40  C   UNL     1      17.070   1.351  26.974  0.00  0.00    +0.414 C 
ATOM     41  O   UNL     1      17.426   0.228  27.327  0.00  0.00    -0.240 OA
ATOM     42  O   UNL     1      15.942   1.505  26.504  0.00  0.00    -0.240 OA
ENDBRANCH  31  40
BRANCH  31  43
ATOM     43  O   UNL     1      17.632   3.355  28.262  0.00  0.00    -0.343 OA
ATOM     44  C   UNL     1      18.607   3.415  29.334  0.00  0.00    +0.198 C 
ENDBRANCH  31  43
BRANCH  33  45
ATOM     45  O   UNL     1      21.447   1.107  26.298  0.00  0.00    -0.390 OA
ATOM     46  H   UNL     1      21.797   0.649  25.530  0.00  0.00    +0.210 HD
ENDBRANCH  33  45
ENDBRANCH  28  29
BRANCH  28  47
ATOM     47  O   UNL     1      18.469   5.150  24.011  0.00  0.00    -0.387 OA
ATOM     48  H   UNL     1      17.632   5.538  24.277  0.00  0.00    +0.210 HD
ENDBRANCH  28  47
ENDBRANCH  25  28
ENDBRANCH   1  25
TORSDOF 17
