REMARK VINA RESULT:    -4.934     14.869     17.801
REMARK INTER + INTRA:         -12.270
REMARK INTER:                  -9.117
REMARK INTRA:                  -3.154
REMARK UNBOUND:                -3.154
REMARK  Name = lig_assembled_67.pdb
REMARK  18 active torsions:
REMARK  status: ('A' for Active; 'I' for Inactive)
REMARK    1  A    between atoms: _2  and  _9
REMARK    2  A    between atoms: _4  and  _19
REMARK    3  A    between atoms: _6  and  _7
REMARK    4  A    between atoms: _6  and  _19
REMARK    5  A    between atoms: _9  and  _10
REMARK    6  A    between atoms: _10  and  _11
REMARK    7  A    between atoms: _15  and  _35
REMARK    8  A    between atoms: _17  and  _23
REMARK    9  A    between atoms: _18  and  _22
REMARK   10  A    between atoms: _22  and  _23
REMARK   11  A    between atoms: _25  and  _26
REMARK   12  A    between atoms: _27  and  _28
REMARK   13  A    between atoms: _29  and  _31
REMARK   14  A    between atoms: _31  and  _32
REMARK   15  A    between atoms: _31  and  _33
REMARK   16  A    between atoms: _33  and  _34
REMARK   17  A    between atoms: _33  and  _35
REMARK   18  A    between atoms: _36  and  _38
REMARK                            x       y       z     vdW  Elec       q    Type
REMARK                         _______ _______ _______ _____ _____    ______ ____
ROOT
ATOM      1  C   UNL     1      16.001   1.759  25.194  0.00  0.00    +0.163 C 
ENDROOT
BRANCH   1   2
ATOM      2  O   UNL     1      16.561   2.395  26.355  0.00  0.00    -0.388 OA
ATOM      3  H   UNL     1      17.378   1.955  26.599  0.00  0.00    +0.210 HD
ENDBRANCH   1   2
BRANCH   1   4
ATOM      4  C   UNL     1      16.784   2.141  23.926  0.00  0.00    +0.175 C 
BRANCH   4   5
ATOM      5  C   UNL     1      18.256   2.458  24.230  0.00  0.00    +0.176 C 
ATOM      6  O   UNL     1      18.362   3.886  24.485  0.00  0.00    -0.332 OA
ATOM      7  C   UNL     1      19.687   4.359  24.899  0.00  0.00    +0.277 C 
ATOM      8  C   UNL     1      20.761   3.930  23.869  0.00  0.00    +0.110 C 
ATOM      9  C   UNL     1      20.666   2.425  23.541  0.00  0.00    +0.143 C 
ATOM     10  C   UNL     1      19.246   2.042  23.126  0.00  0.00    +0.133 C 
BRANCH  10  11
ATOM     11  N   UNL     1      19.149   0.591  22.900  0.00  0.00    -0.308 N 
ATOM     12  H   UNL     1      19.496  -0.023  23.623  0.00  0.00    +0.149 HD
ATOM     13  C   UNL     1      18.632   0.033  21.802  0.00  0.00    +0.210 C 
ATOM     14  C   UNL     1      18.135   0.996  20.707  0.00  0.00    +0.109 C 
ATOM     15  O   UNL     1      18.550  -1.186  21.647  0.00  0.00    -0.276 OA
ENDBRANCH  10  11
BRANCH   7  16
ATOM     16  C   UNL     1      20.056   3.803  26.290  0.00  0.00    +0.414 C 
ATOM     17  O   UNL     1      21.236   3.652  26.605  0.00  0.00    -0.240 OA
ATOM     18  O   UNL     1      19.175   3.506  27.098  0.00  0.00    -0.240 OA
ENDBRANCH   7  16
BRANCH   9  19
ATOM     19  O   UNL     1      21.569   2.105  22.482  0.00  0.00    -0.390 OA
ATOM     20  H   UNL     1      22.393   2.581  22.608  0.00  0.00    +0.210 HD
ENDBRANCH   9  19
BRANCH   7  21
ATOM     21  O   UNL     1      19.651   5.808  24.946  0.00  0.00    -0.343 OA
ATOM     22  C   UNL     1      19.086   6.445  23.773  0.00  0.00    +0.198 C 
ENDBRANCH   7  21
ENDBRANCH   4   5
BRANCH   4  23
ATOM     23  O   UNL     1      16.158   3.264  23.275  0.00  0.00    -0.387 OA
ATOM     24  H   UNL     1      16.821   3.930  23.077  0.00  0.00    +0.210 HD
ENDBRANCH   4  23
ENDBRANCH   1   4
BRANCH   1  25
ATOM     25  C   UNL     1      16.021   0.244  25.368  0.00  0.00    +0.141 C 
BRANCH  25  28
ATOM     26  C   UNL     1      18.059  -0.770  26.331  0.00  0.00    +0.401 C 
ATOM     27  O   UNL     1      18.547  -1.057  25.235  0.00  0.00    -0.226 OA
ATOM     28  N   UNL     1      16.879  -0.167  26.486  0.00  0.00    -0.279 N 
ATOM     29  H   UNL     1      16.559   0.018  27.426  0.00  0.00    +0.152 HD
BRANCH  26  30
ATOM     30  O   UNL     1      18.780  -1.099  27.520  0.00  0.00    -0.444 OA
BRANCH  30  31
ATOM     31  C   UNL     1      17.934  -1.840  28.403  0.00  0.00    +0.292 C 
BRANCH  31  33
ATOM     32  N   UNL     1      18.750  -4.071  27.710  0.00  0.00    -0.131 NA
ATOM     33  C   UNL     1      17.705  -3.199  27.879  0.00  0.00    +0.120 A 
ATOM     34  C   UNL     1      16.538  -3.817  27.490  0.00  0.00    +0.137 A 
ATOM     35  N   UNL     1      16.939  -5.056  27.093  0.00  0.00    -0.251 N 
ATOM     36  N   UNL     1      18.267  -5.206  27.224  0.00  0.00    -0.065 NA
BRANCH  35  37
ATOM     37  C   UNL     1      16.125  -6.144  26.596  0.00  0.00    +0.150 C 
BRANCH  37  38
ATOM     38  C   UNL     1      16.691  -6.808  25.343  0.00  0.00    +0.084 C 
BRANCH  38  39
ATOM     39  C   UNL     1      16.436  -5.990  24.085  0.00  0.00    +0.252 C 
ATOM     40  O   UNL     1      15.207  -5.265  24.208  0.00  0.00    -0.349 OA
ATOM     41  C   UNL     1      15.429  -4.111  23.401  0.00  0.00    +0.191 C 
ATOM     42  C   UNL     1      16.886  -3.801  23.631  0.00  0.00    +0.191 C 
ATOM     43  O   UNL     1      17.506  -5.067  23.863  0.00  0.00    -0.349 OA
ENDBRANCH  38  39
ENDBRANCH  37  38
ENDBRANCH  35  37
ENDBRANCH  31  33
ENDBRANCH  30  31
ENDBRANCH  26  30
ENDBRANCH  25  28
ENDBRANCH   1  25
TORSDOF 16
