REMARK VINA RESULT:    -6.698      1.433      1.691
REMARK INTER + INTRA:         -14.581
REMARK INTER:                 -12.949
REMARK INTRA:                  -1.632
REMARK UNBOUND:                -2.597
REMARK  Name = lig_assembled_89.pdb
REMARK  19 active torsions:
REMARK  status: ('A' for Active; 'I' for Inactive)
REMARK    1  A    between atoms: _2  and  _12
REMARK    2  A    between atoms: _5  and  _20
REMARK    3  A    between atoms: _7  and  _29
REMARK    4  A    between atoms: _9  and  _10
REMARK    5  A    between atoms: _9  and  _29
REMARK    6  A    between atoms: _20  and  _21
REMARK    7  A    between atoms: _20  and  _22
REMARK    8  A    between atoms: _25  and  _45
REMARK    9  A    between atoms: _27  and  _33
REMARK   10  A    between atoms: _28  and  _32
REMARK   11  A    between atoms: _32  and  _33
REMARK   12  A    between atoms: _35  and  _36
REMARK   13  A    between atoms: _37  and  _38
REMARK   14  A    between atoms: _39  and  _41
REMARK   15  A    between atoms: _41  and  _42
REMARK   16  A    between atoms: _41  and  _43
REMARK   17  A    between atoms: _43  and  _44
REMARK   18  A    between atoms: _43  and  _45
REMARK   19  A    between atoms: _46  and  _48
REMARK                            x       y       z     vdW  Elec       q    Type
REMARK                         _______ _______ _______ _____ _____    ______ ____
ROOT
ATOM      1  C   UNL     1       3.669   2.450  32.196  0.00  0.00    +0.401 C 
ATOM      2  O   UNL     1       3.097   1.580  32.857  0.00  0.00    -0.226 OA
ATOM      3  N   UNL     1       4.981   2.681  32.245  0.00  0.00    -0.279 N 
ATOM      4  H   UNL     1       5.359   3.412  31.657  0.00  0.00    +0.152 HD
ENDROOT
BRANCH   3   5
ATOM      5  C   UNL     1       5.909   1.935  33.103  0.00  0.00    +0.141 C 
BRANCH   5   6
ATOM      6  C   UNL     1       7.362   2.310  32.833  0.00  0.00    +0.163 C 
BRANCH   6   7
ATOM      7  O   UNL     1       7.420   3.469  31.985  0.00  0.00    -0.388 OA
ATOM      8  H   UNL     1       8.263   3.914  32.107  0.00  0.00    +0.210 HD
ENDBRANCH   6   7
BRANCH   6   9
ATOM      9  C   UNL     1       8.083   2.568  34.167  0.00  0.00    +0.175 C 
BRANCH   9  10
ATOM     10  C   UNL     1       7.394   3.665  34.993  0.00  0.00    +0.176 C 
ATOM     11  O   UNL     1       7.487   4.910  34.249  0.00  0.00    -0.332 OA
ATOM     12  C   UNL     1       6.788   6.055  34.840  0.00  0.00    +0.277 C 
ATOM     13  C   UNL     1       7.255   6.281  36.299  0.00  0.00    +0.110 C 
ATOM     14  C   UNL     1       7.203   4.976  37.121  0.00  0.00    +0.143 C 
ATOM     15  C   UNL     1       7.960   3.852  36.414  0.00  0.00    +0.133 C 
BRANCH  15  16
ATOM     16  N   UNL     1       7.831   2.592  37.164  0.00  0.00    -0.308 N 
ATOM     17  H   UNL     1       6.903   2.213  37.292  0.00  0.00    +0.149 HD
ATOM     18  C   UNL     1       8.859   1.919  37.687  0.00  0.00    +0.210 C 
ATOM     19  C   UNL     1      10.257   2.537  37.497  0.00  0.00    +0.109 C 
ATOM     20  O   UNL     1       8.722   0.858  38.298  0.00  0.00    -0.276 OA
ENDBRANCH  15  16
BRANCH  12  21
ATOM     21  C   UNL     1       5.261   5.835  34.815  0.00  0.00    +0.414 C 
ATOM     22  O   UNL     1       4.562   6.230  35.748  0.00  0.00    -0.240 OA
ATOM     23  O   UNL     1       4.728   5.263  33.864  0.00  0.00    -0.240 OA
ENDBRANCH  12  21
BRANCH  14  24
ATOM     24  O   UNL     1       7.782   5.196  38.408  0.00  0.00    -0.390 OA
ATOM     25  H   UNL     1       7.248   5.826  38.897  0.00  0.00    +0.210 HD
ENDBRANCH  14  24
BRANCH  12  26
ATOM     26  O   UNL     1       7.123   7.235  34.064  0.00  0.00    -0.343 OA
ATOM     27  C   UNL     1       7.789   8.287  34.807  0.00  0.00    +0.198 C 
ENDBRANCH  12  26
ENDBRANCH   9  10
BRANCH   9  28
ATOM     28  O   UNL     1       9.461   2.918  33.927  0.00  0.00    -0.387 OA
ATOM     29  H   UNL     1       9.567   3.870  34.000  0.00  0.00    +0.210 HD
ENDBRANCH   9  28
ENDBRANCH   6   9
ENDBRANCH   5   6
ENDBRANCH   3   5
BRANCH   1  30
ATOM     30  O   UNL     1       2.898   3.271  31.315  0.00  0.00    -0.444 OA
BRANCH  30  31
ATOM     31  C   UNL     1       1.616   2.673  31.105  0.00  0.00    +0.292 C 
BRANCH  31  33
ATOM     32  N   UNL     1       0.287   1.833  29.206  0.00  0.00    -0.131 NA
ATOM     33  C   UNL     1       1.321   2.593  29.664  0.00  0.00    +0.121 A 
ATOM     34  C   UNL     1       1.931   3.209  28.597  0.00  0.00    +0.145 A 
ATOM     35  N   UNL     1       1.209   2.812  27.488  0.00  0.00    -0.199 N 
ATOM     36  N   UNL     1       0.221   1.978  27.889  0.00  0.00    -0.059 NA
BRANCH  35  37
ATOM     37  C   UNL     1       1.405   3.280  26.156  0.00  0.00    +0.186 A 
ATOM     38  C   UNL     1       1.635   2.568  24.996  0.00  0.00    +0.158 A 
ATOM     39  C   UNL     1       1.881   1.185  24.727  0.00  0.00    +0.280 A 
ATOM     40  O   UNL     1       2.271   0.409  25.589  0.00  0.00    -0.265 OA
ATOM     41  N   UNL     1       1.675   0.786  23.391  0.00  0.00    -0.302 N 
ATOM     42  C   UNL     1       1.683   1.769  22.330  0.00  0.00    +0.069 A 
ATOM     43  C   UNL     1       1.762   1.420  20.974  0.00  0.00    +0.028 A 
ATOM     44  C   UNL     1       1.819   2.401  19.974  0.00  0.00    +0.002 A 
ATOM     45  C   UNL     1       1.789   3.751  20.305  0.00  0.00    +0.002 A 
ATOM     46  C   UNL     1       1.697   4.133  21.640  0.00  0.00    +0.028 A 
ATOM     47  C   UNL     1       1.655   3.147  22.637  0.00  0.00    +0.072 A 
ATOM     48  N   UNL     1       1.571   3.499  23.994  0.00  0.00    -0.291 N 
ATOM     49  C   UNL     1       1.423   4.728  24.585  0.00  0.00    +0.207 A 
ATOM     50  N   UNL     1       1.306   4.633  25.893  0.00  0.00    -0.216 NA
BRANCH  41  51
ATOM     51  C   UNL     1       1.662  -0.666  23.095  0.00  0.00    +0.085 C 
ATOM     52  C   UNL     1       0.342  -1.364  23.478  0.00  0.00    +0.030 C 
ATOM     53  C   UNL     1       2.851  -1.386  23.728  0.00  0.00    +0.030 C 
ENDBRANCH  41  51
ENDBRANCH  35  37
ENDBRANCH  31  33
ENDBRANCH  30  31
ENDBRANCH   1  30
TORSDOF 15
