REMARK VINA RESULT:    -6.007     14.063     18.208
REMARK INTER + INTRA:         -13.258
REMARK INTER:                 -11.534
REMARK INTRA:                  -1.724
REMARK UNBOUND:                -2.511
REMARK  Name = lig_assembled_6.pdb
REMARK  17 active torsions:
REMARK  status: ('A' for Active; 'I' for Inactive)
REMARK    1  A    between atoms: _2  and  _10
REMARK    2  A    between atoms: _3  and  _13
REMARK    3  A    between atoms: _5  and  _21
REMARK    4  A    between atoms: _7  and  _8
REMARK    5  A    between atoms: _7  and  _21
REMARK    6  A    between atoms: _17  and  _37
REMARK    7  A    between atoms: _19  and  _25
REMARK    8  A    between atoms: _20  and  _24
REMARK    9  A    between atoms: _24  and  _25
REMARK   10  A    between atoms: _27  and  _28
REMARK   11  A    between atoms: _29  and  _30
REMARK   12  A    between atoms: _31  and  _33
REMARK   13  A    between atoms: _33  and  _34
REMARK   14  A    between atoms: _33  and  _35
REMARK   15  A    between atoms: _35  and  _36
REMARK   16  A    between atoms: _35  and  _37
REMARK   17  A    between atoms: _38  and  _40
REMARK                            x       y       z     vdW  Elec       q    Type
REMARK                         _______ _______ _______ _____ _____    ______ ____
ROOT
ATOM      1  C   UNL     1      16.539   1.084  26.220  0.00  0.00    +0.163 C 
ENDROOT
BRANCH   1   2
ATOM      2  O   UNL     1      15.430   0.430  26.858  0.00  0.00    -0.388 OA
ATOM      3  H   UNL     1      14.649   0.509  26.304  0.00  0.00    +0.210 HD
ENDBRANCH   1   2
BRANCH   1   4
ATOM      4  C   UNL     1      16.723   2.483  26.797  0.00  0.00    +0.141 C 
BRANCH   4   7
ATOM      5  C   UNL     1      19.131   2.978  27.048  0.00  0.00    +0.401 C 
ATOM      6  O   UNL     1      19.242   2.364  28.111  0.00  0.00    -0.226 OA
ATOM      7  N   UNL     1      17.989   3.091  26.368  0.00  0.00    -0.279 N 
ATOM      8  H   UNL     1      17.995   3.623  25.510  0.00  0.00    +0.152 HD
BRANCH   5   9
ATOM      9  O   UNL     1      20.281   3.621  26.493  0.00  0.00    -0.444 OA
BRANCH   9  10
ATOM     10  C   UNL     1      19.968   4.983  26.190  0.00  0.00    +0.292 C 
BRANCH  10  12
ATOM     11  N   UNL     1      20.960   5.796  28.307  0.00  0.00    -0.131 NA
ATOM     12  C   UNL     1      19.918   5.785  27.427  0.00  0.00    +0.121 A 
ATOM     13  C   UNL     1      18.924   6.613  27.897  0.00  0.00    +0.143 A 
ATOM     14  N   UNL     1      19.423   7.138  29.067  0.00  0.00    -0.220 N 
ATOM     15  N   UNL     1      20.650   6.613  29.305  0.00  0.00    -0.060 NA
BRANCH  14  16
ATOM     16  C   UNL     1      18.839   8.108  29.925  0.00  0.00    +0.067 A 
ATOM     17  C   UNL     1      18.332   7.739  31.181  0.00  0.00    +0.034 A 
ATOM     18  C   UNL     1      17.704   8.691  31.991  0.00  0.00    +0.086 A 
ATOM     19  C   UNL     1      17.585  10.013  31.548  0.00  0.00    +0.273 A 
ATOM     20  C   UNL     1      18.111  10.397  30.309  0.00  0.00    +0.086 A 
ATOM     21  C   UNL     1      18.739   9.443  29.500  0.00  0.00    +0.034 A 
BRANCH  19  22
ATOM     22  N   UNL     1      16.886  10.998  32.385  0.00  0.00    +0.080 N 
ATOM     23  O   UNL     1      15.697  11.232  32.126  0.00  0.00    +0.041 OA
ATOM     24  O   UNL     1      17.528  11.540  33.294  0.00  0.00    -0.576 OA
ENDBRANCH  19  22
ENDBRANCH  14  16
ENDBRANCH  10  12
ENDBRANCH   9  10
ENDBRANCH   5   9
ENDBRANCH   4   7
ENDBRANCH   1   4
BRANCH   1  25
ATOM     25  C   UNL     1      16.322   1.179  24.700  0.00  0.00    +0.175 C 
BRANCH  25  26
ATOM     26  C   UNL     1      17.491   0.573  23.910  0.00  0.00    +0.176 C 
ATOM     27  O   UNL     1      17.562   1.251  22.626  0.00  0.00    -0.332 OA
ATOM     28  C   UNL     1      18.692   0.875  21.771  0.00  0.00    +0.277 C 
ATOM     29  C   UNL     1      18.720  -0.658  21.556  0.00  0.00    +0.110 C 
ATOM     30  C   UNL     1      18.615  -1.424  22.892  0.00  0.00    +0.143 C 
ATOM     31  C   UNL     1      17.407  -0.951  23.701  0.00  0.00    +0.133 C 
BRANCH  31  32
ATOM     32  N   UNL     1      17.367  -1.625  25.009  0.00  0.00    -0.308 N 
ATOM     33  H   UNL     1      18.075  -1.381  25.687  0.00  0.00    +0.149 HD
ATOM     34  C   UNL     1      16.456  -2.537  25.358  0.00  0.00    +0.210 C 
ATOM     35  C   UNL     1      15.406  -2.906  24.293  0.00  0.00    +0.109 C 
ATOM     36  O   UNL     1      16.438  -3.074  26.466  0.00  0.00    -0.276 OA
ENDBRANCH  31  32
BRANCH  28  37
ATOM     37  C   UNL     1      20.026   1.332  22.397  0.00  0.00    +0.414 C 
ATOM     38  O   UNL     1      21.050   0.672  22.224  0.00  0.00    -0.240 OA
ATOM     39  O   UNL     1      20.079   2.360  23.073  0.00  0.00    -0.240 OA
ENDBRANCH  28  37
BRANCH  30  40
ATOM     40  O   UNL     1      18.492  -2.823  22.637  0.00  0.00    -0.390 OA
ATOM     41  H   UNL     1      19.281  -3.138  22.190  0.00  0.00    +0.210 HD
ENDBRANCH  30  40
BRANCH  28  42
ATOM     42  O   UNL     1      18.513   1.515  20.482  0.00  0.00    -0.343 OA
ATOM     43  C   UNL     1      17.139   1.826  20.139  0.00  0.00    +0.198 C 
ENDBRANCH  28  42
ENDBRANCH  25  26
BRANCH  25  44
ATOM     44  O   UNL     1      16.119   2.552  24.312  0.00  0.00    -0.387 OA
ATOM     45  H   UNL     1      16.966   3.002  24.273  0.00  0.00    +0.210 HD
ENDBRANCH  25  44
ENDBRANCH   1  25
TORSDOF 15
