REMARK VINA RESULT:    -5.961      4.293      5.116
REMARK INTER + INTRA:         -13.378
REMARK INTER:                 -11.298
REMARK INTRA:                  -2.080
REMARK UNBOUND:                -1.667
REMARK  Name = lig_assembled_43.pdb
REMARK  20 active torsions:
REMARK  status: ('A' for Active; 'I' for Inactive)
REMARK    1  A    between atoms: _2  and  _9
REMARK    2  A    between atoms: _4  and  _18
REMARK    3  A    between atoms: _6  and  _7
REMARK    4  A    between atoms: _6  and  _18
REMARK    5  A    between atoms: _9  and  _10
REMARK    6  A    between atoms: _10  and  _11
REMARK    7  A    between atoms: _11  and  _12
REMARK    8  A    between atoms: _12  and  _13
REMARK    9  A    between atoms: _14  and  _34
REMARK   10  A    between atoms: _16  and  _22
REMARK   11  A    between atoms: _17  and  _21
REMARK   12  A    between atoms: _21  and  _22
REMARK   13  A    between atoms: _24  and  _25
REMARK   14  A    between atoms: _26  and  _27
REMARK   15  A    between atoms: _28  and  _30
REMARK   16  A    between atoms: _30  and  _31
REMARK   17  A    between atoms: _30  and  _32
REMARK   18  A    between atoms: _32  and  _33
REMARK   19  A    between atoms: _32  and  _34
REMARK   20  A    between atoms: _35  and  _37
REMARK                            x       y       z     vdW  Elec       q    Type
REMARK                         _______ _______ _______ _____ _____    ______ ____
ROOT
ATOM      1  C   UNL     1       7.914   2.417  34.272  0.00  0.00    +0.163 C 
ENDROOT
BRANCH   1   2
ATOM      2  O   UNL     1       8.380   2.745  35.591  0.00  0.00    -0.388 OA
ATOM      3  H   UNL     1       9.331   2.614  35.636  0.00  0.00    +0.210 HD
ENDBRANCH   1   2
BRANCH   1   4
ATOM      4  C   UNL     1       7.885   3.665  33.372  0.00  0.00    +0.175 C 
BRANCH   4   5
ATOM      5  C   UNL     1       7.021   4.787  33.967  0.00  0.00    +0.176 C 
ATOM      6  O   UNL     1       7.748   5.367  35.084  0.00  0.00    -0.332 OA
ATOM      7  C   UNL     1       7.119   6.531  35.715  0.00  0.00    +0.277 C 
ATOM      8  C   UNL     1       5.672   6.194  36.151  0.00  0.00    +0.110 C 
ATOM      9  C   UNL     1       4.868   5.545  35.005  0.00  0.00    +0.143 C 
ATOM     10  C   UNL     1       5.616   4.346  34.420  0.00  0.00    +0.133 C 
BRANCH  10  11
ATOM     11  N   UNL     1       4.882   3.790  33.273  0.00  0.00    -0.308 N 
ATOM     12  H   UNL     1       4.815   4.354  32.438  0.00  0.00    +0.149 HD
ATOM     13  C   UNL     1       4.298   2.588  33.264  0.00  0.00    +0.210 C 
ATOM     14  C   UNL     1       4.396   1.764  34.562  0.00  0.00    +0.109 C 
ATOM     15  O   UNL     1       3.702   2.142  32.283  0.00  0.00    -0.276 OA
ENDBRANCH  10  11
BRANCH   7  16
ATOM     16  C   UNL     1       7.098   7.733  34.747  0.00  0.00    +0.414 C 
ATOM     17  O   UNL     1       8.151   8.267  34.400  0.00  0.00    -0.240 OA
ATOM     18  O   UNL     1       6.031   8.167  34.314  0.00  0.00    -0.240 OA
ENDBRANCH   7  16
BRANCH   9  19
ATOM     19  O   UNL     1       3.597   5.114  35.492  0.00  0.00    -0.390 OA
ATOM     20  H   UNL     1       3.298   5.711  36.182  0.00  0.00    +0.210 HD
ENDBRANCH   9  19
BRANCH   7  21
ATOM     21  O   UNL     1       7.886   6.871  36.899  0.00  0.00    -0.343 OA
ATOM     22  C   UNL     1       7.101   7.069  38.101  0.00  0.00    +0.198 C 
ENDBRANCH   7  21
ENDBRANCH   4   5
BRANCH   4  23
ATOM     23  O   UNL     1       7.411   3.318  32.056  0.00  0.00    -0.387 OA
ATOM     24  H   UNL     1       8.155   3.069  31.503  0.00  0.00    +0.210 HD
ENDBRANCH   4  23
ENDBRANCH   1   4
BRANCH   1  25
ATOM     25  C   UNL     1       8.818   1.360  33.647  0.00  0.00    +0.141 C 
BRANCH  25  28
ATOM     26  C   UNL     1       7.641  -0.795  33.369  0.00  0.00    +0.401 C 
ATOM     27  O   UNL     1       7.869  -1.175  34.520  0.00  0.00    -0.226 OA
ATOM     28  N   UNL     1       8.052   0.373  32.875  0.00  0.00    -0.279 N 
ATOM     29  H   UNL     1       7.825   0.591  31.915  0.00  0.00    +0.152 HD
BRANCH  26  30
ATOM     30  O   UNL     1       6.897  -1.644  32.492  0.00  0.00    -0.444 OA
BRANCH  30  31
ATOM     31  C   UNL     1       5.676  -0.997  32.122  0.00  0.00    +0.292 C 
BRANCH  31  33
ATOM     32  N   UNL     1       4.250  -0.763  30.112  0.00  0.00    -0.131 NA
ATOM     33  C   UNL     1       5.452  -1.115  30.670  0.00  0.00    +0.120 A 
ATOM     34  C   UNL     1       6.296  -1.558  29.677  0.00  0.00    +0.137 A 
ATOM     35  N   UNL     1       5.548  -1.455  28.543  0.00  0.00    -0.251 N 
ATOM     36  N   UNL     1       4.322  -0.977  28.805  0.00  0.00    -0.065 NA
BRANCH  35  37
ATOM     37  C   UNL     1       5.920  -1.821  27.193  0.00  0.00    +0.145 C 
BRANCH  37  38
ATOM     38  C   UNL     1       7.353  -2.340  27.129  0.00  0.00    +0.024 C 
BRANCH  38  39
ATOM     39  C   UNL     1       7.779  -2.679  25.699  0.00  0.00    +0.006 C 
BRANCH  39  40
ATOM     40  C   UNL     1       6.787  -2.095  24.690  0.00  0.00    +0.026 C 
BRANCH  40  41
ATOM     41  C   UNL     1       6.093  -3.164  23.900  0.00  0.00    -0.034 C 
ATOM     42  C   UNL     1       6.727  -4.182  23.304  0.00  0.00    +0.004 C 
ENDBRANCH  40  41
ENDBRANCH  39  40
ENDBRANCH  38  39
ENDBRANCH  37  38
ENDBRANCH  35  37
ENDBRANCH  31  33
ENDBRANCH  30  31
ENDBRANCH  26  30
ENDBRANCH  25  28
ENDBRANCH   1  25
TORSDOF 18
