REMARK VINA RESULT:    -6.214      2.064      3.863
REMARK INTER + INTRA:         -13.437
REMARK INTER:                 -11.169
REMARK INTRA:                  -2.267
REMARK UNBOUND:                -1.955
REMARK  Name = lig_assembled_78.pdb
REMARK  18 active torsions:
REMARK  status: ('A' for Active; 'I' for Inactive)
REMARK    1  A    between atoms: _2  and  _9
REMARK    2  A    between atoms: _4  and  _21
REMARK    3  A    between atoms: _6  and  _7
REMARK    4  A    between atoms: _6  and  _21
REMARK    5  A    between atoms: _9  and  _41
REMARK    6  A    between atoms: _10  and  _41
REMARK    7  A    between atoms: _17  and  _37
REMARK    8  A    between atoms: _19  and  _25
REMARK    9  A    between atoms: _20  and  _24
REMARK   10  A    between atoms: _24  and  _25
REMARK   11  A    between atoms: _27  and  _28
REMARK   12  A    between atoms: _29  and  _30
REMARK   13  A    between atoms: _31  and  _33
REMARK   14  A    between atoms: _33  and  _34
REMARK   15  A    between atoms: _33  and  _35
REMARK   16  A    between atoms: _35  and  _36
REMARK   17  A    between atoms: _35  and  _37
REMARK   18  A    between atoms: _38  and  _40
REMARK                            x       y       z     vdW  Elec       q    Type
REMARK                         _______ _______ _______ _____ _____    ______ ____
ROOT
ATOM      1  C   UNL     1       2.806   3.177  34.609  0.00  0.00    +0.163 C 
ENDROOT
BRANCH   1   2
ATOM      2  O   UNL     1       2.606   4.393  35.348  0.00  0.00    -0.388 OA
ATOM      3  H   UNL     1       1.884   4.274  35.971  0.00  0.00    +0.210 HD
ENDBRANCH   1   2
BRANCH   1   4
ATOM      4  C   UNL     1       3.829   2.268  35.312  0.00  0.00    +0.175 C 
BRANCH   4   5
ATOM      5  C   UNL     1       5.275   2.708  35.042  0.00  0.00    +0.176 C 
ATOM      6  O   UNL     1       5.503   3.957  35.752  0.00  0.00    -0.332 OA
ATOM      7  C   UNL     1       6.872   4.478  35.695  0.00  0.00    +0.277 C 
ATOM      8  C   UNL     1       7.336   4.620  34.225  0.00  0.00    +0.110 C 
ATOM      9  C   UNL     1       7.085   3.327  33.421  0.00  0.00    +0.143 C 
ATOM     10  C   UNL     1       5.631   2.873  33.552  0.00  0.00    +0.133 C 
BRANCH  10  11
ATOM     11  N   UNL     1       5.426   1.594  32.854  0.00  0.00    -0.308 N 
ATOM     12  H   UNL     1       5.857   0.769  33.245  0.00  0.00    +0.149 HD
ATOM     13  C   UNL     1       4.707   1.454  31.737  0.00  0.00    +0.210 C 
ATOM     14  C   UNL     1       4.084   2.735  31.152  0.00  0.00    +0.109 C 
ATOM     15  O   UNL     1       4.539   0.368  31.181  0.00  0.00    -0.276 OA
ENDBRANCH  10  11
BRANCH   7  16
ATOM     16  C   UNL     1       7.842   3.550  36.455  0.00  0.00    +0.414 C 
ATOM     17  O   UNL     1       8.749   2.976  35.854  0.00  0.00    -0.240 OA
ATOM     18  O   UNL     1       7.718   3.376  37.668  0.00  0.00    -0.240 OA
ENDBRANCH   7  16
BRANCH   7  19
ATOM     19  O   UNL     1       6.876   5.794  36.306  0.00  0.00    -0.343 OA
ATOM     20  C   UNL     1       5.587   6.249  36.790  0.00  0.00    +0.198 C 
ENDBRANCH   7  19
BRANCH   9  21
ATOM     21  O   UNL     1       7.386   3.551  32.043  0.00  0.00    -0.390 OA
ATOM     22  H   UNL     1       7.685   2.731  31.642  0.00  0.00    +0.210 HD
ENDBRANCH   9  21
ENDBRANCH   4   5
BRANCH   4  23
ATOM     23  O   UNL     1       3.642   0.899  34.901  0.00  0.00    -0.387 OA
ATOM     24  H   UNL     1       4.102   0.316  35.510  0.00  0.00    +0.210 HD
ENDBRANCH   4  23
ENDBRANCH   1   4
BRANCH   1  25
ATOM     25  C   UNL     1       1.483   2.433  34.459  0.00  0.00    +0.141 C 
BRANCH  25  28
ATOM     26  C   UNL     1       0.637   2.684  32.151  0.00  0.00    +0.401 C 
ATOM     27  O   UNL     1       0.155   3.802  32.348  0.00  0.00    -0.226 OA
ATOM     28  N   UNL     1       1.269   1.969  33.082  0.00  0.00    -0.279 N 
ATOM     29  H   UNL     1       1.621   1.057  32.827  0.00  0.00    +0.152 HD
BRANCH  26  30
ATOM     30  O   UNL     1       0.518   2.096  30.853  0.00  0.00    -0.444 OA
BRANCH  30  31
ATOM     31  C   UNL     1      -0.298   2.928  30.024  0.00  0.00    +0.292 C 
BRANCH  31  33
ATOM     32  N   UNL     1       1.744   3.572  28.774  0.00  0.00    -0.131 NA
ATOM     33  C   UNL     1       0.411   3.257  28.773  0.00  0.00    +0.120 A 
ATOM     34  C   UNL     1      -0.061   3.309  27.480  0.00  0.00    +0.139 A 
ATOM     35  N   UNL     1       1.044   3.601  26.738  0.00  0.00    -0.230 N 
ATOM     36  N   UNL     1       2.117   3.805  27.523  0.00  0.00    -0.064 NA
BRANCH  35  37
ATOM     37  C   UNL     1       1.151   3.784  25.312  0.00  0.00    +0.316 C 
BRANCH  37  38
ATOM     38  S   UNL     1       1.556   2.297  24.434  0.00  0.00    +0.017 S 
ATOM     39  O   UNL     1       2.875   1.838  24.823  0.00  0.00    -0.168 OA
ATOM     40  O   UNL     1       0.407   1.410  24.502  0.00  0.00    -0.168 OA
BRANCH  38  41
ATOM     41  C   UNL     1       1.706   2.821  22.739  0.00  0.00    +0.090 A 
ATOM     42  C   UNL     1       1.780   1.855  21.729  0.00  0.00    +0.027 A 
ATOM     43  C   UNL     1       1.871   2.262  20.399  0.00  0.00    +0.002 A 
ATOM     44  C   UNL     1       1.869   3.621  20.080  0.00  0.00    +0.000 A 
ATOM     45  C   UNL     1       1.775   4.579  21.090  0.00  0.00    +0.002 A 
ATOM     46  C   UNL     1       1.693   4.183  22.426  0.00  0.00    +0.027 A 
ENDBRANCH  38  41
ENDBRANCH  37  38
ENDBRANCH  35  37
ENDBRANCH  31  33
ENDBRANCH  30  31
ENDBRANCH  26  30
ENDBRANCH  25  28
ENDBRANCH   1  25
TORSDOF 16
