REMARK VINA RESULT:    -6.677     21.056     23.378
REMARK INTER + INTRA:         -15.931
REMARK INTER:                 -13.059
REMARK INTRA:                  -2.873
REMARK UNBOUND:                -2.424
REMARK  Name = lig_assembled_81.pdb
REMARK  22 active torsions:
REMARK  status: ('A' for Active; 'I' for Inactive)
REMARK    1  A    between atoms: _2  and  _12
REMARK    2  A    between atoms: _7  and  _30
REMARK    3  A    between atoms: _8  and  _24
REMARK    4  A    between atoms: _9  and  _10
REMARK    5  A    between atoms: _9  and  _30
REMARK    6  A    between atoms: _14  and  _15
REMARK    7  A    between atoms: _21  and  _22
REMARK    8  A    between atoms: _22  and  _23
REMARK    9  A    between atoms: _23  and  _25
REMARK   10  A    between atoms: _24  and  _25
REMARK   11  A    between atoms: _26  and  _46
REMARK   12  A    between atoms: _28  and  _34
REMARK   13  A    between atoms: _29  and  _33
REMARK   14  A    between atoms: _33  and  _34
REMARK   15  A    between atoms: _36  and  _37
REMARK   16  A    between atoms: _38  and  _39
REMARK   17  A    between atoms: _40  and  _42
REMARK   18  A    between atoms: _42  and  _43
REMARK   19  A    between atoms: _42  and  _44
REMARK   20  A    between atoms: _44  and  _45
REMARK   21  A    between atoms: _44  and  _46
REMARK   22  A    between atoms: _47  and  _49
REMARK                            x       y       z     vdW  Elec       q    Type
REMARK                         _______ _______ _______ _____ _____    ______ ____
ROOT
ATOM      1  C   UNL     1      -1.590   7.698  13.438  0.00  0.00    +0.401 C 
ATOM      2  O   UNL     1      -1.348   7.365  12.276  0.00  0.00    -0.226 OA
ATOM      3  N   UNL     1      -2.189   8.839  13.778  0.00  0.00    -0.279 N 
ATOM      4  H   UNL     1      -2.353   9.019  14.759  0.00  0.00    +0.152 HD
ENDROOT
BRANCH   1   5
ATOM      5  O   UNL     1      -1.217   6.819  14.503  0.00  0.00    -0.444 OA
BRANCH   5   6
ATOM      6  C   UNL     1      -2.214   6.861  15.528  0.00  0.00    +0.289 C 
BRANCH   6   8
ATOM      7  N   UNL     1      -2.760   5.454  17.461  0.00  0.00    -0.130 NA
ATOM      8  C   UNL     1      -1.805   6.027  16.676  0.00  0.00    +0.100 C 
ATOM      9  C   UNL     1      -0.562   5.701  17.184  0.00  0.00    +0.124 C 
ATOM     10  N   UNL     1      -0.825   4.801  18.208  0.00  0.00    -0.187 N 
ATOM     11  N   UNL     1      -2.150   4.834  18.456  0.00  0.00    -0.010 NA
BRANCH  10  12
ATOM     12  C   UNL     1       0.117   4.105  19.039  0.00  0.00    +0.150 A 
ATOM     13  C   UNL     1       0.270   4.278  20.437  0.00  0.00    +0.022 A 
ATOM     14  C   UNL     1       1.336   3.515  20.982  0.00  0.00    +0.081 A 
ATOM     15  N   UNL     1       2.154   2.765  20.195  0.00  0.00    -0.214 NA
ATOM     16  C   UNL     1       1.927   2.705  18.894  0.00  0.00    +0.215 A 
ATOM     17  N   UNL     1       2.819   2.016  18.107  0.00  0.00    -0.327 N 
ATOM     18  H   UNL     1       3.339   1.341  18.646  0.00  0.00    +0.145 HD
ATOM     19  H   UNL     1       2.403   1.729  17.233  0.00  0.00    +0.145 HD
ATOM     20  N   UNL     1       0.891   3.265  18.299  0.00  0.00    -0.198 NA
BRANCH  14  21
ATOM     21  C   UNL     1       1.761   3.412  22.430  0.00  0.00    +0.001 A 
ATOM     22  C   UNL     1       1.753   4.474  23.353  0.00  0.00    +0.010 A 
ATOM     23  C   UNL     1       2.149   4.312  24.691  0.00  0.00    +0.001 A 
ATOM     24  C   UNL     1       2.510   3.068  25.174  0.00  0.00    +0.000 A 
ATOM     25  C   UNL     1       2.481   1.974  24.312  0.00  0.00    +0.001 A 
ATOM     26  C   UNL     1       2.125   2.154  22.967  0.00  0.00    +0.010 A 
ENDBRANCH  14  21
BRANCH  13  27
ATOM     27  C   UNL     1      -0.615   5.070  21.404  0.00  0.00    +0.069 C 
BRANCH  27  28
ATOM     28  C   UNL     1      -1.849   4.448  22.029  0.00  0.00    +0.164 C 
BRANCH  28  29
ATOM     29  O   UNL     1      -1.892   4.421  23.461  0.00  0.00    -0.380 OA
BRANCH  29  30
ATOM     30  C   UNL     1      -2.451   3.143  23.824  0.00  0.00    +0.156 C 
ATOM     31  C   UNL     1      -1.380   2.089  23.984  0.00  0.00    +0.034 C 
ENDBRANCH  29  30
ENDBRANCH  28  29
ENDBRANCH  27  28
ENDBRANCH  13  27
ENDBRANCH  10  12
ENDBRANCH   6   8
ENDBRANCH   5   6
ENDBRANCH   1   5
BRANCH   3  32
ATOM     32  C   UNL     1      -2.624   9.851  12.807  0.00  0.00    +0.141 C 
BRANCH  32  33
ATOM     33  C   UNL     1      -3.925  10.524  13.232  0.00  0.00    +0.163 C 
BRANCH  33  34
ATOM     34  O   UNL     1      -5.036   9.646  12.987  0.00  0.00    -0.388 OA
ATOM     35  H   UNL     1      -4.736   8.880  12.492  0.00  0.00    +0.210 HD
ENDBRANCH  33  34
BRANCH  33  36
ATOM     36  C   UNL     1      -3.844  10.906  14.720  0.00  0.00    +0.175 C 
BRANCH  36  37
ATOM     37  C   UNL     1      -5.111  11.629  15.201  0.00  0.00    +0.176 C 
ATOM     38  O   UNL     1      -6.169  10.639  15.327  0.00  0.00    -0.332 OA
ATOM     39  C   UNL     1      -7.434  11.131  15.880  0.00  0.00    +0.277 C 
ATOM     40  C   UNL     1      -7.946  12.344  15.065  0.00  0.00    +0.110 C 
ATOM     41  C   UNL     1      -6.846  13.409  14.877  0.00  0.00    +0.143 C 
ATOM     42  C   UNL     1      -5.573  12.788  14.300  0.00  0.00    +0.133 C 
BRANCH  42  43
ATOM     43  N   UNL     1      -4.505  13.795  14.207  0.00  0.00    -0.308 N 
ATOM     44  H   UNL     1      -4.100  14.134  15.068  0.00  0.00    +0.149 HD
ATOM     45  C   UNL     1      -4.035  14.291  13.059  0.00  0.00    +0.210 C 
ATOM     46  C   UNL     1      -4.690  13.773  11.765  0.00  0.00    +0.109 C 
ATOM     47  O   UNL     1      -3.128  15.123  13.011  0.00  0.00    -0.276 OA
ENDBRANCH  42  43
BRANCH  39  48
ATOM     48  C   UNL     1      -7.264  11.539  17.358  0.00  0.00    +0.414 C 
ATOM     49  O   UNL     1      -6.429  10.974  18.065  0.00  0.00    -0.240 OA
ATOM     50  O   UNL     1      -7.959  12.432  17.844  0.00  0.00    -0.240 OA
ENDBRANCH  39  48
BRANCH  39  51
ATOM     51  O   UNL     1      -8.414  10.065  15.778  0.00  0.00    -0.343 OA
ATOM     52  C   UNL     1      -8.505   9.441  14.473  0.00  0.00    +0.198 C 
ENDBRANCH  39  51
BRANCH  41  53
ATOM     53  O   UNL     1      -7.311  14.433  13.997  0.00  0.00    -0.390 OA
ATOM     54  H   UNL     1      -6.956  14.285  13.117  0.00  0.00    +0.210 HD
ENDBRANCH  41  53
ENDBRANCH  36  37
BRANCH  36  55
ATOM     55  O   UNL     1      -2.683  11.727  14.960  0.00  0.00    -0.387 OA
ATOM     56  H   UNL     1      -2.835  12.280  15.729  0.00  0.00    +0.210 HD
ENDBRANCH  36  55
ENDBRANCH  33  36
ENDBRANCH  32  33
ENDBRANCH   3  32
TORSDOF 19
