REMARK VINA RESULT:    -5.879     13.398     18.270
REMARK INTER + INTRA:         -13.030
REMARK INTER:                 -10.931
REMARK INTRA:                  -2.100
REMARK UNBOUND:                -2.511
REMARK  Name = lig_assembled_6.pdb
REMARK  17 active torsions:
REMARK  status: ('A' for Active; 'I' for Inactive)
REMARK    1  A    between atoms: _2  and  _10
REMARK    2  A    between atoms: _3  and  _13
REMARK    3  A    between atoms: _5  and  _21
REMARK    4  A    between atoms: _7  and  _8
REMARK    5  A    between atoms: _7  and  _21
REMARK    6  A    between atoms: _17  and  _37
REMARK    7  A    between atoms: _19  and  _25
REMARK    8  A    between atoms: _20  and  _24
REMARK    9  A    between atoms: _24  and  _25
REMARK   10  A    between atoms: _27  and  _28
REMARK   11  A    between atoms: _29  and  _30
REMARK   12  A    between atoms: _31  and  _33
REMARK   13  A    between atoms: _33  and  _34
REMARK   14  A    between atoms: _33  and  _35
REMARK   15  A    between atoms: _35  and  _36
REMARK   16  A    between atoms: _35  and  _37
REMARK   17  A    between atoms: _38  and  _40
REMARK                            x       y       z     vdW  Elec       q    Type
REMARK                         _______ _______ _______ _____ _____    ______ ____
ROOT
ATOM      1  C   UNL     1      20.395   5.351  24.253  0.00  0.00    +0.163 C 
ENDROOT
BRANCH   1   2
ATOM      2  O   UNL     1      21.231   5.149  25.404  0.00  0.00    -0.388 OA
ATOM      3  H   UNL     1      20.756   5.410  26.196  0.00  0.00    +0.210 HD
ENDBRANCH   1   2
BRANCH   1   4
ATOM      4  C   UNL     1      20.217   6.843  23.992  0.00  0.00    +0.141 C 
BRANCH   4   7
ATOM      5  C   UNL     1      19.770   8.045  26.104  0.00  0.00    +0.401 C 
ATOM      6  O   UNL     1      20.957   8.101  26.433  0.00  0.00    -0.226 OA
ATOM      7  N   UNL     1      19.334   7.470  24.983  0.00  0.00    -0.279 N 
ATOM      8  H   UNL     1      18.339   7.466  24.804  0.00  0.00    +0.152 HD
BRANCH   5   9
ATOM      9  O   UNL     1      18.782   8.621  26.963  0.00  0.00    -0.444 OA
BRANCH   9  10
ATOM     10  C   UNL     1      19.426   9.388  27.985  0.00  0.00    +0.292 C 
BRANCH  10  12
ATOM     11  N   UNL     1      17.985  10.347  29.754  0.00  0.00    -0.131 NA
ATOM     12  C   UNL     1      18.679   9.285  29.252  0.00  0.00    +0.121 A 
ATOM     13  C   UNL     1      18.528   8.210  30.098  0.00  0.00    +0.143 A 
ATOM     14  N   UNL     1      17.698   8.659  31.099  0.00  0.00    -0.220 N 
ATOM     15  N   UNL     1      17.399   9.962  30.880  0.00  0.00    -0.060 NA
BRANCH  14  16
ATOM     16  C   UNL     1      17.158   7.936  32.196  0.00  0.00    +0.067 A 
ATOM     17  C   UNL     1      17.628   6.651  32.507  0.00  0.00    +0.034 A 
ATOM     18  C   UNL     1      17.046   5.925  33.552  0.00  0.00    +0.086 A 
ATOM     19  C   UNL     1      15.995   6.484  34.288  0.00  0.00    +0.273 A 
ATOM     20  C   UNL     1      15.536   7.776  34.003  0.00  0.00    +0.086 A 
ATOM     21  C   UNL     1      16.121   8.500  32.958  0.00  0.00    +0.034 A 
BRANCH  19  22
ATOM     22  N   UNL     1      15.359   5.699  35.355  0.00  0.00    +0.080 N 
ATOM     23  O   UNL     1      14.132   5.803  35.491  0.00  0.00    +0.041 OA
ATOM     24  O   UNL     1      16.088   4.987  36.059  0.00  0.00    -0.576 OA
ENDBRANCH  19  22
ENDBRANCH  14  16
ENDBRANCH  10  12
ENDBRANCH   9  10
ENDBRANCH   5   9
ENDBRANCH   4   7
ENDBRANCH   1   4
BRANCH   1  25
ATOM     25  C   UNL     1      19.017   4.696  24.453  0.00  0.00    +0.175 C 
BRANCH  25  26
ATOM     26  C   UNL     1      19.082   3.166  24.339  0.00  0.00    +0.176 C 
ATOM     27  O   UNL     1      18.253   2.766  23.214  0.00  0.00    -0.332 OA
ATOM     28  C   UNL     1      18.277   1.337  22.885  0.00  0.00    +0.277 C 
ATOM     29  C   UNL     1      17.914   0.490  24.130  0.00  0.00    +0.110 C 
ATOM     30  C   UNL     1      18.748   0.901  25.361  0.00  0.00    +0.143 C 
ATOM     31  C   UNL     1      18.654   2.407  25.609  0.00  0.00    +0.133 C 
BRANCH  31  32
ATOM     32  N   UNL     1      19.521   2.800  26.732  0.00  0.00    -0.308 N 
ATOM     33  H   UNL     1      20.521   2.754  26.594  0.00  0.00    +0.149 HD
ATOM     34  C   UNL     1      19.073   3.212  27.921  0.00  0.00    +0.210 C 
ATOM     35  C   UNL     1      17.544   3.244  28.108  0.00  0.00    +0.109 C 
ATOM     36  O   UNL     1      19.823   3.548  28.838  0.00  0.00    -0.276 OA
ENDBRANCH  31  32
BRANCH  28  37
ATOM     37  C   UNL     1      19.667   0.919  22.364  0.00  0.00    +0.414 C 
ATOM     38  O   UNL     1      20.465   1.770  21.973  0.00  0.00    -0.240 OA
ATOM     39  O   UNL     1      19.992  -0.269  22.335  0.00  0.00    -0.240 OA
ENDBRANCH  28  37
BRANCH  30  40
ATOM     40  O   UNL     1      18.278   0.204  26.516  0.00  0.00    -0.390 OA
ATOM     41  H   UNL     1      18.474   0.718  27.303  0.00  0.00    +0.210 HD
ENDBRANCH  30  40
BRANCH  28  42
ATOM     42  O   UNL     1      17.278   1.095  21.861  0.00  0.00    -0.343 OA
ATOM     43  C   UNL     1      17.142   2.152  20.877  0.00  0.00    +0.198 C 
ENDBRANCH  28  42
ENDBRANCH  25  26
BRANCH  25  44
ATOM     44  O   UNL     1      18.073   5.225  23.500  0.00  0.00    -0.387 OA
ATOM     45  H   UNL     1      18.225   4.824  22.642  0.00  0.00    +0.210 HD
ENDBRANCH  25  44
ENDBRANCH   1  25
TORSDOF 15
