REMARK VINA RESULT:    -6.413      6.306      9.518
REMARK INTER + INTRA:         -14.188
REMARK INTER:                 -10.251
REMARK INTRA:                  -3.937
REMARK UNBOUND:                -3.089
REMARK  Name = lig_assembled_91.pdb
REMARK  16 active torsions:
REMARK  status: ('A' for Active; 'I' for Inactive)
REMARK    1  A    between atoms: _2  and  _10
REMARK    2  A    between atoms: _5  and  _26
REMARK    3  A    between atoms: _7  and  _8
REMARK    4  A    between atoms: _7  and  _26
REMARK    5  A    between atoms: _22  and  _42
REMARK    6  A    between atoms: _24  and  _30
REMARK    7  A    between atoms: _25  and  _29
REMARK    8  A    between atoms: _29  and  _30
REMARK    9  A    between atoms: _32  and  _33
REMARK   10  A    between atoms: _34  and  _35
REMARK   11  A    between atoms: _36  and  _38
REMARK   12  A    between atoms: _38  and  _39
REMARK   13  A    between atoms: _38  and  _40
REMARK   14  A    between atoms: _40  and  _41
REMARK   15  A    between atoms: _40  and  _42
REMARK   16  A    between atoms: _43  and  _45
REMARK                            x       y       z     vdW  Elec       q    Type
REMARK                         _______ _______ _______ _____ _____    ______ ____
ROOT
ATOM      1  C   UNL     1       0.595  -4.388  25.041  0.00  0.00    +0.401 C 
ATOM      2  O   UNL     1       1.182  -5.360  24.561  0.00  0.00    -0.226 OA
ATOM      3  N   UNL     1       0.668  -4.031  26.324  0.00  0.00    -0.279 N 
ATOM      4  H   UNL     1       0.158  -3.211  26.620  0.00  0.00    +0.152 HD
ENDROOT
BRANCH   3   5
ATOM      5  C   UNL     1       1.448  -4.763  27.329  0.00  0.00    +0.141 C 
BRANCH   5   6
ATOM      6  C   UNL     1       2.533  -3.891  27.952  0.00  0.00    +0.163 C 
BRANCH   6   7
ATOM      7  O   UNL     1       3.085  -4.543  29.107  0.00  0.00    -0.388 OA
ATOM      8  H   UNL     1       3.990  -4.809  28.924  0.00  0.00    +0.210 HD
ENDBRANCH   6   7
BRANCH   6   9
ATOM      9  C   UNL     1       3.626  -3.605  26.907  0.00  0.00    +0.175 C 
BRANCH   9  10
ATOM     10  C   UNL     1       5.030  -3.591  27.528  0.00  0.00    +0.176 C 
ATOM     11  O   UNL     1       5.079  -2.511  28.501  0.00  0.00    -0.332 OA
ATOM     12  C   UNL     1       6.319  -2.412  29.276  0.00  0.00    +0.277 C 
ATOM     13  C   UNL     1       7.542  -2.321  28.331  0.00  0.00    +0.110 C 
ATOM     14  C   UNL     1       7.517  -3.430  27.259  0.00  0.00    +0.143 C 
ATOM     15  C   UNL     1       6.181  -3.446  26.516  0.00  0.00    +0.133 C 
BRANCH  15  16
ATOM     16  N   UNL     1       6.137  -4.562  25.558  0.00  0.00    -0.308 N 
ATOM     17  H   UNL     1       6.200  -5.501  25.925  0.00  0.00    +0.149 HD
ATOM     18  C   UNL     1       6.019  -4.414  24.235  0.00  0.00    +0.210 C 
ATOM     19  C   UNL     1       5.952  -2.970  23.706  0.00  0.00    +0.109 C 
ATOM     20  O   UNL     1       5.970  -5.368  23.458  0.00  0.00    -0.276 OA
ENDBRANCH  15  16
BRANCH  12  21
ATOM     21  C   UNL     1       6.479  -3.629  30.211  0.00  0.00    +0.414 C 
ATOM     22  O   UNL     1       5.492  -4.138  30.741  0.00  0.00    -0.240 OA
ATOM     23  O   UNL     1       7.594  -4.102  30.434  0.00  0.00    -0.240 OA
ENDBRANCH  12  21
BRANCH  14  24
ATOM     24  O   UNL     1       8.574  -3.219  26.322  0.00  0.00    -0.390 OA
ATOM     25  H   UNL     1       9.369  -2.951  26.790  0.00  0.00    +0.210 HD
ENDBRANCH  14  24
BRANCH  12  26
ATOM     26  O   UNL     1       6.259  -1.195  30.065  0.00  0.00    -0.343 OA
ATOM     27  C   UNL     1       4.923  -0.683  30.299  0.00  0.00    +0.198 C 
ENDBRANCH  12  26
ENDBRANCH   9  10
BRANCH   9  28
ATOM     28  O   UNL     1       3.363  -2.351  26.245  0.00  0.00    -0.387 OA
ATOM     29  H   UNL     1       4.060  -1.725  26.457  0.00  0.00    +0.210 HD
ENDBRANCH   9  28
ENDBRANCH   6   9
ENDBRANCH   5   6
ENDBRANCH   3   5
BRANCH   1  30
ATOM     30  O   UNL     1      -0.216  -3.576  24.187  0.00  0.00    -0.444 OA
BRANCH  30  31
ATOM     31  C   UNL     1       0.583  -3.058  23.120  0.00  0.00    +0.292 C 
BRANCH  31  33
ATOM     32  N   UNL     1       2.605  -1.701  23.525  0.00  0.00    -0.131 NA
ATOM     33  C   UNL     1       1.249  -1.806  23.531  0.00  0.00    +0.121 A 
ATOM     34  C   UNL     1       0.711  -0.608  23.941  0.00  0.00    +0.143 A 
ATOM     35  N   UNL     1       1.791   0.204  24.226  0.00  0.00    -0.218 N 
ATOM     36  N   UNL     1       2.925  -0.485  23.942  0.00  0.00    -0.060 NA
BRANCH  35  37
ATOM     37  C   UNL     1       1.818   1.538  24.738  0.00  0.00    +0.085 A 
ATOM     38  C   UNL     1       1.855   1.768  26.160  0.00  0.00    +0.026 A 
ATOM     39  C   UNL     1       1.854   3.119  26.558  0.00  0.00    +0.074 A 
ATOM     40  C   UNL     1       1.885   3.465  27.901  0.00  0.00    +0.028 A 
ATOM     41  C   UNL     1       1.925   2.511  28.912  0.00  0.00    +0.002 A 
ATOM     42  C   UNL     1       1.963   1.174  28.568  0.00  0.00    +0.001 A 
ATOM     43  N   UNL     1       1.846   4.143  25.708  0.00  0.00    -0.247 NA
ATOM     44  C   UNL     1       1.842   3.926  24.394  0.00  0.00    +0.074 A 
ATOM     45  C   UNL     1       1.832   5.067  23.597  0.00  0.00    +0.028 A 
ATOM     46  C   UNL     1       1.790   5.004  22.209  0.00  0.00    +0.002 A 
ATOM     47  C   UNL     1       1.743   3.768  21.596  0.00  0.00    +0.001 A 
ATOM     48  C   UNL     1       1.747   2.611  22.383  0.00  0.00    +0.012 A 
ATOM     49  C   UNL     1       1.951   0.809  27.217  0.00  0.00    +0.012 A 
ATOM     50  C   UNL     1       1.817   2.648  23.813  0.00  0.00    +0.026 A 
ENDBRANCH  35  37
ENDBRANCH  31  33
ENDBRANCH  30  31
ENDBRANCH   1  30
TORSDOF 14
