REMARK VINA RESULT:    -4.478     17.631     19.805
REMARK INTER + INTRA:         -12.712
REMARK INTER:                  -8.535
REMARK INTRA:                  -4.177
REMARK UNBOUND:                -4.177
REMARK  Name = lig_assembled_50.pdb
REMARK  20 active torsions:
REMARK  status: ('A' for Active; 'I' for Inactive)
REMARK    1  A    between atoms: _2  and  _9
REMARK    2  A    between atoms: _4  and  _17
REMARK    3  A    between atoms: _5  and  _10
REMARK    4  A    between atoms: _5  and  _11
REMARK    5  A    between atoms: _6  and  _7
REMARK    6  A    between atoms: _6  and  _17
REMARK    7  A    between atoms: _9  and  _10
REMARK    8  A    between atoms: _10  and  _12
REMARK    9  A    between atoms: _13  and  _33
REMARK   10  A    between atoms: _15  and  _21
REMARK   11  A    between atoms: _16  and  _20
REMARK   12  A    between atoms: _20  and  _21
REMARK   13  A    between atoms: _23  and  _24
REMARK   14  A    between atoms: _25  and  _26
REMARK   15  A    between atoms: _27  and  _29
REMARK   16  A    between atoms: _29  and  _30
REMARK   17  A    between atoms: _29  and  _31
REMARK   18  A    between atoms: _31  and  _32
REMARK   19  A    between atoms: _31  and  _33
REMARK   20  A    between atoms: _34  and  _36
REMARK                            x       y       z     vdW  Elec       q    Type
REMARK                         _______ _______ _______ _____ _____    ______ ____
ROOT
ATOM      1  C   UNL     1       0.778   2.457  20.270  0.00  0.00    +0.163 C 
ENDROOT
BRANCH   1   2
ATOM      2  O   UNL     1       1.535   1.537  21.073  0.00  0.00    -0.388 OA
ATOM      3  H   UNL     1       1.984   2.017  21.773  0.00  0.00    +0.210 HD
ENDBRANCH   1   2
BRANCH   1   4
ATOM      4  C   UNL     1      -0.649   2.623  20.820  0.00  0.00    +0.175 C 
BRANCH   4   5
ATOM      5  C   UNL     1      -0.761   2.167  22.283  0.00  0.00    +0.176 C 
ATOM      6  O   UNL     1      -0.818   0.714  22.295  0.00  0.00    -0.332 OA
ATOM      7  C   UNL     1      -0.821   0.092  23.623  0.00  0.00    +0.277 C 
ATOM      8  C   UNL     1      -1.968   0.668  24.488  0.00  0.00    +0.110 C 
ATOM      9  C   UNL     1      -1.967   2.211  24.480  0.00  0.00    +0.143 C 
ATOM     10  C   UNL     1      -1.962   2.752  23.049  0.00  0.00    +0.133 C 
BRANCH  10  11
ATOM     11  N   UNL     1      -1.873   4.221  23.054  0.00  0.00    -0.308 N 
ATOM     12  H   UNL     1      -1.024   4.641  23.406  0.00  0.00    +0.149 HD
ATOM     13  C   UNL     1      -2.841   5.035  22.624  0.00  0.00    +0.210 C 
ATOM     14  C   UNL     1      -4.132   4.364  22.119  0.00  0.00    +0.109 C 
ATOM     15  O   UNL     1      -2.734   6.261  22.627  0.00  0.00    -0.276 OA
ENDBRANCH  10  11
BRANCH   7  16
ATOM     16  C   UNL     1       0.528   0.319  24.336  0.00  0.00    +0.414 C 
ATOM     17  O   UNL     1       1.552   0.510  23.681  0.00  0.00    -0.240 OA
ATOM     18  O   UNL     1       0.592   0.311  25.566  0.00  0.00    -0.240 OA
ENDBRANCH   7  16
BRANCH   9  19
ATOM     19  O   UNL     1      -3.124   2.697  25.162  0.00  0.00    -0.390 OA
ATOM     20  H   UNL     1      -3.835   2.057  25.083  0.00  0.00    +0.210 HD
ENDBRANCH   9  19
BRANCH   7  21
ATOM     21  O   UNL     1      -1.049  -1.331  23.450  0.00  0.00    -0.343 OA
ATOM     22  C   UNL     1      -0.674  -1.858  22.153  0.00  0.00    +0.198 C 
ENDBRANCH   7  21
ENDBRANCH   4   5
BRANCH   4  23
ATOM     23  O   UNL     1      -1.585   1.895  20.000  0.00  0.00    -0.387 OA
ATOM     24  H   UNL     1      -1.916   2.469  19.305  0.00  0.00    +0.210 HD
ENDBRANCH   4  23
ENDBRANCH   1   4
BRANCH   1  25
ATOM     25  C   UNL     1       1.472   3.814  20.237  0.00  0.00    +0.141 C 
BRANCH  25  28
ATOM     26  C   UNL     1       1.392   5.213  22.272  0.00  0.00    +0.401 C 
ATOM     27  O   UNL     1       0.445   5.898  21.878  0.00  0.00    -0.226 OA
ATOM     28  N   UNL     1       1.940   4.223  21.567  0.00  0.00    -0.279 N 
ATOM     29  H   UNL     1       2.720   3.725  21.972  0.00  0.00    +0.152 HD
BRANCH  26  30
ATOM     30  O   UNL     1       1.956   5.483  23.558  0.00  0.00    -0.444 OA
BRANCH  30  31
ATOM     31  C   UNL     1       1.909   4.299  24.359  0.00  0.00    +0.292 C 
BRANCH  31  33
ATOM     32  N   UNL     1      -0.180   5.315  25.225  0.00  0.00    -0.131 NA
ATOM     33  C   UNL     1       0.834   4.401  25.367  0.00  0.00    +0.120 A 
ATOM     34  C   UNL     1       0.632   3.680  26.525  0.00  0.00    +0.137 A 
ATOM     35  N   UNL     1      -0.509   4.206  27.041  0.00  0.00    -0.249 N 
ATOM     36  N   UNL     1      -1.005   5.176  26.251  0.00  0.00    -0.065 NA
BRANCH  35  37
ATOM     37  C   UNL     1      -1.184   3.855  28.270  0.00  0.00    +0.178 C 
BRANCH  37  38
ATOM     38  C   UNL     1      -2.573   4.484  28.423  0.00  0.00    +0.161 C 
BRANCH  38  39
ATOM     39  O   UNL     1      -3.562   3.839  27.617  0.00  0.00    -0.388 OA
ATOM     40  H   UNL     1      -3.472   4.160  26.696  0.00  0.00    +0.210 HD
ENDBRANCH  38  39
BRANCH  38  41
ATOM     41  C   UNL     1      -3.057   4.558  29.877  0.00  0.00    +0.189 C 
BRANCH  41  42
ATOM     42  O   UNL     1      -2.419   5.621  30.584  0.00  0.00    -0.392 OA
ATOM     43  H   UNL     1      -2.872   6.454  30.355  0.00  0.00    +0.210 HD
ENDBRANCH  41  42
ENDBRANCH  38  41
ENDBRANCH  37  38
ENDBRANCH  35  37
ENDBRANCH  31  33
ENDBRANCH  30  31
ENDBRANCH  26  30
ENDBRANCH  25  28
ENDBRANCH   1  25
TORSDOF 18
