REMARK VINA RESULT:    -6.515      8.276     12.822
REMARK INTER + INTRA:         -14.329
REMARK INTER:                 -11.431
REMARK INTRA:                  -2.898
REMARK UNBOUND:                -1.911
REMARK  Name = lig_assembled_26.pdb
REMARK  20 active torsions:
REMARK  status: ('A' for Active; 'I' for Inactive)
REMARK    1  A    between atoms: _2  and  _9
REMARK    2  A    between atoms: _4  and  _23
REMARK    3  A    between atoms: _6  and  _7
REMARK    4  A    between atoms: _6  and  _23
REMARK    5  A    between atoms: _9  and  _10
REMARK    6  A    between atoms: _9  and  _11
REMARK    7  A    between atoms: _11  and  _12
REMARK    8  A    between atoms: _12  and  _13
REMARK    9  A    between atoms: _19  and  _39
REMARK   10  A    between atoms: _21  and  _27
REMARK   11  A    between atoms: _22  and  _26
REMARK   12  A    between atoms: _26  and  _27
REMARK   13  A    between atoms: _29  and  _30
REMARK   14  A    between atoms: _31  and  _32
REMARK   15  A    between atoms: _33  and  _35
REMARK   16  A    between atoms: _35  and  _36
REMARK   17  A    between atoms: _35  and  _37
REMARK   18  A    between atoms: _37  and  _38
REMARK   19  A    between atoms: _37  and  _39
REMARK   20  A    between atoms: _40  and  _42
REMARK                            x       y       z     vdW  Elec       q    Type
REMARK                         _______ _______ _______ _____ _____    ______ ____
ROOT
ATOM      1  C   UNL     1       4.131  -4.096  24.536  0.00  0.00    +0.163 C 
ENDROOT
BRANCH   1   2
ATOM      2  O   UNL     1       3.125  -5.067  24.203  0.00  0.00    -0.388 OA
ATOM      3  H   UNL     1       2.271  -4.766  24.522  0.00  0.00    +0.210 HD
ENDBRANCH   1   2
BRANCH   1   4
ATOM      4  C   UNL     1       4.589  -3.327  23.284  0.00  0.00    +0.175 C 
BRANCH   4   5
ATOM      5  C   UNL     1       5.607  -4.124  22.456  0.00  0.00    +0.176 C 
ATOM      6  O   UNL     1       4.889  -5.181  21.761  0.00  0.00    -0.332 OA
ATOM      7  C   UNL     1       5.688  -5.985  20.832  0.00  0.00    +0.277 C 
ATOM      8  C   UNL     1       6.923  -6.579  21.554  0.00  0.00    +0.110 C 
ATOM      9  C   UNL     1       7.701  -5.497  22.333  0.00  0.00    +0.143 C 
ATOM     10  C   UNL     1       6.773  -4.719  23.267  0.00  0.00    +0.133 C 
BRANCH  10  11
ATOM     11  N   UNL     1       7.508  -3.636  23.938  0.00  0.00    -0.308 N 
ATOM     12  H   UNL     1       7.813  -2.854  23.376  0.00  0.00    +0.149 HD
ATOM     13  C   UNL     1       7.798  -3.618  25.242  0.00  0.00    +0.210 C 
ATOM     14  C   UNL     1       7.341  -4.837  26.067  0.00  0.00    +0.109 C 
ATOM     15  O   UNL     1       8.402  -2.690  25.781  0.00  0.00    -0.276 OA
ENDBRANCH  10  11
BRANCH   7  16
ATOM     16  C   UNL     1       6.152  -5.135  19.632  0.00  0.00    +0.414 C 
ATOM     17  O   UNL     1       5.471  -4.186  19.243  0.00  0.00    -0.240 OA
ATOM     18  O   UNL     1       7.207  -5.396  19.052  0.00  0.00    -0.240 OA
ENDBRANCH   7  16
BRANCH   7  19
ATOM     19  O   UNL     1       4.862  -7.082  20.363  0.00  0.00    -0.343 OA
ATOM     20  C   UNL     1       4.050  -7.717  21.383  0.00  0.00    +0.198 C 
ENDBRANCH   7  19
BRANCH   9  21
ATOM     21  O   UNL     1       8.737  -6.110  23.102  0.00  0.00    -0.390 OA
ATOM     22  H   UNL     1       8.483  -7.008  23.324  0.00  0.00    +0.210 HD
ENDBRANCH   9  21
ENDBRANCH   4   5
BRANCH   4  23
ATOM     23  O   UNL     1       5.145  -2.052  23.661  0.00  0.00    -0.387 OA
ATOM     24  H   UNL     1       5.355  -1.548  22.872  0.00  0.00    +0.210 HD
ENDBRANCH   4  23
ENDBRANCH   1   4
BRANCH   1  25
ATOM     25  C   UNL     1       3.588  -3.114  25.568  0.00  0.00    +0.141 C 
BRANCH  25  28
ATOM     26  C   UNL     1       1.250  -2.504  25.051  0.00  0.00    +0.401 C 
ATOM     27  O   UNL     1       0.772  -3.516  25.570  0.00  0.00    -0.226 OA
ATOM     28  N   UNL     1       2.555  -2.238  24.999  0.00  0.00    -0.279 N 
ATOM     29  H   UNL     1       2.851  -1.387  24.543  0.00  0.00    +0.152 HD
BRANCH  26  30
ATOM     30  O   UNL     1       0.369  -1.546  24.458  0.00  0.00    -0.444 OA
BRANCH  30  31
ATOM     31  C   UNL     1      -0.557  -1.076  25.442  0.00  0.00    +0.292 C 
BRANCH  31  33
ATOM     32  N   UNL     1      -1.343   1.265  25.684  0.00  0.00    -0.131 NA
ATOM     33  C   UNL     1      -0.325   0.351  25.726  0.00  0.00    +0.120 A 
ATOM     34  C   UNL     1       0.844   0.993  26.066  0.00  0.00    +0.137 A 
ATOM     35  N   UNL     1       0.483   2.301  26.191  0.00  0.00    -0.248 N 
ATOM     36  N   UNL     1      -0.842   2.456  25.988  0.00  0.00    -0.065 NA
BRANCH  35  37
ATOM     37  C   UNL     1       1.289   3.452  26.568  0.00  0.00    +0.113 C 
ATOM     38  C   UNL     1       1.992   3.316  27.926  0.00  0.00    +0.033 C 
BRANCH  37  39
ATOM     39  C   UNL     1       2.269   3.879  25.459  0.00  0.00    +0.106 C 
BRANCH  39  40
ATOM     40  C   UNL     1       1.599   4.500  24.248  0.00  0.00    +0.165 C 
ATOM     41  O   UNL     1       0.935   5.533  24.321  0.00  0.00    -0.292 OA
BRANCH  40  42
ATOM     42  C   UNL     1       1.715   3.810  22.927  0.00  0.00    +0.017 A 
ATOM     43  C   UNL     1       1.834   2.420  22.813  0.00  0.00    +0.011 A 
ATOM     44  C   UNL     1       1.898   1.825  21.551  0.00  0.00    +0.001 A 
ATOM     45  C   UNL     1       1.851   2.612  20.401  0.00  0.00    +0.000 A 
ATOM     46  C   UNL     1       1.744   3.995  20.506  0.00  0.00    +0.001 A 
ATOM     47  C   UNL     1       1.676   4.594  21.765  0.00  0.00    +0.011 A 
ENDBRANCH  40  42
ENDBRANCH  39  40
ENDBRANCH  37  39
ENDBRANCH  35  37
ENDBRANCH  31  33
ENDBRANCH  30  31
ENDBRANCH  26  30
ENDBRANCH  25  28
ENDBRANCH   1  25
TORSDOF 17
