REMARK VINA RESULT:    -6.393      4.550     10.276
REMARK INTER + INTRA:         -15.202
REMARK INTER:                 -11.999
REMARK INTRA:                  -3.204
REMARK UNBOUND:                -2.643
REMARK  Name = lig_assembled_37.pdb
REMARK  21 active torsions:
REMARK  status: ('A' for Active; 'I' for Inactive)
REMARK    1  A    between atoms: _2  and  _9
REMARK    2  A    between atoms: _4  and  _24
REMARK    3  A    between atoms: _6  and  _7
REMARK    4  A    between atoms: _6  and  _24
REMARK    5  A    between atoms: _9  and  _10
REMARK    6  A    between atoms: _9  and  _11
REMARK    7  A    between atoms: _11  and  _18
REMARK    8  A    between atoms: _12  and  _13
REMARK    9  A    between atoms: _12  and  _18
REMARK   10  A    between atoms: _20  and  _40
REMARK   11  A    between atoms: _22  and  _28
REMARK   12  A    between atoms: _23  and  _27
REMARK   13  A    between atoms: _27  and  _28
REMARK   14  A    between atoms: _30  and  _31
REMARK   15  A    between atoms: _32  and  _33
REMARK   16  A    between atoms: _34  and  _36
REMARK   17  A    between atoms: _36  and  _37
REMARK   18  A    between atoms: _36  and  _38
REMARK   19  A    between atoms: _38  and  _39
REMARK   20  A    between atoms: _38  and  _40
REMARK   21  A    between atoms: _41  and  _43
REMARK                            x       y       z     vdW  Elec       q    Type
REMARK                         _______ _______ _______ _____ _____    ______ ____
ROOT
ATOM      1  C   UNL     1      -1.071   3.233  29.348  0.00  0.00    +0.141 C 
ENDROOT
BRANCH   1   4
ATOM      2  C   UNL     1       1.280   3.476  30.070  0.00  0.00    +0.401 C 
ATOM      3  O   UNL     1       1.129   4.623  30.497  0.00  0.00    -0.226 OA
ATOM      4  N   UNL     1       0.307   2.754  29.512  0.00  0.00    -0.279 N 
ATOM      5  H   UNL     1       0.531   1.826  29.183  0.00  0.00    +0.152 HD
BRANCH   2   6
ATOM      6  O   UNL     1       2.569   2.864  30.165  0.00  0.00    -0.444 OA
BRANCH   6   7
ATOM      7  C   UNL     1       3.055   2.980  31.505  0.00  0.00    +0.292 C 
BRANCH   7   9
ATOM      8  N   UNL     1       5.469   2.665  31.970  0.00  0.00    -0.131 NA
ATOM      9  C   UNL     1       4.240   2.124  31.699  0.00  0.00    +0.120 A 
ATOM     10  C   UNL     1       4.352   0.753  31.657  0.00  0.00    +0.138 A 
ATOM     11  N   UNL     1       5.677   0.520  31.882  0.00  0.00    -0.238 N 
ATOM     12  N   UNL     1       6.341   1.673  32.088  0.00  0.00    -0.065 NA
BRANCH  11  13
ATOM     13  C   UNL     1       6.384  -0.741  31.986  0.00  0.00    +0.214 C 
ATOM     14  C   UNL     1       6.099  -1.432  33.320  0.00  0.00    +0.045 C 
BRANCH  13  15
ATOM     15  C   UNL     1       6.036  -1.660  30.836  0.00  0.00    +0.332 C 
ATOM     16  O   UNL     1       5.282  -2.622  30.930  0.00  0.00    -0.248 OA
BRANCH  15  17
ATOM     17  O   UNL     1       6.671  -1.278  29.695  0.00  0.00    -0.458 OA
BRANCH  17  18
ATOM     18  C   UNL     1       7.258  -2.333  28.916  0.00  0.00    +0.267 C 
BRANCH  18  19
ATOM     19  C   UNL     1       6.855  -2.191  27.472  0.00  0.00    -0.010 A 
ATOM     20  C   UNL     1       7.782  -2.432  26.448  0.00  0.00    +0.007 A 
ATOM     21  C   UNL     1       7.403  -2.328  25.109  0.00  0.00    +0.000 A 
ATOM     22  C   UNL     1       6.094  -1.979  24.779  0.00  0.00    +0.000 A 
ATOM     23  C   UNL     1       5.166  -1.730  25.787  0.00  0.00    +0.000 A 
ATOM     24  C   UNL     1       5.544  -1.832  27.127  0.00  0.00    +0.007 A 
ENDBRANCH  18  19
ENDBRANCH  17  18
ENDBRANCH  15  17
ENDBRANCH  13  15
ENDBRANCH  11  13
ENDBRANCH   7   9
ENDBRANCH   6   7
ENDBRANCH   2   6
ENDBRANCH   1   4
BRANCH   1  25
ATOM     25  C   UNL     1      -1.418   3.475  27.883  0.00  0.00    +0.163 C 
BRANCH  25  26
ATOM     26  O   UNL     1      -0.841   4.714  27.439  0.00  0.00    -0.388 OA
ATOM     27  H   UNL     1      -0.466   5.180  28.190  0.00  0.00    +0.210 HD
ENDBRANCH  25  26
BRANCH  25  28
ATOM     28  C   UNL     1      -0.913   2.296  27.033  0.00  0.00    +0.175 C 
BRANCH  28  29
ATOM     29  C   UNL     1       0.111   2.741  25.979  0.00  0.00    +0.176 C 
ATOM     30  O   UNL     1      -0.613   3.066  24.761  0.00  0.00    -0.332 OA
ATOM     31  C   UNL     1       0.196   3.614  23.669  0.00  0.00    +0.277 C 
ATOM     32  C   UNL     1       1.375   2.665  23.340  0.00  0.00    +0.110 C 
ATOM     33  C   UNL     1       2.157   2.267  24.609  0.00  0.00    +0.143 C 
ATOM     34  C   UNL     1       1.217   1.712  25.680  0.00  0.00    +0.133 C 
BRANCH  34  35
ATOM     35  N   UNL     1       1.961   1.417  26.915  0.00  0.00    -0.308 N 
ATOM     36  H   UNL     1       2.352   2.196  27.428  0.00  0.00    +0.149 HD
ATOM     37  C   UNL     1       2.153   0.189  27.404  0.00  0.00    +0.210 C 
ATOM     38  C   UNL     1       1.568  -0.977  26.586  0.00  0.00    +0.109 C 
ATOM     39  O   UNL     1       2.768  -0.027  28.449  0.00  0.00    -0.276 OA
ENDBRANCH  34  35
BRANCH  31  40
ATOM     40  C   UNL     1       0.744   5.008  24.040  0.00  0.00    +0.414 C 
ATOM     41  O   UNL     1       0.086   5.763  24.755  0.00  0.00    -0.240 OA
ATOM     42  O   UNL     1       1.844   5.377  23.627  0.00  0.00    -0.240 OA
ENDBRANCH  31  40
BRANCH  31  43
ATOM     43  O   UNL     1      -0.648   3.719  22.493  0.00  0.00    -0.343 OA
ATOM     44  C   UNL     1      -2.073   3.723  22.761  0.00  0.00    +0.198 C 
ENDBRANCH  31  43
BRANCH  33  45
ATOM     45  O   UNL     1       3.134   1.278  24.283  0.00  0.00    -0.390 OA
ATOM     46  H   UNL     1       3.705   1.129  25.040  0.00  0.00    +0.210 HD
ENDBRANCH  33  45
ENDBRANCH  28  29
BRANCH  28  47
ATOM     47  O   UNL     1      -2.022   1.630  26.398  0.00  0.00    -0.387 OA
ATOM     48  H   UNL     1      -2.411   1.001  27.010  0.00  0.00    +0.210 HD
ENDBRANCH  28  47
ENDBRANCH  25  28
ENDBRANCH   1  25
TORSDOF 18
