REMARK VINA RESULT:    -6.660      2.785      3.826
REMARK INTER + INTRA:         -15.326
REMARK INTER:                 -13.019
REMARK INTRA:                  -2.307
REMARK UNBOUND:                -2.243
REMARK  Name = lig_assembled_31.pdb
REMARK  20 active torsions:
REMARK  status: ('A' for Active; 'I' for Inactive)
REMARK    1  A    between atoms: _2  and  _11
REMARK    2  A    between atoms: _3  and  _12
REMARK    3  A    between atoms: _4  and  _14
REMARK    4  A    between atoms: _6  and  _24
REMARK    5  A    between atoms: _8  and  _9
REMARK    6  A    between atoms: _8  and  _24
REMARK    7  A    between atoms: _11  and  _12
REMARK    8  A    between atoms: _14  and  _15
REMARK    9  A    between atoms: _20  and  _40
REMARK   10  A    between atoms: _22  and  _28
REMARK   11  A    between atoms: _23  and  _27
REMARK   12  A    between atoms: _27  and  _28
REMARK   13  A    between atoms: _30  and  _31
REMARK   14  A    between atoms: _32  and  _33
REMARK   15  A    between atoms: _34  and  _36
REMARK   16  A    between atoms: _36  and  _37
REMARK   17  A    between atoms: _36  and  _38
REMARK   18  A    between atoms: _38  and  _39
REMARK   19  A    between atoms: _38  and  _40
REMARK   20  A    between atoms: _41  and  _43
REMARK                            x       y       z     vdW  Elec       q    Type
REMARK                         _______ _______ _______ _____ _____    ______ ____
ROOT
ATOM      1  C   UNL     1      18.597   3.682  26.450  0.00  0.00    +0.401 C 
ATOM      2  O   UNL     1      18.463   3.801  25.230  0.00  0.00    -0.226 OA
ATOM      3  N   UNL     1      17.697   3.105  27.247  0.00  0.00    -0.279 N 
ATOM      4  H   UNL     1      17.902   3.047  28.234  0.00  0.00    +0.152 HD
ENDROOT
BRANCH   1   5
ATOM      5  O   UNL     1      19.785   4.183  27.070  0.00  0.00    -0.444 OA
BRANCH   5   6
ATOM      6  C   UNL     1      20.308   5.265  26.296  0.00  0.00    +0.292 C 
BRANCH   6   8
ATOM      7  N   UNL     1      19.429   6.694  28.116  0.00  0.00    -0.131 NA
ATOM      8  C   UNL     1      19.805   6.555  26.807  0.00  0.00    +0.120 A 
ATOM      9  C   UNL     1      19.624   7.757  26.159  0.00  0.00    +0.137 A 
ATOM     10  N   UNL     1      19.128   8.579  27.126  0.00  0.00    -0.250 N 
ATOM     11  N   UNL     1      19.017   7.941  28.302  0.00  0.00    -0.065 NA
BRANCH  10  12
ATOM     12  C   UNL     1      18.737   9.969  27.005  0.00  0.00    +0.164 C 
BRANCH  12  13
ATOM     13  C   UNL     1      19.065  10.749  28.268  0.00  0.00    +0.129 C 
BRANCH  13  14
ATOM     14  N   UNL     1      17.950  10.905  29.194  0.00  0.00    -0.298 N 
ATOM     15  H   UNL     1      17.160  11.488  28.957  0.00  0.00    +0.150 HD
ATOM     16  C   UNL     1      18.161  10.623  30.518  0.00  0.00    +0.300 C 
ATOM     17  O   UNL     1      19.216  10.153  30.937  0.00  0.00    -0.253 OA
ATOM     18  N   UNL     1      17.096  10.882  31.324  0.00  0.00    -0.292 N 
ATOM     19  H   UNL     1      16.245  11.308  30.986  0.00  0.00    +0.151 HD
BRANCH  18  20
ATOM     20  C   UNL     1      17.218  10.612  32.738  0.00  0.00    +0.180 C 
BRANCH  20  21
ATOM     21  C   UNL     1      16.577   9.338  33.151  0.00  0.00    +0.122 A 
ATOM     22  O   UNL     1      16.097   8.494  32.188  0.00  0.00    -0.466 OA
ATOM     23  C   UNL     1      15.571   7.418  32.838  0.00  0.00    +0.195 A 
ATOM     24  C   UNL     1      15.702   7.559  34.200  0.00  0.00    +0.041 A 
ATOM     25  C   UNL     1      16.351   8.799  34.404  0.00  0.00    +0.046 A 
ENDBRANCH  20  21
ENDBRANCH  18  20
ENDBRANCH  13  14
ENDBRANCH  12  13
ENDBRANCH  10  12
ENDBRANCH   6   8
ENDBRANCH   5   6
ENDBRANCH   1   5
BRANCH   3  26
ATOM     26  C   UNL     1      16.424   2.550  26.769  0.00  0.00    +0.141 C 
BRANCH  26  27
ATOM     27  C   UNL     1      16.594   1.144  26.203  0.00  0.00    +0.163 C 
BRANCH  27  28
ATOM     28  O   UNL     1      15.675   0.243  26.842  0.00  0.00    -0.388 OA
ATOM     29  H   UNL     1      15.191   0.711  27.527  0.00  0.00    +0.210 HD
ENDBRANCH  27  28
BRANCH  27  30
ATOM     30  C   UNL     1      16.369   1.172  24.682  0.00  0.00    +0.175 C 
BRANCH  30  31
ATOM     31  C   UNL     1      17.545   0.553  23.912  0.00  0.00    +0.176 C 
ATOM     32  O   UNL     1      17.627   1.208  22.617  0.00  0.00    -0.332 OA
ATOM     33  C   UNL     1      18.764   0.817  21.779  0.00  0.00    +0.277 C 
ATOM     34  C   UNL     1      18.793  -0.720  21.590  0.00  0.00    +0.110 C 
ATOM     35  C   UNL     1      18.677  -1.462  22.939  0.00  0.00    +0.143 C 
ATOM     36  C   UNL     1      17.462  -0.974  23.729  0.00  0.00    +0.133 C 
BRANCH  36  37
ATOM     37  N   UNL     1      17.411  -1.625  25.048  0.00  0.00    -0.308 N 
ATOM     38  H   UNL     1      18.088  -1.340  25.741  0.00  0.00    +0.149 HD
ATOM     39  C   UNL     1      16.528  -2.568  25.389  0.00  0.00    +0.210 C 
ATOM     40  C   UNL     1      15.525  -2.998  24.302  0.00  0.00    +0.109 C 
ATOM     41  O   UNL     1      16.499  -3.085  26.506  0.00  0.00    -0.276 OA
ENDBRANCH  36  37
BRANCH  33  42
ATOM     42  C   UNL     1      20.093   1.284  22.407  0.00  0.00    +0.414 C 
ATOM     43  O   UNL     1      21.072   0.539  22.413  0.00  0.00    -0.240 OA
ATOM     44  O   UNL     1      20.186   2.406  22.908  0.00  0.00    -0.240 OA
ENDBRANCH  33  42
BRANCH  35  45
ATOM     45  O   UNL     1      18.555  -2.866  22.707  0.00  0.00    -0.390 OA
ATOM     46  H   UNL     1      17.667  -3.065  22.401  0.00  0.00    +0.210 HD
ENDBRANCH  35  45
BRANCH  33  47
ATOM     47  O   UNL     1      18.595   1.434  20.477  0.00  0.00    -0.343 OA
ATOM     48  C   UNL     1      17.235   1.817  20.152  0.00  0.00    +0.198 C 
ENDBRANCH  33  47
ENDBRANCH  30  31
BRANCH  30  49
ATOM     49  O   UNL     1      16.143   2.525  24.238  0.00  0.00    -0.387 OA
ATOM     50  H   UNL     1      16.494   2.634  23.351  0.00  0.00    +0.210 HD
ENDBRANCH  30  49
ENDBRANCH  27  30
ENDBRANCH  26  27
ENDBRANCH   3  26
TORSDOF 18
