REMARK VINA RESULT:    -6.254      6.136      8.302
REMARK INTER + INTRA:         -14.117
REMARK INTER:                 -11.476
REMARK INTRA:                  -2.640
REMARK UNBOUND:                -2.378
REMARK  Name = lig_assembled_68.pdb
REMARK  19 active torsions:
REMARK  status: ('A' for Active; 'I' for Inactive)
REMARK    1  A    between atoms: _2  and  _9
REMARK    2  A    between atoms: _4  and  _21
REMARK    3  A    between atoms: _6  and  _7
REMARK    4  A    between atoms: _6  and  _21
REMARK    5  A    between atoms: _9  and  _10
REMARK    6  A    between atoms: _10  and  _11
REMARK    7  A    between atoms: _10  and  _16
REMARK    8  A    between atoms: _17  and  _37
REMARK    9  A    between atoms: _19  and  _25
REMARK   10  A    between atoms: _20  and  _24
REMARK   11  A    between atoms: _24  and  _25
REMARK   12  A    between atoms: _27  and  _28
REMARK   13  A    between atoms: _29  and  _30
REMARK   14  A    between atoms: _31  and  _33
REMARK   15  A    between atoms: _33  and  _34
REMARK   16  A    between atoms: _33  and  _35
REMARK   17  A    between atoms: _35  and  _36
REMARK   18  A    between atoms: _35  and  _37
REMARK   19  A    between atoms: _38  and  _40
REMARK                            x       y       z     vdW  Elec       q    Type
REMARK                         _______ _______ _______ _____ _____    ______ ____
ROOT
ATOM      1  C   UNL     1       9.386   2.688  36.727  0.00  0.00    +0.163 C 
ENDROOT
BRANCH   1   2
ATOM      2  O   UNL     1      10.119   3.922  36.776  0.00  0.00    -0.388 OA
ATOM      3  H   UNL     1      10.356   4.190  35.885  0.00  0.00    +0.210 HD
ENDBRANCH   1   2
BRANCH   1   4
ATOM      4  C   UNL     1       8.032   2.880  36.022  0.00  0.00    +0.175 C 
BRANCH   4   5
ATOM      5  C   UNL     1       7.638   4.361  35.921  0.00  0.00    +0.176 C 
ATOM      6  O   UNL     1       7.209   4.800  37.239  0.00  0.00    -0.332 OA
ATOM      7  C   UNL     1       6.892   6.227  37.360  0.00  0.00    +0.277 C 
ATOM      8  C   UNL     1       5.840   6.640  36.302  0.00  0.00    +0.110 C 
ATOM      9  C   UNL     1       6.238   6.166  34.888  0.00  0.00    +0.143 C 
ATOM     10  C   UNL     1       6.548   4.669  34.878  0.00  0.00    +0.133 C 
BRANCH  10  11
ATOM     11  N   UNL     1       7.010   4.248  33.546  0.00  0.00    -0.308 N 
ATOM     12  H   UNL     1       7.813   4.718  33.155  0.00  0.00    +0.149 HD
ATOM     13  C   UNL     1       6.436   3.284  32.821  0.00  0.00    +0.210 C 
ATOM     14  C   UNL     1       5.198   2.603  33.434  0.00  0.00    +0.109 C 
ATOM     15  O   UNL     1       6.854   2.942  31.714  0.00  0.00    -0.276 OA
ENDBRANCH  10  11
BRANCH   7  16
ATOM     16  C   UNL     1       8.162   7.085  37.186  0.00  0.00    +0.414 C 
ATOM     17  O   UNL     1       9.261   6.643  37.521  0.00  0.00    -0.240 OA
ATOM     18  O   UNL     1       8.089   8.220  36.712  0.00  0.00    -0.240 OA
ENDBRANCH   7  16
BRANCH   7  19
ATOM     19  O   UNL     1       6.328   6.451  38.678  0.00  0.00    -0.343 OA
ATOM     20  C   UNL     1       5.219   5.584  39.025  0.00  0.00    +0.198 C 
ENDBRANCH   7  19
BRANCH   9  21
ATOM     21  O   UNL     1       5.174   6.433  33.974  0.00  0.00    -0.390 OA
ATOM     22  H   UNL     1       4.838   7.320  34.122  0.00  0.00    +0.210 HD
ENDBRANCH   9  21
ENDBRANCH   4   5
BRANCH   4  23
ATOM     23  O   UNL     1       7.004   2.139  36.709  0.00  0.00    -0.387 OA
ATOM     24  H   UNL     1       6.826   1.324  36.235  0.00  0.00    +0.210 HD
ENDBRANCH   4  23
ENDBRANCH   1   4
BRANCH   1  25
ATOM     25  C   UNL     1      10.197   1.627  35.990  0.00  0.00    +0.141 C 
BRANCH  25  28
ATOM     26  C   UNL     1       9.283  -0.522  35.183  0.00  0.00    +0.401 C 
ATOM     27  O   UNL     1       9.922  -1.203  35.988  0.00  0.00    -0.226 OA
ATOM     28  N   UNL     1       9.356   0.808  35.109  0.00  0.00    -0.279 N 
ATOM     29  H   UNL     1       8.801   1.278  34.408  0.00  0.00    +0.152 HD
BRANCH  26  30
ATOM     30  O   UNL     1       8.409  -1.175  34.259  0.00  0.00    -0.444 OA
BRANCH  30  31
ATOM     31  C   UNL     1       7.766  -0.198  33.436  0.00  0.00    +0.292 C 
BRANCH  31  33
ATOM     32  N   UNL     1       6.241  -0.315  31.485  0.00  0.00    -0.131 NA
ATOM     33  C   UNL     1       7.329  -0.801  32.165  0.00  0.00    +0.120 A 
ATOM     34  C   UNL     1       7.852  -1.868  31.472  0.00  0.00    +0.137 A 
ATOM     35  N   UNL     1       7.047  -1.975  30.376  0.00  0.00    -0.249 N 
ATOM     36  N   UNL     1       6.073  -1.048  30.392  0.00  0.00    -0.065 NA
BRANCH  35  37
ATOM     37  C   UNL     1       7.086  -2.988  29.342  0.00  0.00    +0.181 C 
BRANCH  37  38
ATOM     38  C   UNL     1       7.993  -2.586  28.172  0.00  0.00    +0.166 C 
BRANCH  38  39
ATOM     39  C   UNL     1       7.258  -2.350  26.861  0.00  0.00    -0.017 A 
ATOM     40  C   UNL     1       5.884  -2.045  26.898  0.00  0.00    +0.006 A 
ATOM     41  C   UNL     1       5.177  -1.795  25.720  0.00  0.00    +0.000 A 
ATOM     42  C   UNL     1       5.827  -1.840  24.491  0.00  0.00    +0.000 A 
ATOM     43  C   UNL     1       7.187  -2.122  24.437  0.00  0.00    +0.000 A 
ATOM     44  C   UNL     1       7.900  -2.371  25.614  0.00  0.00    +0.006 A 
ENDBRANCH  38  39
BRANCH  38  45
ATOM     45  O   UNL     1       8.961  -3.619  27.955  0.00  0.00    -0.385 OA
ATOM     46  H   UNL     1       8.488  -4.459  27.841  0.00  0.00    +0.210 HD
ENDBRANCH  38  45
ENDBRANCH  37  38
ENDBRANCH  35  37
ENDBRANCH  31  33
ENDBRANCH  30  31
ENDBRANCH  26  30
ENDBRANCH  25  28
ENDBRANCH   1  25
TORSDOF 17
