REMARK VINA RESULT:    -5.914     14.322     17.853
REMARK INTER + INTRA:         -12.830
REMARK INTER:                 -10.980
REMARK INTRA:                  -1.850
REMARK UNBOUND:                -2.248
REMARK  Name = lig_assembled_61.pdb
REMARK  17 active torsions:
REMARK  status: ('A' for Active; 'I' for Inactive)
REMARK    1  A    between atoms: _2  and  _9
REMARK    2  A    between atoms: _4  and  _17
REMARK    3  A    between atoms: _6  and  _7
REMARK    4  A    between atoms: _6  and  _17
REMARK    5  A    between atoms: _9  and  _10
REMARK    6  A    between atoms: _13  and  _33
REMARK    7  A    between atoms: _15  and  _21
REMARK    8  A    between atoms: _16  and  _20
REMARK    9  A    between atoms: _20  and  _21
REMARK   10  A    between atoms: _23  and  _24
REMARK   11  A    between atoms: _25  and  _26
REMARK   12  A    between atoms: _27  and  _29
REMARK   13  A    between atoms: _29  and  _30
REMARK   14  A    between atoms: _29  and  _31
REMARK   15  A    between atoms: _31  and  _32
REMARK   16  A    between atoms: _31  and  _33
REMARK   17  A    between atoms: _34  and  _36
REMARK                            x       y       z     vdW  Elec       q    Type
REMARK                         _______ _______ _______ _____ _____    ______ ____
ROOT
ATOM      1  C   UNL     1      18.498   5.753  23.885  0.00  0.00    +0.163 C 
ENDROOT
BRANCH   1   2
ATOM      2  O   UNL     1      17.457   5.805  22.897  0.00  0.00    -0.388 OA
ATOM      3  H   UNL     1      16.799   5.133  23.088  0.00  0.00    +0.210 HD
ENDBRANCH   1   2
BRANCH   1   4
ATOM      4  C   UNL     1      19.537   6.834  23.606  0.00  0.00    +0.141 C 
BRANCH   4   7
ATOM      5  C   UNL     1      20.694   7.659  25.628  0.00  0.00    +0.401 C 
ATOM      6  O   UNL     1      21.578   6.800  25.587  0.00  0.00    -0.226 OA
ATOM      7  N   UNL     1      19.697   7.746  24.746  0.00  0.00    -0.279 N 
ATOM      8  H   UNL     1      19.014   8.480  24.869  0.00  0.00    +0.152 HD
BRANCH   5   9
ATOM      9  O   UNL     1      20.716   8.629  26.678  0.00  0.00    -0.444 OA
BRANCH   9  10
ATOM     10  C   UNL     1      19.565   9.472  26.575  0.00  0.00    +0.292 C 
BRANCH  10  12
ATOM     11  N   UNL     1      17.909  10.551  28.064  0.00  0.00    -0.131 NA
ATOM     12  C   UNL     1      19.049   9.804  27.916  0.00  0.00    +0.120 A 
ATOM     13  C   UNL     1      19.539   9.476  29.161  0.00  0.00    +0.137 A 
ATOM     14  N   UNL     1      18.687  10.101  30.023  0.00  0.00    -0.247 N 
ATOM     15  N   UNL     1      17.685  10.712  29.362  0.00  0.00    -0.065 NA
BRANCH  14  16
ATOM     16  C   UNL     1      18.737  10.132  31.474  0.00  0.00    +0.180 C 
BRANCH  16  17
ATOM     17  C   UNL     1      17.507   9.525  32.088  0.00  0.00    -0.019 A 
ATOM     18  C   UNL     1      16.529  10.256  32.845  0.00  0.00    +0.013 A 
ATOM     19  C   UNL     1      15.519   9.453  33.330  0.00  0.00    +0.045 A 
ATOM     20  S   UNL     1      15.724   7.821  32.872  0.00  0.00    -0.105 S 
ATOM     21  C   UNL     1      17.170   8.182  32.037  0.00  0.00    +0.050 A 
ENDBRANCH  16  17
ENDBRANCH  14  16
ENDBRANCH  10  12
ENDBRANCH   9  10
ENDBRANCH   5   9
ENDBRANCH   4   7
ENDBRANCH   1   4
BRANCH   1  22
ATOM     22  C   UNL     1      19.181   4.374  23.892  0.00  0.00    +0.175 C 
BRANCH  22  23
ATOM     23  C   UNL     1      18.417   3.355  24.749  0.00  0.00    +0.176 C 
ATOM     24  O   UNL     1      19.295   2.930  25.828  0.00  0.00    -0.332 OA
ATOM     25  C   UNL     1      18.694   2.029  26.817  0.00  0.00    +0.277 C 
ATOM     26  C   UNL     1      18.084   0.789  26.119  0.00  0.00    +0.110 C 
ATOM     27  C   UNL     1      17.168   1.190  24.944  0.00  0.00    +0.143 C 
ATOM     28  C   UNL     1      17.892   2.129  23.979  0.00  0.00    +0.133 C 
BRANCH  28  29
ATOM     29  N   UNL     1      16.981   2.573  22.911  0.00  0.00    -0.308 N 
ATOM     30  H   UNL     1      16.188   3.141  23.174  0.00  0.00    +0.149 HD
ATOM     31  C   UNL     1      17.134   2.273  21.619  0.00  0.00    +0.210 C 
ATOM     32  C   UNL     1      18.338   1.384  21.255  0.00  0.00    +0.109 C 
ATOM     33  O   UNL     1      16.364   2.671  20.744  0.00  0.00    -0.276 OA
ENDBRANCH  28  29
BRANCH  25  34
ATOM     34  C   UNL     1      17.599   2.756  27.625  0.00  0.00    +0.414 C 
ATOM     35  O   UNL     1      16.418   2.664  27.293  0.00  0.00    -0.240 OA
ATOM     36  O   UNL     1      17.897   3.435  28.609  0.00  0.00    -0.240 OA
ENDBRANCH  25  34
BRANCH  25  37
ATOM     37  O   UNL     1      19.745   1.581  27.711  0.00  0.00    -0.343 OA
ATOM     38  C   UNL     1      21.094   1.865  27.263  0.00  0.00    +0.198 C 
ENDBRANCH  25  37
BRANCH  27  39
ATOM     39  O   UNL     1      16.750   0.021  24.238  0.00  0.00    -0.390 OA
ATOM     40  H   UNL     1      17.463  -0.623  24.234  0.00  0.00    +0.210 HD
ENDBRANCH  27  39
ENDBRANCH  22  23
BRANCH  22  41
ATOM     41  O   UNL     1      20.540   4.495  24.358  0.00  0.00    -0.387 OA
ATOM     42  H   UNL     1      20.918   3.620  24.473  0.00  0.00    +0.210 HD
ENDBRANCH  22  41
ENDBRANCH   1  22
TORSDOF 15
