REMARK VINA RESULT:    -6.786     15.307     18.070
REMARK INTER + INTRA:         -16.152
REMARK INTER:                 -12.669
REMARK INTRA:                  -3.483
REMARK UNBOUND:                -2.424
REMARK  Name = lig_assembled_81.pdb
REMARK  22 active torsions:
REMARK  status: ('A' for Active; 'I' for Inactive)
REMARK    1  A    between atoms: _2  and  _12
REMARK    2  A    between atoms: _7  and  _30
REMARK    3  A    between atoms: _8  and  _24
REMARK    4  A    between atoms: _9  and  _10
REMARK    5  A    between atoms: _9  and  _30
REMARK    6  A    between atoms: _14  and  _15
REMARK    7  A    between atoms: _21  and  _22
REMARK    8  A    between atoms: _22  and  _23
REMARK    9  A    between atoms: _23  and  _25
REMARK   10  A    between atoms: _24  and  _25
REMARK   11  A    between atoms: _26  and  _46
REMARK   12  A    between atoms: _28  and  _34
REMARK   13  A    between atoms: _29  and  _33
REMARK   14  A    between atoms: _33  and  _34
REMARK   15  A    between atoms: _36  and  _37
REMARK   16  A    between atoms: _38  and  _39
REMARK   17  A    between atoms: _40  and  _42
REMARK   18  A    between atoms: _42  and  _43
REMARK   19  A    between atoms: _42  and  _44
REMARK   20  A    between atoms: _44  and  _45
REMARK   21  A    between atoms: _44  and  _46
REMARK   22  A    between atoms: _47  and  _49
REMARK                            x       y       z     vdW  Elec       q    Type
REMARK                         _______ _______ _______ _____ _____    ______ ____
ROOT
ATOM      1  C   UNL     1       0.486   4.185  20.841  0.00  0.00    +0.401 C 
ATOM      2  O   UNL     1      -0.495   3.585  20.395  0.00  0.00    -0.226 OA
ATOM      3  N   UNL     1       1.749   3.864  20.558  0.00  0.00    -0.279 N 
ATOM      4  H   UNL     1       2.486   4.423  20.965  0.00  0.00    +0.152 HD
ENDROOT
BRANCH   1   5
ATOM      5  O   UNL     1       0.280   5.300  21.713  0.00  0.00    -0.444 OA
BRANCH   5   6
ATOM      6  C   UNL     1       1.476   5.552  22.457  0.00  0.00    +0.289 C 
BRANCH   6   8
ATOM      7  N   UNL     1       0.328   5.436  24.621  0.00  0.00    -0.130 NA
ATOM      8  C   UNL     1       1.351   5.013  23.826  0.00  0.00    +0.100 C 
ATOM      9  C   UNL     1       2.129   4.124  24.544  0.00  0.00    +0.124 C 
ATOM     10  N   UNL     1       1.441   3.935  25.734  0.00  0.00    -0.187 N 
ATOM     11  N   UNL     1       0.480   4.878  25.809  0.00  0.00    -0.010 NA
BRANCH  10  12
ATOM     12  C   UNL     1       1.781   3.066  26.825  0.00  0.00    +0.150 A 
ATOM     13  C   UNL     1       1.970   1.664  26.735  0.00  0.00    +0.022 A 
ATOM     14  C   UNL     1       2.220   1.051  27.992  0.00  0.00    +0.081 A 
ATOM     15  N   UNL     1       2.194   1.763  29.151  0.00  0.00    -0.214 NA
ATOM     16  C   UNL     1       1.978   3.066  29.109  0.00  0.00    +0.215 A 
ATOM     17  N   UNL     1       1.867   3.749  30.297  0.00  0.00    -0.327 N 
ATOM     18  H   UNL     1       2.316   3.249  31.050  0.00  0.00    +0.145 HD
ATOM     19  H   UNL     1       2.055   4.733  30.183  0.00  0.00    +0.145 HD
ATOM     20  N   UNL     1       1.865   3.759  27.993  0.00  0.00    -0.198 NA
BRANCH  14  21
ATOM     21  C   UNL     1       2.513  -0.405  28.275  0.00  0.00    +0.001 A 
ATOM     22  C   UNL     1       3.794  -0.986  28.274  0.00  0.00    +0.010 A 
ATOM     23  C   UNL     1       4.005  -2.346  28.559  0.00  0.00    +0.001 A 
ATOM     24  C   UNL     1       2.949  -3.163  28.915  0.00  0.00    +0.000 A 
ATOM     25  C   UNL     1       1.668  -2.621  28.984  0.00  0.00    +0.001 A 
ATOM     26  C   UNL     1       1.462  -1.272  28.657  0.00  0.00    +0.010 A 
ENDBRANCH  14  21
BRANCH  13  27
ATOM     27  C   UNL     1       2.046   0.788  25.481  0.00  0.00    +0.069 C 
BRANCH  27  28
ATOM     28  C   UNL     1       0.792   0.377  24.733  0.00  0.00    +0.164 C 
BRANCH  28  29
ATOM     29  O   UNL     1      -0.348   1.231  24.887  0.00  0.00    -0.380 OA
BRANCH  29  30
ATOM     30  C   UNL     1      -0.653   1.737  23.572  0.00  0.00    +0.156 C 
ATOM     31  C   UNL     1      -1.752   2.773  23.613  0.00  0.00    +0.034 C 
ENDBRANCH  29  30
ENDBRANCH  28  29
ENDBRANCH  27  28
ENDBRANCH  13  27
ENDBRANCH  10  12
ENDBRANCH   6   8
ENDBRANCH   5   6
ENDBRANCH   1   5
BRANCH   3  32
ATOM     32  C   UNL     1       2.129   2.744  19.689  0.00  0.00    +0.141 C 
BRANCH  32  33
ATOM     33  C   UNL     1       2.431   3.205  18.267  0.00  0.00    +0.163 C 
BRANCH  33  34
ATOM     34  O   UNL     1       3.659   2.615  17.810  0.00  0.00    -0.388 OA
ATOM     35  H   UNL     1       3.470   1.980  17.114  0.00  0.00    +0.210 HD
ENDBRANCH  33  34
BRANCH  33  36
ATOM     36  C   UNL     1       1.261   2.825  17.343  0.00  0.00    +0.175 C 
BRANCH  36  37
ATOM     37  C   UNL     1       1.507   1.494  16.617  0.00  0.00    +0.176 C 
ATOM     38  O   UNL     1       1.958   1.798  15.268  0.00  0.00    -0.332 OA
ATOM     39  C   UNL     1       2.345   0.642  14.454  0.00  0.00    +0.277 C 
ATOM     40  C   UNL     1       1.194  -0.391  14.400  0.00  0.00    +0.110 C 
ATOM     41  C   UNL     1       0.659  -0.722  15.809  0.00  0.00    +0.143 C 
ATOM     42  C   UNL     1       0.289   0.552  16.569  0.00  0.00    +0.133 C 
BRANCH  42  43
ATOM     43  N   UNL     1      -0.137   0.230  17.940  0.00  0.00    -0.308 N 
ATOM     44  H   UNL     1       0.494  -0.311  18.515  0.00  0.00    +0.149 HD
ATOM     45  C   UNL     1      -1.303   0.604  18.473  0.00  0.00    +0.210 C 
ATOM     46  C   UNL     1      -2.253   1.404  17.562  0.00  0.00    +0.109 C 
ATOM     47  O   UNL     1      -1.627   0.332  19.630  0.00  0.00    -0.276 OA
ENDBRANCH  42  43
BRANCH  39  48
ATOM     48  C   UNL     1       3.613  -0.028  15.023  0.00  0.00    +0.414 C 
ATOM     49  O   UNL     1       3.805  -1.232  14.858  0.00  0.00    -0.240 OA
ATOM     50  O   UNL     1       4.443   0.635  15.647  0.00  0.00    -0.240 OA
ENDBRANCH  39  48
BRANCH  39  51
ATOM     51  O   UNL     1       2.604   1.110  13.105  0.00  0.00    -0.343 OA
ATOM     52  C   UNL     1       1.727   0.563  12.089  0.00  0.00    +0.198 C 
ENDBRANCH  39  51
BRANCH  41  53
ATOM     53  O   UNL     1      -0.495  -1.557  15.702  0.00  0.00    -0.390 OA
ATOM     54  H   UNL     1      -0.322  -2.399  16.130  0.00  0.00    +0.210 HD
ENDBRANCH  41  53
ENDBRANCH  36  37
BRANCH  36  55
ATOM     55  O   UNL     1       1.022   3.877  16.387  0.00  0.00    -0.387 OA
ATOM     56  H   UNL     1       1.321   4.714  16.749  0.00  0.00    +0.210 HD
ENDBRANCH  36  55
ENDBRANCH  33  36
ENDBRANCH  32  33
ENDBRANCH   3  32
TORSDOF 19
