REMARK VINA RESULT:    -7.268      1.590      3.735
REMARK INTER + INTRA:         -14.722
REMARK INTER:                 -12.829
REMARK INTRA:                  -1.893
REMARK UNBOUND:                -1.294
REMARK  Name = lig_assembled_24.pdb
REMARK  19 active torsions:
REMARK  status: ('A' for Active; 'I' for Inactive)
REMARK    1  A    between atoms: _2  and  _9
REMARK    2  A    between atoms: _4  and  _21
REMARK    3  A    between atoms: _6  and  _7
REMARK    4  A    between atoms: _6  and  _21
REMARK    5  A    between atoms: _9  and  _10
REMARK    6  A    between atoms: _13  and  _16
REMARK    7  A    between atoms: _14  and  _16
REMARK    8  A    between atoms: _17  and  _37
REMARK    9  A    between atoms: _19  and  _25
REMARK   10  A    between atoms: _20  and  _24
REMARK   11  A    between atoms: _24  and  _25
REMARK   12  A    between atoms: _27  and  _28
REMARK   13  A    between atoms: _29  and  _30
REMARK   14  A    between atoms: _31  and  _33
REMARK   15  A    between atoms: _33  and  _34
REMARK   16  A    between atoms: _33  and  _35
REMARK   17  A    between atoms: _35  and  _36
REMARK   18  A    between atoms: _35  and  _37
REMARK   19  A    between atoms: _38  and  _40
REMARK                            x       y       z     vdW  Elec       q    Type
REMARK                         _______ _______ _______ _____ _____    ______ ____
ROOT
ATOM      1  C   UNL     1       3.045   2.901  32.713  0.00  0.00    +0.163 C 
ENDROOT
BRANCH   1   2
ATOM      2  O   UNL     1       3.753   2.116  31.739  0.00  0.00    -0.388 OA
ATOM      3  H   UNL     1       4.358   2.681  31.251  0.00  0.00    +0.210 HD
ENDBRANCH   1   2
BRANCH   1   4
ATOM      4  C   UNL     1       3.979   3.928  33.376  0.00  0.00    +0.175 C 
BRANCH   4   5
ATOM      5  C   UNL     1       5.392   3.368  33.595  0.00  0.00    +0.176 C 
ATOM      6  O   UNL     1       5.262   1.998  34.066  0.00  0.00    -0.332 OA
ATOM      7  C   UNL     1       6.519   1.262  34.230  0.00  0.00    +0.277 C 
ATOM      8  C   UNL     1       7.487   2.043  35.152  0.00  0.00    +0.110 C 
ATOM      9  C   UNL     1       7.633   3.514  34.709  0.00  0.00    +0.143 C 
ATOM     10  C   UNL     1       6.265   4.182  34.567  0.00  0.00    +0.133 C 
BRANCH  10  11
ATOM     11  N   UNL     1       6.414   5.556  34.061  0.00  0.00    -0.308 N 
ATOM     12  H   UNL     1       6.702   5.676  33.100  0.00  0.00    +0.149 HD
ATOM     13  C   UNL     1       6.191   6.654  34.788  0.00  0.00    +0.210 C 
ATOM     14  C   UNL     1       5.778   6.437  36.256  0.00  0.00    +0.109 C 
ATOM     15  O   UNL     1       6.309   7.793  34.334  0.00  0.00    -0.276 OA
ENDBRANCH  10  11
BRANCH   7  16
ATOM     16  C   UNL     1       7.192   1.018  32.864  0.00  0.00    +0.414 C 
ATOM     17  O   UNL     1       6.510   0.753  31.875  0.00  0.00    -0.240 OA
ATOM     18  O   UNL     1       8.417   1.086  32.750  0.00  0.00    -0.240 OA
ENDBRANCH   7  16
BRANCH   7  19
ATOM     19  O   UNL     1       6.215  -0.010  34.859  0.00  0.00    -0.343 OA
ATOM     20  C   UNL     1       5.365   0.073  36.030  0.00  0.00    +0.198 C 
ENDBRANCH   7  19
BRANCH   9  21
ATOM     21  O   UNL     1       8.410   4.231  35.669  0.00  0.00    -0.390 OA
ATOM     22  H   UNL     1       8.860   3.610  36.247  0.00  0.00    +0.210 HD
ENDBRANCH   9  21
ENDBRANCH   4   5
BRANCH   4  23
ATOM     23  O   UNL     1       3.421   4.370  34.629  0.00  0.00    -0.387 OA
ATOM     24  H   UNL     1       2.871   5.143  34.480  0.00  0.00    +0.210 HD
ENDBRANCH   4  23
ENDBRANCH   1   4
BRANCH   1  25
ATOM     25  C   UNL     1       1.879   3.627  32.049  0.00  0.00    +0.141 C 
BRANCH  25  28
ATOM     26  C   UNL     1       1.402   3.306  29.646  0.00  0.00    +0.401 C 
ATOM     27  O   UNL     1       0.465   2.528  29.840  0.00  0.00    -0.226 OA
ATOM     28  N   UNL     1       2.123   3.863  30.621  0.00  0.00    -0.279 N 
ATOM     29  H   UNL     1       2.878   4.481  30.362  0.00  0.00    +0.152 HD
BRANCH  26  30
ATOM     30  O   UNL     1       1.759   3.643  28.303  0.00  0.00    -0.444 OA
BRANCH  30  31
ATOM     31  C   UNL     1       0.760   3.150  27.406  0.00  0.00    +0.292 C 
BRANCH  31  33
ATOM     32  N   UNL     1      -0.185   4.929  25.968  0.00  0.00    -0.131 NA
ATOM     33  C   UNL     1       0.747   3.946  26.164  0.00  0.00    +0.120 A 
ATOM     34  C   UNL     1       1.584   3.894  25.073  0.00  0.00    +0.137 A 
ATOM     35  N   UNL     1       1.157   4.915  24.275  0.00  0.00    -0.247 N 
ATOM     36  N   UNL     1       0.068   5.510  24.804  0.00  0.00    -0.065 NA
BRANCH  35  37
ATOM     37  C   UNL     1       1.712   5.455  23.044  0.00  0.00    +0.180 C 
BRANCH  37  38
ATOM     38  C   UNL     1       1.192   4.813  21.781  0.00  0.00    -0.026 A 
ATOM     39  C   UNL     1      -0.075   5.144  21.284  0.00  0.00    +0.009 A 
ATOM     40  C   UNL     1      -0.548   4.546  20.112  0.00  0.00    +0.046 A 
ATOM     41  C   UNL     1       0.238   3.627  19.414  0.00  0.00    +0.120 A 
ATOM     42  C   UNL     1       1.488   3.276  19.916  0.00  0.00    +0.046 A 
ATOM     43  C   UNL     1       1.965   3.865  21.093  0.00  0.00    +0.009 A 
BRANCH  41  44
ATOM     44  O   UNL     1      -0.338   3.095  18.295  0.00  0.00    -0.495 OA
ATOM     45  C   UNL     1      -1.696   3.463  18.071  0.00  0.00    +0.277 C 
ENDBRANCH  41  44
ENDBRANCH  37  38
ENDBRANCH  35  37
ENDBRANCH  31  33
ENDBRANCH  30  31
ENDBRANCH  26  30
ENDBRANCH  25  28
ENDBRANCH   1  25
TORSDOF 16
