REMARK VINA RESULT:    -6.440     13.959     18.437
REMARK INTER + INTRA:         -13.296
REMARK INTER:                 -11.012
REMARK INTRA:                  -2.285
REMARK UNBOUND:                -1.775
REMARK  Name = lig_assembled_69.pdb
REMARK  18 active torsions:
REMARK  status: ('A' for Active; 'I' for Inactive)
REMARK    1  A    between atoms: _2  and  _9
REMARK    2  A    between atoms: _4  and  _21
REMARK    3  A    between atoms: _6  and  _7
REMARK    4  A    between atoms: _6  and  _21
REMARK    5  A    between atoms: _11  and  _16
REMARK    6  A    between atoms: _14  and  _15
REMARK    7  A    between atoms: _17  and  _37
REMARK    8  A    between atoms: _19  and  _25
REMARK    9  A    between atoms: _20  and  _24
REMARK   10  A    between atoms: _24  and  _25
REMARK   11  A    between atoms: _27  and  _28
REMARK   12  A    between atoms: _29  and  _30
REMARK   13  A    between atoms: _31  and  _33
REMARK   14  A    between atoms: _33  and  _34
REMARK   15  A    between atoms: _33  and  _35
REMARK   16  A    between atoms: _35  and  _36
REMARK   17  A    between atoms: _35  and  _37
REMARK   18  A    between atoms: _38  and  _40
REMARK                            x       y       z     vdW  Elec       q    Type
REMARK                         _______ _______ _______ _____ _____    ______ ____
ROOT
ATOM      1  C   UNL     1      21.078   7.029  23.481  0.00  0.00    +0.163 C 
ENDROOT
BRANCH   1   2
ATOM      2  O   UNL     1      21.952   5.891  23.553  0.00  0.00    -0.388 OA
ATOM      3  H   UNL     1      22.030   5.604  24.466  0.00  0.00    +0.210 HD
ENDBRANCH   1   2
BRANCH   1   4
ATOM      4  C   UNL     1      19.699   6.704  24.081  0.00  0.00    +0.175 C 
BRANCH   4   5
ATOM      5  C   UNL     1      19.596   5.239  24.530  0.00  0.00    +0.176 C 
ATOM      6  O   UNL     1      18.493   4.626  23.806  0.00  0.00    -0.332 OA
ATOM      7  C   UNL     1      18.309   3.189  24.029  0.00  0.00    +0.277 C 
ATOM      8  C   UNL     1      18.173   2.889  25.542  0.00  0.00    +0.110 C 
ATOM      9  C   UNL     1      19.306   3.547  26.357  0.00  0.00    +0.143 C 
ATOM     10  C   UNL     1      19.410   5.040  26.046  0.00  0.00    +0.133 C 
BRANCH  10  11
ATOM     11  N   UNL     1      20.548   5.638  26.762  0.00  0.00    -0.308 N 
ATOM     12  H   UNL     1      21.454   5.204  26.654  0.00  0.00    +0.149 HD
ATOM     13  C   UNL     1      20.462   6.716  27.546  0.00  0.00    +0.210 C 
ATOM     14  C   UNL     1      19.063   7.339  27.710  0.00  0.00    +0.109 C 
ATOM     15  O   UNL     1      21.435   7.204  28.122  0.00  0.00    -0.276 OA
ENDBRANCH  10  11
BRANCH   7  16
ATOM     16  C   UNL     1      19.495   2.389  23.450  0.00  0.00    +0.414 C 
ATOM     17  O   UNL     1      20.522   2.969  23.099  0.00  0.00    -0.240 OA
ATOM     18  O   UNL     1      19.424   1.165  23.334  0.00  0.00    -0.240 OA
ENDBRANCH   7  16
BRANCH   7  19
ATOM     19  O   UNL     1      17.081   2.786  23.370  0.00  0.00    -0.343 OA
ATOM     20  C   UNL     1      16.810   3.459  22.114  0.00  0.00    +0.198 C 
ENDBRANCH   7  19
BRANCH   9  21
ATOM     21  O   UNL     1      19.058   3.374  27.753  0.00  0.00    -0.390 OA
ATOM     22  H   UNL     1      18.865   2.451  27.932  0.00  0.00    +0.210 HD
ENDBRANCH   9  21
ENDBRANCH   4   5
BRANCH   4  23
ATOM     23  O   UNL     1      18.660   7.006  23.129  0.00  0.00    -0.387 OA
ATOM     24  H   UNL     1      18.004   6.305  23.137  0.00  0.00    +0.210 HD
ENDBRANCH   4  23
ENDBRANCH   1   4
BRANCH   1  25
ATOM     25  C   UNL     1      21.694   8.207  24.229  0.00  0.00    +0.141 C 
BRANCH  25  28
ATOM     26  C   UNL     1      20.898   9.999  25.733  0.00  0.00    +0.401 C 
ATOM     27  O   UNL     1      21.988  10.145  26.290  0.00  0.00    -0.226 OA
ATOM     28  N   UNL     1      20.669   9.113  24.763  0.00  0.00    -0.279 N 
ATOM     29  H   UNL     1      19.738   9.061  24.374  0.00  0.00    +0.152 HD
BRANCH  26  30
ATOM     30  O   UNL     1      19.796  10.816  26.137  0.00  0.00    -0.444 OA
BRANCH  30  31
ATOM     31  C   UNL     1      20.154  11.555  27.308  0.00  0.00    +0.292 C 
BRANCH  31  33
ATOM     32  N   UNL     1      18.002  10.864  28.307  0.00  0.00    -0.131 NA
ATOM     33  C   UNL     1      19.337  11.124  28.457  0.00  0.00    +0.120 A 
ATOM     34  C   UNL     1      19.691  10.922  29.773  0.00  0.00    +0.137 A 
ATOM     35  N   UNL     1      18.524  10.554  30.374  0.00  0.00    -0.248 N 
ATOM     36  N   UNL     1      17.513  10.521  29.489  0.00  0.00    -0.065 NA
BRANCH  35  37
ATOM     37  C   UNL     1      18.289  10.271  31.789  0.00  0.00    +0.114 C 
ATOM     38  C   UNL     1      18.418   8.774  32.093  0.00  0.00    +0.062 C 
ATOM     39  C   UNL     1      17.170   7.924  31.846  0.00  0.00    +0.139 C 
ATOM     40  C   UNL     1      16.023   8.127  32.796  0.00  0.00    +0.002 C 
ATOM     41  C   UNL     1      15.760   9.185  33.580  0.00  0.00    +0.002 C 
ATOM     42  C   UNL     1      16.466  10.507  33.605  0.00  0.00    +0.139 C 
ATOM     43  C   UNL     1      16.999  10.964  32.252  0.00  0.00    +0.062 C 
BRANCH  39  44
ATOM     44  O   UNL     1      17.558   6.554  32.004  0.00  0.00    -0.388 OA
ATOM     45  H   UNL     1      18.283   6.531  32.652  0.00  0.00    +0.210 HD
ENDBRANCH  39  44
BRANCH  42  46
ATOM     46  O   UNL     1      17.512  10.464  34.563  0.00  0.00    -0.388 OA
ATOM     47  H   UNL     1      17.532  11.329  35.008  0.00  0.00    +0.210 HD
ENDBRANCH  42  46
ENDBRANCH  35  37
ENDBRANCH  31  33
ENDBRANCH  30  31
ENDBRANCH  26  30
ENDBRANCH  25  28
ENDBRANCH   1  25
TORSDOF 16
