REMARK VINA RESULT:    -6.073      7.313     12.190
REMARK INTER + INTRA:         -13.233
REMARK INTER:                 -11.362
REMARK INTRA:                  -1.870
REMARK UNBOUND:                -2.722
REMARK  Name = lig_assembled_3.pdb
REMARK  16 active torsions:
REMARK  status: ('A' for Active; 'I' for Inactive)
REMARK    1  A    between atoms: _2  and  _9
REMARK    2  A    between atoms: _4  and  _18
REMARK    3  A    between atoms: _6  and  _7
REMARK    4  A    between atoms: _6  and  _18
REMARK    5  A    between atoms: _14  and  _34
REMARK    6  A    between atoms: _16  and  _22
REMARK    7  A    between atoms: _17  and  _21
REMARK    8  A    between atoms: _21  and  _22
REMARK    9  A    between atoms: _24  and  _25
REMARK   10  A    between atoms: _26  and  _27
REMARK   11  A    between atoms: _28  and  _30
REMARK   12  A    between atoms: _30  and  _31
REMARK   13  A    between atoms: _30  and  _32
REMARK   14  A    between atoms: _32  and  _33
REMARK   15  A    between atoms: _32  and  _34
REMARK   16  A    between atoms: _35  and  _37
REMARK                            x       y       z     vdW  Elec       q    Type
REMARK                         _______ _______ _______ _____ _____    ______ ____
ROOT
ATOM      1  C   UNL     1       1.630   2.605  22.001  0.00  0.00    +0.163 C 
ENDROOT
BRANCH   1   2
ATOM      2  O   UNL     1       2.485   1.460  22.150  0.00  0.00    -0.388 OA
ATOM      3  H   UNL     1       3.077   1.402  21.396  0.00  0.00    +0.210 HD
ENDBRANCH   1   2
BRANCH   1   4
ATOM      4  C   UNL     1       1.777   3.187  20.599  0.00  0.00    +0.141 C 
BRANCH   4   7
ATOM      5  C   UNL     1       1.224   1.748  18.668  0.00  0.00    +0.401 C 
ATOM      6  O   UNL     1       0.081   2.193  18.544  0.00  0.00    -0.226 OA
ATOM      7  N   UNL     1       2.083   2.151  19.605  0.00  0.00    -0.279 N 
ATOM      8  H   UNL     1       2.996   1.719  19.633  0.00  0.00    +0.152 HD
BRANCH   5   9
ATOM      9  O   UNL     1       1.676   0.734  17.767  0.00  0.00    -0.444 OA
BRANCH   9  10
ATOM     10  C   UNL     1       1.982   1.323  16.500  0.00  0.00    +0.292 C 
BRANCH  10  12
ATOM     11  N   UNL     1       4.380   1.421  17.101  0.00  0.00    -0.131 NA
ATOM     12  C   UNL     1       3.411   1.141  16.181  0.00  0.00    +0.121 A 
ATOM     13  C   UNL     1       4.005   0.691  15.025  0.00  0.00    +0.143 A 
ATOM     14  N   UNL     1       5.355   0.687  15.294  0.00  0.00    -0.220 N 
ATOM     15  N   UNL     1       5.557   1.149  16.554  0.00  0.00    -0.060 NA
BRANCH  14  16
ATOM     16  C   UNL     1       6.426   0.267  14.464  0.00  0.00    +0.067 A 
ATOM     17  C   UNL     1       6.268  -0.802  13.571  0.00  0.00    +0.028 A 
ATOM     18  C   UNL     1       7.344  -1.220  12.784  0.00  0.00    +0.002 A 
ATOM     19  C   UNL     1       8.576  -0.575  12.880  0.00  0.00    +0.000 A 
ATOM     20  C   UNL     1       8.736   0.494  13.759  0.00  0.00    +0.002 A 
ATOM     21  C   UNL     1       7.666   0.918  14.550  0.00  0.00    +0.028 A 
ENDBRANCH  14  16
ENDBRANCH  10  12
ENDBRANCH   9  10
ENDBRANCH   5   9
ENDBRANCH   4   7
ENDBRANCH   1   4
BRANCH   1  22
ATOM     22  C   UNL     1       1.970   3.684  23.043  0.00  0.00    +0.175 C 
BRANCH  22  23
ATOM     23  C   UNL     1       1.137   3.532  24.325  0.00  0.00    +0.176 C 
ATOM     24  O   UNL     1       1.641   2.378  25.051  0.00  0.00    -0.332 OA
ATOM     25  C   UNL     1       1.031   2.138  26.363  0.00  0.00    +0.277 C 
ATOM     26  C   UNL     1      -0.509   2.044  26.234  0.00  0.00    +0.110 C 
ATOM     27  C   UNL     1      -1.088   3.234  25.441  0.00  0.00    +0.143 C 
ATOM     28  C   UNL     1      -0.380   3.394  24.095  0.00  0.00    +0.133 C 
BRANCH  28  29
ATOM     29  N   UNL     1      -0.880   4.582  23.387  0.00  0.00    -0.308 N 
ATOM     30  H   UNL     1      -0.658   5.489  23.772  0.00  0.00    +0.149 HD
ATOM     31  C   UNL     1      -1.609   4.541  22.268  0.00  0.00    +0.210 C 
ATOM     32  C   UNL     1      -1.952   3.143  21.721  0.00  0.00    +0.109 C 
ATOM     33  O   UNL     1      -2.002   5.553  21.688  0.00  0.00    -0.276 OA
ENDBRANCH  28  29
BRANCH  25  34
ATOM     34  C   UNL     1       1.398   3.265  27.351  0.00  0.00    +0.414 C 
ATOM     35  O   UNL     1       0.674   3.502  28.317  0.00  0.00    -0.240 OA
ATOM     36  O   UNL     1       2.416   3.937  27.182  0.00  0.00    -0.240 OA
ENDBRANCH  25  34
BRANCH  27  37
ATOM     37  O   UNL     1      -2.484   3.030  25.216  0.00  0.00    -0.390 OA
ATOM     38  H   UNL     1      -2.776   2.254  25.700  0.00  0.00    +0.210 HD
ENDBRANCH  27  37
BRANCH  25  39
ATOM     39  O   UNL     1       1.527   0.870  26.863  0.00  0.00    -0.343 OA
ATOM     40  C   UNL     1       2.551   0.247  26.047  0.00  0.00    +0.198 C 
ENDBRANCH  25  39
ENDBRANCH  22  23
BRANCH  22  41
ATOM     41  O   UNL     1       1.778   4.997  22.480  0.00  0.00    -0.387 OA
ATOM     42  H   UNL     1       1.448   4.915  21.582  0.00  0.00    +0.210 HD
ENDBRANCH  22  41
ENDBRANCH   1  22
TORSDOF 14
