REMARK VINA RESULT:    -6.038     13.988     18.476
REMARK INTER + INTRA:         -13.739
REMARK INTER:                 -11.176
REMARK INTRA:                  -2.563
REMARK UNBOUND:                -2.230
REMARK  Name = lig_assembled_9.pdb
REMARK  20 active torsions:
REMARK  status: ('A' for Active; 'I' for Inactive)
REMARK    1  A    between atoms: _2  and  _9
REMARK    2  A    between atoms: _4  and  _23
REMARK    3  A    between atoms: _6  and  _7
REMARK    4  A    between atoms: _6  and  _23
REMARK    5  A    between atoms: _11  and  _12
REMARK    6  A    between atoms: _12  and  _17
REMARK    7  A    between atoms: _13  and  _14
REMARK    8  A    between atoms: _13  and  _17
REMARK    9  A    between atoms: _19  and  _39
REMARK   10  A    between atoms: _21  and  _27
REMARK   11  A    between atoms: _22  and  _26
REMARK   12  A    between atoms: _26  and  _27
REMARK   13  A    between atoms: _29  and  _30
REMARK   14  A    between atoms: _31  and  _32
REMARK   15  A    between atoms: _33  and  _35
REMARK   16  A    between atoms: _35  and  _36
REMARK   17  A    between atoms: _35  and  _37
REMARK   18  A    between atoms: _37  and  _38
REMARK   19  A    between atoms: _37  and  _39
REMARK   20  A    between atoms: _40  and  _42
REMARK                            x       y       z     vdW  Elec       q    Type
REMARK                         _______ _______ _______ _____ _____    ______ ____
ROOT
ATOM      1  C   UNL     1      18.936   6.254  23.987  0.00  0.00    +0.163 C 
ENDROOT
BRANCH   1   2
ATOM      2  O   UNL     1      17.819   6.249  23.084  0.00  0.00    -0.388 OA
ATOM      3  H   UNL     1      17.164   5.614  23.387  0.00  0.00    +0.210 HD
ENDBRANCH   1   2
BRANCH   1   4
ATOM      4  C   UNL     1      19.566   4.855  24.092  0.00  0.00    +0.175 C 
BRANCH   4   5
ATOM      5  C   UNL     1      18.887   3.995  25.169  0.00  0.00    +0.176 C 
ATOM      6  O   UNL     1      19.912   3.558  26.103  0.00  0.00    -0.332 OA
ATOM      7  C   UNL     1      19.430   2.807  27.267  0.00  0.00    +0.277 C 
ATOM      8  C   UNL     1      18.582   1.593  26.814  0.00  0.00    +0.110 C 
ATOM      9  C   UNL     1      17.499   2.003  25.794  0.00  0.00    +0.143 C 
ATOM     10  C   UNL     1      18.110   2.780  24.628  0.00  0.00    +0.133 C 
BRANCH  10  11
ATOM     11  N   UNL     1      17.057   3.240  23.708  0.00  0.00    -0.308 N 
ATOM     12  H   UNL     1      16.375   3.895  24.062  0.00  0.00    +0.149 HD
ATOM     13  C   UNL     1      16.945   2.848  22.436  0.00  0.00    +0.210 C 
ATOM     14  C   UNL     1      17.985   1.829  21.934  0.00  0.00    +0.109 C 
ATOM     15  O   UNL     1      16.062   3.262  21.684  0.00  0.00    -0.276 OA
ENDBRANCH  10  11
BRANCH   7  16
ATOM     16  C   UNL     1      18.585   3.710  28.189  0.00  0.00    +0.414 C 
ATOM     17  O   UNL     1      18.890   4.891  28.349  0.00  0.00    -0.240 OA
ATOM     18  O   UNL     1      17.599   3.258  28.773  0.00  0.00    -0.240 OA
ENDBRANCH   7  16
BRANCH   7  19
ATOM     19  O   UNL     1      20.586   2.313  27.992  0.00  0.00    -0.343 OA
ATOM     20  C   UNL     1      21.831   2.994  27.696  0.00  0.00    +0.198 C 
ENDBRANCH   7  19
BRANCH   9  21
ATOM     21  O   UNL     1      16.844   0.837  25.292  0.00  0.00    -0.390 OA
ATOM     22  H   UNL     1      17.047   0.087  25.856  0.00  0.00    +0.210 HD
ENDBRANCH   9  21
ENDBRANCH   4   5
BRANCH   4  23
ATOM     23  O   UNL     1      20.978   4.964  24.361  0.00  0.00    -0.387 OA
ATOM     24  H   UNL     1      21.355   4.086  24.454  0.00  0.00    +0.210 HD
ENDBRANCH   4  23
ENDBRANCH   1   4
BRANCH   1  25
ATOM     25  C   UNL     1      19.987   7.252  23.512  0.00  0.00    +0.141 C 
BRANCH  25  28
ATOM     26  C   UNL     1      21.303   9.127  24.438  0.00  0.00    +0.401 C 
ATOM     27  O   UNL     1      21.729   9.493  23.340  0.00  0.00    -0.226 OA
ATOM     28  N   UNL     1      20.488   8.085  24.611  0.00  0.00    -0.279 N 
ATOM     29  H   UNL     1      20.200   7.856  25.552  0.00  0.00    +0.152 HD
BRANCH  26  30
ATOM     30  O   UNL     1      21.695   9.845  25.611  0.00  0.00    -0.444 OA
BRANCH  30  31
ATOM     31  C   UNL     1      20.707  10.831  25.920  0.00  0.00    +0.292 C 
BRANCH  31  33
ATOM     32  N   UNL     1      19.521   9.292  27.454  0.00  0.00    -0.131 NA
ATOM     33  C   UNL     1      20.062  10.520  27.210  0.00  0.00    +0.121 A 
ATOM     34  C   UNL     1      19.899  11.313  28.322  0.00  0.00    +0.143 A 
ATOM     35  N   UNL     1      19.278  10.503  29.247  0.00  0.00    -0.220 N 
ATOM     36  N   UNL     1      19.040   9.292  28.690  0.00  0.00    -0.060 NA
BRANCH  35  37
ATOM     37  C   UNL     1      18.938  10.794  30.593  0.00  0.00    +0.068 A 
ATOM     38  C   UNL     1      17.742  10.315  31.144  0.00  0.00    +0.042 A 
ATOM     39  C   UNL     1      17.394  10.632  32.466  0.00  0.00    +0.061 A 
ATOM     40  C   UNL     1      18.250  11.427  33.236  0.00  0.00    +0.015 A 
ATOM     41  C   UNL     1      19.448  11.895  32.694  0.00  0.00    +0.003 A 
ATOM     42  C   UNL     1      19.794  11.580  31.379  0.00  0.00    +0.028 A 
BRANCH  39  43
ATOM     43  C   UNL     1      16.164  10.095  33.107  0.00  0.00    +0.339 C 
ATOM     44  O   UNL     1      15.702  10.524  34.151  0.00  0.00    -0.245 OA
BRANCH  43  45
ATOM     45  O   UNL     1      15.719   9.019  32.413  0.00  0.00    -0.461 OA
BRANCH  45  46
ATOM     46  C   UNL     1      15.545   7.819  33.178  0.00  0.00    +0.229 C 
ATOM     47  C   UNL     1      16.773   6.951  32.973  0.00  0.00    +0.048 C 
ENDBRANCH  45  46
ENDBRANCH  43  45
ENDBRANCH  39  43
ENDBRANCH  35  37
ENDBRANCH  31  33
ENDBRANCH  30  31
ENDBRANCH  26  30
ENDBRANCH  25  28
ENDBRANCH   1  25
TORSDOF 17
