REMARK VINA RESULT:    -6.418      4.924      6.150
REMARK INTER + INTRA:         -13.730
REMARK INTER:                 -11.527
REMARK INTRA:                  -2.204
REMARK UNBOUND:                -2.246
REMARK  Name = lig_assembled_5.pdb
REMARK  18 active torsions:
REMARK  status: ('A' for Active; 'I' for Inactive)
REMARK    1  A    between atoms: _2  and  _9
REMARK    2  A    between atoms: _4  and  _20
REMARK    3  A    between atoms: _6  and  _7
REMARK    4  A    between atoms: _6  and  _20
REMARK    5  A    between atoms: _12  and  _15
REMARK    6  A    between atoms: _13  and  _15
REMARK    7  A    between atoms: _16  and  _36
REMARK    8  A    between atoms: _18  and  _24
REMARK    9  A    between atoms: _19  and  _23
REMARK   10  A    between atoms: _23  and  _24
REMARK   11  A    between atoms: _26  and  _27
REMARK   12  A    between atoms: _28  and  _29
REMARK   13  A    between atoms: _30  and  _32
REMARK   14  A    between atoms: _32  and  _33
REMARK   15  A    between atoms: _32  and  _34
REMARK   16  A    between atoms: _34  and  _35
REMARK   17  A    between atoms: _34  and  _36
REMARK   18  A    between atoms: _37  and  _39
REMARK                            x       y       z     vdW  Elec       q    Type
REMARK                         _______ _______ _______ _____ _____    ______ ____
ROOT
ATOM      1  C   UNL     1       7.792   2.346  34.168  0.00  0.00    +0.163 C 
ENDROOT
BRANCH   1   2
ATOM      2  O   UNL     1       8.456   2.579  35.421  0.00  0.00    -0.388 OA
ATOM      3  H   UNL     1       7.834   2.456  36.141  0.00  0.00    +0.210 HD
ENDBRANCH   1   2
BRANCH   1   4
ATOM      4  C   UNL     1       8.483   1.215  33.413  0.00  0.00    +0.141 C 
BRANCH   4   7
ATOM      5  C   UNL     1       6.924  -0.701  33.347  0.00  0.00    +0.401 C 
ATOM      6  O   UNL     1       7.131  -1.031  34.517  0.00  0.00    -0.226 OA
ATOM      7  N   UNL     1       7.518   0.331  32.747  0.00  0.00    -0.279 N 
ATOM      8  H   UNL     1       7.290   0.517  31.781  0.00  0.00    +0.152 HD
BRANCH   5   9
ATOM      9  O   UNL     1       5.999  -1.461  32.565  0.00  0.00    -0.444 OA
BRANCH   9  10
ATOM     10  C   UNL     1       5.550  -0.675  31.458  0.00  0.00    +0.292 C 
BRANCH  10  12
ATOM     11  N   UNL     1       7.359  -1.676  30.099  0.00  0.00    -0.131 NA
ATOM     12  C   UNL     1       6.076  -1.223  30.193  0.00  0.00    +0.121 A 
ATOM     13  C   UNL     1       5.452  -1.382  28.978  0.00  0.00    +0.143 A 
ATOM     14  N   UNL     1       6.397  -1.971  28.167  0.00  0.00    -0.220 N 
ATOM     15  N   UNL     1       7.550  -2.122  28.865  0.00  0.00    -0.060 NA
BRANCH  14  16
ATOM     16  C   UNL     1       6.265  -2.411  26.824  0.00  0.00    +0.067 A 
ATOM     17  C   UNL     1       7.344  -2.336  25.936  0.00  0.00    +0.031 A 
ATOM     18  C   UNL     1       7.177  -2.717  24.603  0.00  0.00    +0.048 A 
ATOM     19  C   UNL     1       5.948  -3.195  24.143  0.00  0.00    +0.120 A 
ATOM     20  C   UNL     1       4.876  -3.287  25.029  0.00  0.00    +0.048 A 
ATOM     21  C   UNL     1       5.031  -2.896  26.366  0.00  0.00    +0.031 A 
BRANCH  19  22
ATOM     22  O   UNL     1       5.904  -3.474  22.805  0.00  0.00    -0.495 OA
ATOM     23  C   UNL     1       4.771  -4.200  22.349  0.00  0.00    +0.277 C 
ENDBRANCH  19  22
ENDBRANCH  14  16
ENDBRANCH  10  12
ENDBRANCH   9  10
ENDBRANCH   5   9
ENDBRANCH   4   7
ENDBRANCH   1   4
BRANCH   1  24
ATOM     24  C   UNL     1       7.792   3.617  33.301  0.00  0.00    +0.175 C 
BRANCH  24  25
ATOM     25  C   UNL     1       6.947   4.739  33.920  0.00  0.00    +0.176 C 
ATOM     26  O   UNL     1       7.696   5.302  35.032  0.00  0.00    -0.332 OA
ATOM     27  C   UNL     1       7.086   6.465  35.684  0.00  0.00    +0.277 C 
ATOM     28  C   UNL     1       5.644   6.135  36.139  0.00  0.00    +0.110 C 
ATOM     29  C   UNL     1       4.817   5.504  34.999  0.00  0.00    +0.143 C 
ATOM     30  C   UNL     1       5.546   4.306  34.390  0.00  0.00    +0.133 C 
BRANCH  30  31
ATOM     31  N   UNL     1       4.789   3.768  33.249  0.00  0.00    -0.308 N 
ATOM     32  H   UNL     1       4.715   4.340  32.420  0.00  0.00    +0.149 HD
ATOM     33  C   UNL     1       4.194   2.572  33.237  0.00  0.00    +0.210 C 
ATOM     34  C   UNL     1       4.302   1.735  34.525  0.00  0.00    +0.109 C 
ATOM     35  O   UNL     1       3.579   2.141  32.261  0.00  0.00    -0.276 OA
ENDBRANCH  30  31
BRANCH  27  36
ATOM     36  C   UNL     1       7.062   7.676  34.729  0.00  0.00    +0.414 C 
ATOM     37  O   UNL     1       8.114   8.184  34.344  0.00  0.00    -0.240 OA
ATOM     38  O   UNL     1       5.990   8.146  34.344  0.00  0.00    -0.240 OA
ENDBRANCH  27  36
BRANCH  27  39
ATOM     39  O   UNL     1       7.875   6.785  36.859  0.00  0.00    -0.343 OA
ATOM     40  C   UNL     1       8.894   5.811  37.197  0.00  0.00    +0.198 C 
ENDBRANCH  27  39
BRANCH  29  41
ATOM     41  O   UNL     1       3.549   5.079  35.501  0.00  0.00    -0.390 OA
ATOM     42  H   UNL     1       3.284   4.270  35.057  0.00  0.00    +0.210 HD
ENDBRANCH  29  41
ENDBRANCH  24  25
BRANCH  24  43
ATOM     43  O   UNL     1       7.319   3.313  31.974  0.00  0.00    -0.387 OA
ATOM     44  H   UNL     1       7.993   2.822  31.497  0.00  0.00    +0.210 HD
ENDBRANCH  24  43
ENDBRANCH   1  24
TORSDOF 15
