REMARK VINA RESULT:    -5.594      2.028      4.371
REMARK INTER + INTRA:         -12.564
REMARK INTER:                 -11.065
REMARK INTRA:                  -1.500
REMARK UNBOUND:                -1.902
REMARK  Name = lig_assembled_13.pdb
REMARK  20 active torsions:
REMARK  status: ('A' for Active; 'I' for Inactive)
REMARK    1  A    between atoms: _2  and  _9
REMARK    2  A    between atoms: _4  and  _18
REMARK    3  A    between atoms: _5  and  _11
REMARK    4  A    between atoms: _6  and  _7
REMARK    5  A    between atoms: _6  and  _18
REMARK    6  A    between atoms: _9  and  _10
REMARK    7  A    between atoms: _10  and  _12
REMARK    8  A    between atoms: _11  and  _12
REMARK    9  A    between atoms: _14  and  _34
REMARK   10  A    between atoms: _16  and  _22
REMARK   11  A    between atoms: _17  and  _21
REMARK   12  A    between atoms: _21  and  _22
REMARK   13  A    between atoms: _24  and  _25
REMARK   14  A    between atoms: _26  and  _27
REMARK   15  A    between atoms: _28  and  _30
REMARK   16  A    between atoms: _30  and  _31
REMARK   17  A    between atoms: _30  and  _32
REMARK   18  A    between atoms: _32  and  _33
REMARK   19  A    between atoms: _32  and  _34
REMARK   20  A    between atoms: _35  and  _37
REMARK                            x       y       z     vdW  Elec       q    Type
REMARK                         _______ _______ _______ _____ _____    ______ ____
ROOT
ATOM      1  C   UNL     1       3.851   3.105  31.923  0.00  0.00    +0.163 C 
ENDROOT
BRANCH   1   2
ATOM      2  O   UNL     1       3.292   4.395  32.221  0.00  0.00    -0.388 OA
ATOM      3  H   UNL     1       3.417   4.591  33.152  0.00  0.00    +0.210 HD
ENDBRANCH   1   2
BRANCH   1   4
ATOM      4  C   UNL     1       4.455   2.463  33.184  0.00  0.00    +0.175 C 
BRANCH   4   5
ATOM      5  C   UNL     1       5.731   1.666  32.872  0.00  0.00    +0.176 C 
ATOM      6  O   UNL     1       5.510   0.289  33.285  0.00  0.00    -0.332 OA
ATOM      7  C   UNL     1       6.591  -0.649  32.967  0.00  0.00    +0.277 C 
ATOM      8  C   UNL     1       7.936  -0.140  33.540  0.00  0.00    +0.110 C 
ATOM      9  C   UNL     1       8.199   1.331  33.154  0.00  0.00    +0.143 C 
ATOM     10  C   UNL     1       7.011   2.218  33.527  0.00  0.00    +0.133 C 
BRANCH  10  11
ATOM     11  N   UNL     1       7.237   3.600  33.076  0.00  0.00    -0.308 N 
ATOM     12  H   UNL     1       7.404   3.753  32.091  0.00  0.00    +0.149 HD
ATOM     13  C   UNL     1       7.236   4.665  33.882  0.00  0.00    +0.210 C 
ATOM     14  C   UNL     1       7.005   4.395  35.381  0.00  0.00    +0.109 C 
ATOM     15  O   UNL     1       7.414   5.813  33.474  0.00  0.00    -0.276 OA
ENDBRANCH  10  11
BRANCH   7  16
ATOM     16  C   UNL     1       6.719  -0.838  31.441  0.00  0.00    +0.414 C 
ATOM     17  O   UNL     1       5.782  -0.545  30.699  0.00  0.00    -0.240 OA
ATOM     18  O   UNL     1       7.758  -1.282  30.952  0.00  0.00    -0.240 OA
ENDBRANCH   7  16
BRANCH   7  19
ATOM     19  O   UNL     1       6.279  -1.921  33.592  0.00  0.00    -0.343 OA
ATOM     20  C   UNL     1       4.878  -2.122  33.905  0.00  0.00    +0.198 C 
ENDBRANCH   7  19
BRANCH   9  21
ATOM     21  O   UNL     1       9.368   1.804  33.825  0.00  0.00    -0.390 OA
ATOM     22  H   UNL     1       9.601   1.195  34.530  0.00  0.00    +0.210 HD
ENDBRANCH   9  21
ENDBRANCH   4   5
BRANCH   4  23
ATOM     23  O   UNL     1       3.482   1.612  33.823  0.00  0.00    -0.387 OA
ATOM     24  H   UNL     1       3.022   2.108  34.505  0.00  0.00    +0.210 HD
ENDBRANCH   4  23
ENDBRANCH   1   4
BRANCH   1  25
ATOM     25  C   UNL     1       2.774   2.189  31.351  0.00  0.00    +0.141 C 
BRANCH  25  28
ATOM     26  C   UNL     1       1.580   3.430  29.579  0.00  0.00    +0.401 C 
ATOM     27  O   UNL     1       0.910   4.099  30.368  0.00  0.00    -0.226 OA
ATOM     28  N   UNL     1       2.471   2.510  29.950  0.00  0.00    -0.279 N 
ATOM     29  H   UNL     1       2.965   2.005  29.228  0.00  0.00    +0.152 HD
BRANCH  26  30
ATOM     30  O   UNL     1       1.405   3.632  28.174  0.00  0.00    -0.444 OA
BRANCH  30  31
ATOM     31  C   UNL     1       0.012   3.580  27.854  0.00  0.00    +0.292 C 
BRANCH  31  33
ATOM     32  N   UNL     1      -0.631   5.314  26.209  0.00  0.00    -0.131 NA
ATOM     33  C   UNL     1      -0.216   4.037  26.471  0.00  0.00    +0.120 A 
ATOM     34  C   UNL     1      -0.082   3.353  25.287  0.00  0.00    +0.137 A 
ATOM     35  N   UNL     1      -0.497   4.248  24.343  0.00  0.00    -0.241 N 
ATOM     36  N   UNL     1      -0.780   5.439  24.895  0.00  0.00    -0.065 NA
BRANCH  35  37
ATOM     37  C   UNL     1      -0.551   4.078  22.909  0.00  0.00    +0.265 C 
BRANCH  37  38
ATOM     38  C   UNL     1       0.256   5.117  22.187  0.00  0.00    +0.329 C 
ATOM     39  O   UNL     1      -0.172   6.133  21.657  0.00  0.00    -0.249 OA
BRANCH  38  40
ATOM     40  O   UNL     1       1.556   4.700  22.116  0.00  0.00    -0.464 OA
BRANCH  40  41
ATOM     41  C   UNL     1       1.755   3.457  21.425  0.00  0.00    +0.229 C 
ATOM     42  C   UNL     1       1.761   3.749  19.935  0.00  0.00    +0.048 C 
ENDBRANCH  40  41
ENDBRANCH  38  40
ENDBRANCH  37  38
ENDBRANCH  35  37
ENDBRANCH  31  33
ENDBRANCH  30  31
ENDBRANCH  26  30
ENDBRANCH  25  28
ENDBRANCH   1  25
TORSDOF 17
