REMARK VINA RESULT:    -6.327     15.036     18.426
REMARK INTER + INTRA:         -13.142
REMARK INTER:                 -11.444
REMARK INTRA:                  -1.698
REMARK UNBOUND:                -2.191
REMARK  Name = lig_assembled_48.pdb
REMARK  16 active torsions:
REMARK  status: ('A' for Active; 'I' for Inactive)
REMARK    1  A    between atoms: _2  and  _9
REMARK    2  A    between atoms: _4  and  _18
REMARK    3  A    between atoms: _6  and  _7
REMARK    4  A    between atoms: _6  and  _18
REMARK    5  A    between atoms: _14  and  _34
REMARK    6  A    between atoms: _16  and  _22
REMARK    7  A    between atoms: _17  and  _21
REMARK    8  A    between atoms: _21  and  _22
REMARK    9  A    between atoms: _24  and  _25
REMARK   10  A    between atoms: _26  and  _27
REMARK   11  A    between atoms: _28  and  _30
REMARK   12  A    between atoms: _30  and  _31
REMARK   13  A    between atoms: _30  and  _32
REMARK   14  A    between atoms: _32  and  _33
REMARK   15  A    between atoms: _32  and  _34
REMARK   16  A    between atoms: _35  and  _37
REMARK                            x       y       z     vdW  Elec       q    Type
REMARK                         _______ _______ _______ _____ _____    ______ ____
ROOT
ATOM      1  C   UNL     1      16.994   1.681  26.180  0.00  0.00    +0.163 C 
ENDROOT
BRANCH   1   2
ATOM      2  O   UNL     1      16.091   2.579  26.847  0.00  0.00    -0.388 OA
ATOM      3  H   UNL     1      15.462   2.931  26.212  0.00  0.00    +0.210 HD
ENDBRANCH   1   2
BRANCH   1   4
ATOM      4  C   UNL     1      18.393   2.286  26.135  0.00  0.00    +0.141 C 
BRANCH   4   7
ATOM      5  C   UNL     1      18.781   4.726  26.193  0.00  0.00    +0.401 C 
ATOM      6  O   UNL     1      19.175   4.731  27.361  0.00  0.00    -0.226 OA
ATOM      7  N   UNL     1      18.389   3.630  25.542  0.00  0.00    -0.279 N 
ATOM      8  H   UNL     1      18.073   3.728  24.588  0.00  0.00    +0.152 HD
BRANCH   5   9
ATOM      9  O   UNL     1      18.727   5.960  25.473  0.00  0.00    -0.444 OA
BRANCH   9  10
ATOM     10  C   UNL     1      20.040   6.312  25.030  0.00  0.00    +0.292 C 
BRANCH  10  12
ATOM     11  N   UNL     1      20.993   8.585  24.846  0.00  0.00    -0.131 NA
ATOM     12  C   UNL     1      20.445   7.602  25.620  0.00  0.00    +0.120 A 
ATOM     13  C   UNL     1      20.347   8.052  26.918  0.00  0.00    +0.137 A 
ATOM     14  N   UNL     1      20.762   9.349  26.854  0.00  0.00    -0.248 N 
ATOM     15  N   UNL     1      21.220   9.638  25.617  0.00  0.00    -0.065 NA
BRANCH  14  16
ATOM     16  C   UNL     1      20.726  10.410  27.854  0.00  0.00    +0.109 C 
ATOM     17  C   UNL     1      19.693  11.490  27.478  0.00  0.00    +0.027 C 
ATOM     18  C   UNL     1      18.264  10.985  27.664  0.00  0.00    +0.002 C 
ATOM     19  C   UNL     1      18.016  10.577  29.111  0.00  0.00    +0.000 C 
ATOM     20  C   UNL     1      19.037   9.561  29.615  0.00  0.00    +0.002 C 
ATOM     21  C   UNL     1      20.487   9.954  29.307  0.00  0.00    +0.027 C 
ENDBRANCH  14  16
ENDBRANCH  10  12
ENDBRANCH   9  10
ENDBRANCH   5   9
ENDBRANCH   4   7
ENDBRANCH   1   4
BRANCH   1  22
ATOM     22  C   UNL     1      16.516   1.384  24.748  0.00  0.00    +0.175 C 
BRANCH  22  23
ATOM     23  C   UNL     1      17.629   0.778  23.881  0.00  0.00    +0.176 C 
ATOM     24  O   UNL     1      17.617   1.459  22.597  0.00  0.00    -0.332 OA
ATOM     25  C   UNL     1      18.688   1.083  21.669  0.00  0.00    +0.277 C 
ATOM     26  C   UNL     1      18.699  -0.450  21.449  0.00  0.00    +0.110 C 
ATOM     27  C   UNL     1      18.680  -1.218  22.787  0.00  0.00    +0.143 C 
ATOM     28  C   UNL     1      17.529  -0.745  23.675  0.00  0.00    +0.133 C 
BRANCH  28  29
ATOM     29  N   UNL     1      17.574  -1.421  24.981  0.00  0.00    -0.308 N 
ATOM     30  H   UNL     1      18.343  -1.203  25.599  0.00  0.00    +0.149 HD
ATOM     31  C   UNL     1      16.666  -2.306  25.403  0.00  0.00    +0.210 C 
ATOM     32  C   UNL     1      15.522  -2.637  24.427  0.00  0.00    +0.109 C 
ATOM     33  O   UNL     1      16.722  -2.846  26.508  0.00  0.00    -0.276 OA
ENDBRANCH  28  29
BRANCH  25  34
ATOM     34  C   UNL     1      20.061   1.536  22.206  0.00  0.00    +0.414 C 
ATOM     35  O   UNL     1      21.097   1.101  21.705  0.00  0.00    -0.240 OA
ATOM     36  O   UNL     1      20.133   2.337  23.139  0.00  0.00    -0.240 OA
ENDBRANCH  25  34
BRANCH  27  37
ATOM     37  O   UNL     1      18.539  -2.617  22.538  0.00  0.00    -0.390 OA
ATOM     38  H   UNL     1      18.303  -3.065  23.354  0.00  0.00    +0.210 HD
ENDBRANCH  27  37
BRANCH  25  39
ATOM     39  O   UNL     1      18.425   1.726  20.395  0.00  0.00    -0.343 OA
ATOM     40  C   UNL     1      17.032   1.740  19.992  0.00  0.00    +0.198 C 
ENDBRANCH  25  39
ENDBRANCH  22  23
BRANCH  22  41
ATOM     41  O   UNL     1      16.007   2.585  24.135  0.00  0.00    -0.387 OA
ATOM     42  H   UNL     1      15.047   2.561  24.130  0.00  0.00    +0.210 HD
ENDBRANCH  22  41
ENDBRANCH   1  22
TORSDOF 14
