REMARK VINA RESULT:    -6.588     11.166     14.051
REMARK INTER + INTRA:         -14.311
REMARK INTER:                 -11.682
REMARK INTRA:                  -2.629
REMARK UNBOUND:                -2.138
REMARK  Name = lig_assembled_92.pdb
REMARK  18 active torsions:
REMARK  status: ('A' for Active; 'I' for Inactive)
REMARK    1  A    between atoms: _2  and  _11
REMARK    2  A    between atoms: _3  and  _46
REMARK    3  A    between atoms: _6  and  _25
REMARK    4  A    between atoms: _8  and  _9
REMARK    5  A    between atoms: _8  and  _25
REMARK    6  A    between atoms: _14  and  _46
REMARK    7  A    between atoms: _21  and  _41
REMARK    8  A    between atoms: _23  and  _29
REMARK    9  A    between atoms: _24  and  _28
REMARK   10  A    between atoms: _28  and  _29
REMARK   11  A    between atoms: _31  and  _32
REMARK   12  A    between atoms: _33  and  _34
REMARK   13  A    between atoms: _35  and  _37
REMARK   14  A    between atoms: _37  and  _38
REMARK   15  A    between atoms: _37  and  _39
REMARK   16  A    between atoms: _39  and  _40
REMARK   17  A    between atoms: _39  and  _41
REMARK   18  A    between atoms: _42  and  _44
REMARK                            x       y       z     vdW  Elec       q    Type
REMARK                         _______ _______ _______ _____ _____    ______ ____
ROOT
ATOM      1  C   UNL     1       5.267   0.308  34.938  0.00  0.00    +0.401 C 
ATOM      2  O   UNL     1       4.129   0.134  35.381  0.00  0.00    -0.226 OA
ATOM      3  N   UNL     1       5.644   1.389  34.254  0.00  0.00    -0.279 N 
ATOM      4  H   UNL     1       6.602   1.444  33.940  0.00  0.00    +0.152 HD
ENDROOT
BRANCH   3   5
ATOM      5  C   UNL     1       4.744   2.503  33.932  0.00  0.00    +0.141 C 
BRANCH   5   6
ATOM      6  C   UNL     1       5.488   3.664  33.279  0.00  0.00    +0.163 C 
BRANCH   6   7
ATOM      7  O   UNL     1       4.877   4.910  33.651  0.00  0.00    -0.388 OA
ATOM      8  H   UNL     1       5.071   5.574  32.984  0.00  0.00    +0.210 HD
ENDBRANCH   6   7
BRANCH   6   9
ATOM      9  C   UNL     1       6.967   3.628  33.700  0.00  0.00    +0.175 C 
BRANCH   9  10
ATOM     10  C   UNL     1       7.187   4.243  35.090  0.00  0.00    +0.176 C 
ATOM     11  O   UNL     1       7.186   5.690  34.944  0.00  0.00    -0.332 OA
ATOM     12  C   UNL     1       7.279   6.453  36.193  0.00  0.00    +0.277 C 
ATOM     13  C   UNL     1       8.520   6.009  37.007  0.00  0.00    +0.110 C 
ATOM     14  C   UNL     1       8.581   4.475  37.161  0.00  0.00    +0.143 C 
ATOM     15  C   UNL     1       8.472   3.782  35.802  0.00  0.00    +0.133 C 
BRANCH  15  16
ATOM     16  N   UNL     1       8.444   2.321  35.970  0.00  0.00    -0.308 N 
ATOM     17  H   UNL     1       7.658   1.917  36.460  0.00  0.00    +0.149 HD
ATOM     18  C   UNL     1       9.390   1.493  35.518  0.00  0.00    +0.210 C 
ATOM     19  C   UNL     1      10.588   2.141  34.798  0.00  0.00    +0.109 C 
ATOM     20  O   UNL     1       9.332   0.271  35.660  0.00  0.00    -0.276 OA
ENDBRANCH  15  16
BRANCH  12  21
ATOM     21  C   UNL     1       6.008   6.263  37.046  0.00  0.00    +0.414 C 
ATOM     22  O   UNL     1       4.931   6.012  36.506  0.00  0.00    -0.240 OA
ATOM     23  O   UNL     1       6.059   6.361  38.272  0.00  0.00    -0.240 OA
ENDBRANCH  12  21
BRANCH  14  24
ATOM     24  O   UNL     1       9.811   4.102  37.783  0.00  0.00    -0.390 OA
ATOM     25  H   UNL     1      10.100   4.805  38.369  0.00  0.00    +0.210 HD
ENDBRANCH  14  24
BRANCH  12  26
ATOM     26  O   UNL     1       7.434   7.855  35.851  0.00  0.00    -0.343 OA
ATOM     27  C   UNL     1       7.450   8.140  34.430  0.00  0.00    +0.198 C 
ENDBRANCH  12  26
ENDBRANCH   9  10
BRANCH   9  28
ATOM     28  O   UNL     1       7.778   4.309  32.722  0.00  0.00    -0.387 OA
ATOM     29  H   UNL     1       7.965   3.714  31.991  0.00  0.00    +0.210 HD
ENDBRANCH   9  28
ENDBRANCH   6   9
ENDBRANCH   5   6
ENDBRANCH   3   5
BRANCH   1  30
ATOM     30  O   UNL     1       6.260  -0.697  35.162  0.00  0.00    -0.444 OA
BRANCH  30  31
ATOM     31  C   UNL     1       5.962  -1.849  34.369  0.00  0.00    +0.292 C 
BRANCH  31  33
ATOM     32  N   UNL     1       7.465  -0.907  32.637  0.00  0.00    -0.131 NA
ATOM     33  C   UNL     1       6.347  -1.618  32.964  0.00  0.00    +0.121 A 
ATOM     34  C   UNL     1       5.730  -2.038  31.809  0.00  0.00    +0.143 A 
ATOM     35  N   UNL     1       6.532  -1.580  30.789  0.00  0.00    -0.220 N 
ATOM     36  N   UNL     1       7.567  -0.882  31.313  0.00  0.00    -0.060 NA
BRANCH  35  37
ATOM     37  C   UNL     1       6.389  -1.792  29.394  0.00  0.00    +0.067 A 
ATOM     38  C   UNL     1       7.446  -2.335  28.647  0.00  0.00    +0.030 A 
ATOM     39  C   UNL     1       7.324  -2.487  27.267  0.00  0.00    +0.031 A 
ATOM     40  C   UNL     1       6.141  -2.109  26.628  0.00  0.00    +0.109 A 
ATOM     41  C   UNL     1       5.076  -1.577  27.359  0.00  0.00    +0.031 A 
ATOM     42  C   UNL     1       5.197  -1.428  28.746  0.00  0.00    +0.030 A 
BRANCH  40  43
ATOM     43  S   UNL     1       6.079  -2.175  24.857  0.00  0.00    +0.074 S 
ATOM     44  O   UNL     1       5.055  -1.244  24.422  0.00  0.00    -0.150 OA
ATOM     45  O   UNL     1       7.423  -2.064  24.344  0.00  0.00    -0.150 OA
BRANCH  43  46
ATOM     46  N   UNL     1       5.441  -3.706  24.542  0.00  0.00    -0.194 N 
ATOM     47  H   UNL     1       4.629  -3.559  23.948  0.00  0.00    +0.176 HD
ATOM     48  C   UNL     1       6.399  -4.575  23.979  0.00  0.00    +0.177 A 
ATOM     49  S   UNL     1       6.515  -4.856  22.297  0.00  0.00    -0.059 S 
ATOM     50  C   UNL     1       7.734  -6.025  22.601  0.00  0.00    +0.068 A 
ATOM     51  C   UNL     1       7.904  -6.169  23.962  0.00  0.00    +0.120 A 
ATOM     52  N   UNL     1       7.160  -5.311  24.751  0.00  0.00    -0.232 NA
ENDBRANCH  43  46
ENDBRANCH  40  43
ENDBRANCH  35  37
ENDBRANCH  31  33
ENDBRANCH  30  31
ENDBRANCH   1  30
TORSDOF 16
