REMARK VINA RESULT:    -5.419     12.829     16.215
REMARK INTER + INTRA:         -12.525
REMARK INTER:                 -10.689
REMARK INTRA:                  -1.836
REMARK UNBOUND:                -2.671
REMARK  Name = lig_assembled_1.pdb
REMARK  18 active torsions:
REMARK  status: ('A' for Active; 'I' for Inactive)
REMARK    1  A    between atoms: _2  and  _9
REMARK    2  A    between atoms: _4  and  _15
REMARK    3  A    between atoms: _5  and  _9
REMARK    4  A    between atoms: _5  and  _10
REMARK    5  A    between atoms: _6  and  _7
REMARK    6  A    between atoms: _6  and  _15
REMARK    7  A    between atoms: _11  and  _31
REMARK    8  A    between atoms: _13  and  _19
REMARK    9  A    between atoms: _14  and  _18
REMARK   10  A    between atoms: _18  and  _19
REMARK   11  A    between atoms: _21  and  _22
REMARK   12  A    between atoms: _23  and  _24
REMARK   13  A    between atoms: _25  and  _27
REMARK   14  A    between atoms: _27  and  _28
REMARK   15  A    between atoms: _27  and  _29
REMARK   16  A    between atoms: _29  and  _30
REMARK   17  A    between atoms: _29  and  _31
REMARK   18  A    between atoms: _32  and  _34
REMARK                            x       y       z     vdW  Elec       q    Type
REMARK                         _______ _______ _______ _____ _____    ______ ____
ROOT
ATOM      1  C   UNL     1       7.891   3.682  33.362  0.00  0.00    +0.175 C 
ENDROOT
BRANCH   1   2
ATOM      2  C   UNL     1       7.015   4.796  33.955  0.00  0.00    +0.176 C 
ATOM      3  O   UNL     1       7.744   5.398  35.059  0.00  0.00    -0.332 OA
ATOM      4  C   UNL     1       7.103   6.559  35.684  0.00  0.00    +0.277 C 
ATOM      5  C   UNL     1       5.666   6.203  36.138  0.00  0.00    +0.110 C 
ATOM      6  C   UNL     1       4.861   5.531  35.006  0.00  0.00    +0.143 C 
ATOM      7  C   UNL     1       5.622   4.338  34.426  0.00  0.00    +0.133 C 
BRANCH   7   8
ATOM      8  N   UNL     1       4.885   3.759  33.291  0.00  0.00    -0.308 N 
ATOM      9  H   UNL     1       4.797   4.316  32.453  0.00  0.00    +0.149 HD
ATOM     10  C   UNL     1       4.327   2.546  33.297  0.00  0.00    +0.210 C 
ATOM     11  C   UNL     1       4.457   1.733  34.599  0.00  0.00    +0.109 C 
ATOM     12  O   UNL     1       3.728   2.081  32.327  0.00  0.00    -0.276 OA
ENDBRANCH   7   8
BRANCH   4  13
ATOM     13  C   UNL     1       7.055   7.750  34.705  0.00  0.00    +0.414 C 
ATOM     14  O   UNL     1       8.097   8.261  34.298  0.00  0.00    -0.240 OA
ATOM     15  O   UNL     1       5.974   8.200  34.323  0.00  0.00    -0.240 OA
ENDBRANCH   4  13
BRANCH   4  16
ATOM     16  O   UNL     1       7.876   6.922  36.857  0.00  0.00    -0.343 OA
ATOM     17  C   UNL     1       9.069   6.126  37.074  0.00  0.00    +0.198 C 
ENDBRANCH   4  16
BRANCH   6  18
ATOM     18  O   UNL     1       3.601   5.085  35.510  0.00  0.00    -0.390 OA
ATOM     19  H   UNL     1       3.674   4.169  35.789  0.00  0.00    +0.210 HD
ENDBRANCH   6  18
ENDBRANCH   1   2
BRANCH   1  20
ATOM     20  O   UNL     1       7.401   3.305  32.060  0.00  0.00    -0.387 OA
ATOM     21  H   UNL     1       6.635   3.839  31.839  0.00  0.00    +0.210 HD
ENDBRANCH   1  20
BRANCH   1  22
ATOM     22  C   UNL     1       7.960   2.449  34.280  0.00  0.00    +0.163 C 
BRANCH  22  23
ATOM     23  O   UNL     1       8.474   2.801  35.575  0.00  0.00    -0.388 OA
ATOM     24  H   UNL     1       7.743   2.966  36.176  0.00  0.00    +0.210 HD
ENDBRANCH  22  23
BRANCH  22  25
ATOM     25  C   UNL     1       8.845   1.386  33.639  0.00  0.00    +0.141 C 
BRANCH  25  28
ATOM     26  C   UNL     1       7.551  -0.669  33.181  0.00  0.00    +0.401 C 
ATOM     27  O   UNL     1       7.663  -1.108  34.328  0.00  0.00    -0.226 OA
ATOM     28  N   UNL     1       8.077   0.485  32.770  0.00  0.00    -0.279 N 
ATOM     29  H   UNL     1       7.940   0.756  31.807  0.00  0.00    +0.152 HD
BRANCH  26  30
ATOM     30  O   UNL     1       6.821  -1.429  32.215  0.00  0.00    -0.444 OA
BRANCH  30  31
ATOM     31  C   UNL     1       7.696  -1.819  31.153  0.00  0.00    +0.292 C 
BRANCH  31  33
ATOM     32  N   UNL     1       5.764  -1.168  29.746  0.00  0.00    -0.131 NA
ATOM     33  C   UNL     1       6.988  -1.773  29.860  0.00  0.00    +0.120 A 
ATOM     34  C   UNL     1       7.359  -2.272  28.631  0.00  0.00    +0.137 A 
ATOM     35  N   UNL     1       6.318  -1.943  27.817  0.00  0.00    -0.249 N 
ATOM     36  N   UNL     1       5.360  -1.284  28.489  0.00  0.00    -0.065 NA
BRANCH  35  37
ATOM     37  C   UNL     1       6.174  -2.213  26.404  0.00  0.00    +0.173 C 
BRANCH  37  38
ATOM     38  C   UNL     1       7.362  -2.975  25.828  0.00  0.00    +0.179 C 
BRANCH  38  39
ATOM     39  O   UNL     1       8.431  -2.090  25.497  0.00  0.00    -0.393 OA
ATOM     40  H   UNL     1       8.024  -1.252  25.203  0.00  0.00    +0.209 HD
ENDBRANCH  38  39
ENDBRANCH  37  38
ENDBRANCH  35  37
ENDBRANCH  31  33
ENDBRANCH  30  31
ENDBRANCH  26  30
ENDBRANCH  25  28
ENDBRANCH  22  25
ENDBRANCH   1  22
TORSDOF 16
