REMARK VINA RESULT:    -6.081      4.042      5.267
REMARK INTER + INTRA:         -13.821
REMARK INTER:                 -11.408
REMARK INTRA:                  -2.412
REMARK UNBOUND:                -2.230
REMARK  Name = lig_assembled_9.pdb
REMARK  20 active torsions:
REMARK  status: ('A' for Active; 'I' for Inactive)
REMARK    1  A    between atoms: _2  and  _9
REMARK    2  A    between atoms: _4  and  _23
REMARK    3  A    between atoms: _6  and  _7
REMARK    4  A    between atoms: _6  and  _23
REMARK    5  A    between atoms: _11  and  _12
REMARK    6  A    between atoms: _12  and  _17
REMARK    7  A    between atoms: _13  and  _14
REMARK    8  A    between atoms: _13  and  _17
REMARK    9  A    between atoms: _19  and  _39
REMARK   10  A    between atoms: _21  and  _27
REMARK   11  A    between atoms: _22  and  _26
REMARK   12  A    between atoms: _26  and  _27
REMARK   13  A    between atoms: _29  and  _30
REMARK   14  A    between atoms: _31  and  _32
REMARK   15  A    between atoms: _33  and  _35
REMARK   16  A    between atoms: _35  and  _36
REMARK   17  A    between atoms: _35  and  _37
REMARK   18  A    between atoms: _37  and  _38
REMARK   19  A    between atoms: _37  and  _39
REMARK   20  A    between atoms: _40  and  _42
REMARK                            x       y       z     vdW  Elec       q    Type
REMARK                         _______ _______ _______ _____ _____    ______ ____
ROOT
ATOM      1  C   UNL     1       6.264   2.828  33.325  0.00  0.00    +0.163 C 
ENDROOT
BRANCH   1   2
ATOM      2  O   UNL     1       6.388   1.951  32.193  0.00  0.00    -0.388 OA
ATOM      3  H   UNL     1       6.077   1.074  32.432  0.00  0.00    +0.210 HD
ENDBRANCH   1   2
BRANCH   1   4
ATOM      4  C   UNL     1       7.586   3.568  33.594  0.00  0.00    +0.175 C 
BRANCH   4   5
ATOM      5  C   UNL     1       7.626   4.186  34.999  0.00  0.00    +0.176 C 
ATOM      6  O   UNL     1       7.602   5.632  34.853  0.00  0.00    -0.332 OA
ATOM      7  C   UNL     1       7.528   6.395  36.102  0.00  0.00    +0.277 C 
ATOM      8  C   UNL     1       8.678   5.985  37.055  0.00  0.00    +0.110 C 
ATOM      9  C   UNL     1       8.764   4.453  37.218  0.00  0.00    +0.143 C 
ATOM     10  C   UNL     1       8.833   3.760  35.856  0.00  0.00    +0.133 C 
BRANCH  10  11
ATOM     11  N   UNL     1       8.826   2.298  36.022  0.00  0.00    -0.308 N 
ATOM     12  H   UNL     1       7.995   1.870  36.404  0.00  0.00    +0.149 HD
ATOM     13  C   UNL     1       9.848   1.499  35.700  0.00  0.00    +0.210 C 
ATOM     14  C   UNL     1      11.110   2.185  35.144  0.00  0.00    +0.109 C 
ATOM     15  O   UNL     1       9.809   0.276  35.835  0.00  0.00    -0.276 OA
ENDBRANCH  10  11
BRANCH   7  16
ATOM     16  C   UNL     1       6.172   6.168  36.803  0.00  0.00    +0.414 C 
ATOM     17  O   UNL     1       5.158   5.961  36.138  0.00  0.00    -0.240 OA
ATOM     18  O   UNL     1       6.093   6.192  38.031  0.00  0.00    -0.240 OA
ENDBRANCH   7  16
BRANCH   7  19
ATOM     19  O   UNL     1       7.682   7.801  35.779  0.00  0.00    -0.343 OA
ATOM     20  C   UNL     1       7.492   8.133  34.381  0.00  0.00    +0.198 C 
ENDBRANCH   7  19
BRANCH   9  21
ATOM     21  O   UNL     1       9.924   4.113  37.978  0.00  0.00    -0.390 OA
ATOM     22  H   UNL     1      10.486   3.531  37.462  0.00  0.00    +0.210 HD
ENDBRANCH   9  21
ENDBRANCH   4   5
BRANCH   4  23
ATOM     23  O   UNL     1       7.797   4.587  32.597  0.00  0.00    -0.387 OA
ATOM     24  H   UNL     1       7.101   4.538  31.937  0.00  0.00    +0.210 HD
ENDBRANCH   4  23
ENDBRANCH   1   4
BRANCH   1  25
ATOM     25  C   UNL     1       5.153   3.844  33.079  0.00  0.00    +0.141 C 
BRANCH  25  28
ATOM     26  C   UNL     1       2.873   3.337  32.272  0.00  0.00    +0.401 C 
ATOM     27  O   UNL     1       2.323   3.686  33.318  0.00  0.00    -0.226 OA
ATOM     28  N   UNL     1       4.192   3.371  32.075  0.00  0.00    -0.279 N 
ATOM     29  H   UNL     1       4.550   3.054  31.185  0.00  0.00    +0.152 HD
BRANCH  26  30
ATOM     30  O   UNL     1       2.069   2.857  31.191  0.00  0.00    -0.444 OA
BRANCH  30  31
ATOM     31  C   UNL     1       1.786   1.469  31.385  0.00  0.00    +0.292 C 
BRANCH  31  33
ATOM     32  N   UNL     1       3.742   0.132  32.101  0.00  0.00    -0.131 NA
ATOM     33  C   UNL     1       2.984   0.659  31.096  0.00  0.00    +0.121 A 
ATOM     34  C   UNL     1       3.524   0.293  29.886  0.00  0.00    +0.143 A 
ATOM     35  N   UNL     1       4.604  -0.500  30.205  0.00  0.00    -0.220 N 
ATOM     36  N   UNL     1       4.729  -0.563  31.552  0.00  0.00    -0.060 NA
BRANCH  35  37
ATOM     37  C   UNL     1       5.477  -1.201  29.333  0.00  0.00    +0.068 A 
ATOM     38  C   UNL     1       5.162  -1.347  27.976  0.00  0.00    +0.042 A 
ATOM     39  C   UNL     1       6.012  -2.069  27.125  0.00  0.00    +0.061 A 
ATOM     40  C   UNL     1       7.183  -2.641  27.636  0.00  0.00    +0.015 A 
ATOM     41  C   UNL     1       7.506  -2.485  28.986  0.00  0.00    +0.003 A 
ATOM     42  C   UNL     1       6.660  -1.768  29.833  0.00  0.00    +0.028 A 
BRANCH  39  43
ATOM     43  C   UNL     1       5.745  -2.197  25.668  0.00  0.00    +0.339 C 
ATOM     44  O   UNL     1       6.429  -2.863  24.909  0.00  0.00    -0.245 OA
BRANCH  43  45
ATOM     45  O   UNL     1       4.710  -1.392  25.320  0.00  0.00    -0.461 OA
BRANCH  45  46
ATOM     46  C   UNL     1       3.732  -1.982  24.453  0.00  0.00    +0.229 C 
ATOM     47  C   UNL     1       2.401  -1.304  24.720  0.00  0.00    +0.048 C 
ENDBRANCH  45  46
ENDBRANCH  43  45
ENDBRANCH  39  43
ENDBRANCH  35  37
ENDBRANCH  31  33
ENDBRANCH  30  31
ENDBRANCH  26  30
ENDBRANCH  25  28
ENDBRANCH   1  25
TORSDOF 17
