REMARK VINA RESULT:    -6.347      6.138      7.828
REMARK INTER + INTRA:         -13.354
REMARK INTER:                 -11.419
REMARK INTRA:                  -1.935
REMARK UNBOUND:                -2.370
REMARK  Name = lig_assembled_87.pdb
REMARK  17 active torsions:
REMARK  status: ('A' for Active; 'I' for Inactive)
REMARK    1  A    between atoms: _2  and  _10
REMARK    2  A    between atoms: _3  and  _13
REMARK    3  A    between atoms: _5  and  _21
REMARK    4  A    between atoms: _7  and  _8
REMARK    5  A    between atoms: _7  and  _21
REMARK    6  A    between atoms: _17  and  _37
REMARK    7  A    between atoms: _19  and  _25
REMARK    8  A    between atoms: _20  and  _24
REMARK    9  A    between atoms: _24  and  _25
REMARK   10  A    between atoms: _27  and  _28
REMARK   11  A    between atoms: _29  and  _30
REMARK   12  A    between atoms: _31  and  _33
REMARK   13  A    between atoms: _33  and  _34
REMARK   14  A    between atoms: _33  and  _35
REMARK   15  A    between atoms: _35  and  _36
REMARK   16  A    between atoms: _35  and  _37
REMARK   17  A    between atoms: _38  and  _40
REMARK                            x       y       z     vdW  Elec       q    Type
REMARK                         _______ _______ _______ _____ _____    ______ ____
ROOT
ATOM      1  C   UNL     1       7.445   2.454  34.513  0.00  0.00    +0.163 C 
ENDROOT
BRANCH   1   2
ATOM      2  O   UNL     1       8.031   2.329  35.819  0.00  0.00    -0.388 OA
ATOM      3  H   UNL     1       8.961   2.105  35.733  0.00  0.00    +0.210 HD
ENDBRANCH   1   2
BRANCH   1   4
ATOM      4  C   UNL     1       7.932   1.323  33.613  0.00  0.00    +0.141 C 
BRANCH   4   7
ATOM      5  C   UNL     1       5.913   0.498  32.451  0.00  0.00    +0.401 C 
ATOM      6  O   UNL     1       5.798   1.499  31.741  0.00  0.00    -0.226 OA
ATOM      7  N   UNL     1       6.877   0.334  33.358  0.00  0.00    -0.279 N 
ATOM      8  H   UNL     1       6.883  -0.518  33.900  0.00  0.00    +0.152 HD
BRANCH   5   9
ATOM      9  O   UNL     1       4.964  -0.563  32.316  0.00  0.00    -0.444 OA
BRANCH   9  10
ATOM     10  C   UNL     1       5.653  -1.791  32.065  0.00  0.00    +0.292 C 
BRANCH  10  12
ATOM     11  N   UNL     1       7.482  -2.091  30.431  0.00  0.00    -0.131 NA
ATOM     12  C   UNL     1       6.168  -1.810  30.684  0.00  0.00    +0.120 A 
ATOM     13  C   UNL     1       5.516  -1.594  29.491  0.00  0.00    +0.137 A 
ATOM     14  N   UNL     1       6.455  -1.878  28.535  0.00  0.00    -0.248 N 
ATOM     15  N   UNL     1       7.657  -2.060  29.122  0.00  0.00    -0.065 NA
BRANCH  14  16
ATOM     16  C   UNL     1       6.342  -1.990  27.069  0.00  0.00    +0.112 C 
ATOM     17  C   UNL     1       5.150  -2.855  26.572  0.00  0.00    +0.045 C 
ATOM     18  C   UNL     1       5.525  -4.076  25.716  0.00  0.00    +0.059 C 
ATOM     19  C   UNL     1       5.858  -3.685  24.269  0.00  0.00    +0.020 C 
ATOM     20  C   UNL     1       7.381  -3.562  24.243  0.00  0.00    +0.020 C 
ATOM     21  C   UNL     1       7.788  -3.714  25.709  0.00  0.00    +0.059 C 
ATOM     22  N   UNL     1       6.782  -4.686  26.128  0.00  0.00    -0.299 NA
ATOM     23  C   UNL     1       6.867  -5.200  27.478  0.00  0.00    +0.105 C 
ATOM     24  C   UNL     1       7.713  -2.365  26.429  0.00  0.00    +0.045 C 
ENDBRANCH  14  16
ENDBRANCH  10  12
ENDBRANCH   9  10
ENDBRANCH   5   9
ENDBRANCH   4   7
ENDBRANCH   1   4
BRANCH   1  25
ATOM     25  C   UNL     1       7.803   3.808  33.877  0.00  0.00    +0.175 C 
BRANCH  25  26
ATOM     26  C   UNL     1       7.168   4.986  34.630  0.00  0.00    +0.176 C 
ATOM     27  O   UNL     1       7.889   5.159  35.881  0.00  0.00    -0.332 OA
ATOM     28  C   UNL     1       7.487   6.313  36.691  0.00  0.00    +0.277 C 
ATOM     29  C   UNL     1       5.964   6.276  36.966  0.00  0.00    +0.110 C 
ATOM     30  C   UNL     1       5.156   6.063  35.668  0.00  0.00    +0.143 C 
ATOM     31  C   UNL     1       5.659   4.838  34.903  0.00  0.00    +0.133 C 
BRANCH  31  32
ATOM     32  N   UNL     1       4.940   4.696  33.628  0.00  0.00    -0.308 N 
ATOM     33  H   UNL     1       5.143   5.362  32.895  0.00  0.00    +0.149 HD
ATOM     34  C   UNL     1       4.038   3.745  33.374  0.00  0.00    +0.210 C 
ATOM     35  C   UNL     1       3.733   2.761  34.519  0.00  0.00    +0.109 C 
ATOM     36  O   UNL     1       3.462   3.641  32.291  0.00  0.00    -0.276 OA
ENDBRANCH  31  32
BRANCH  28  37
ATOM     37  C   UNL     1       7.851   7.633  35.980  0.00  0.00    +0.414 C 
ATOM     38  O   UNL     1       7.833   7.702  34.752  0.00  0.00    -0.240 OA
ATOM     39  O   UNL     1       8.163   8.628  36.635  0.00  0.00    -0.240 OA
ENDBRANCH  28  37
BRANCH  30  40
ATOM     40  O   UNL     1       3.774   5.885  35.985  0.00  0.00    -0.390 OA
ATOM     41  H   UNL     1       3.240   6.087  35.213  0.00  0.00    +0.210 HD
ENDBRANCH  30  40
BRANCH  28  42
ATOM     42  O   UNL     1       8.183   6.233  37.961  0.00  0.00    -0.343 OA
ATOM     43  C   UNL     1       7.326   6.254  39.131  0.00  0.00    +0.198 C 
ENDBRANCH  28  42
ENDBRANCH  25  26
BRANCH  25  44
ATOM     44  O   UNL     1       7.401   3.828  32.493  0.00  0.00    -0.387 OA
ATOM     45  H   UNL     1       8.177   3.757  31.932  0.00  0.00    +0.210 HD
ENDBRANCH  25  44
ENDBRANCH   1  25
TORSDOF 14
