REMARK VINA RESULT:    -5.315     12.401     15.465
REMARK INTER + INTRA:         -12.337
REMARK INTER:                 -10.398
REMARK INTRA:                  -1.939
REMARK UNBOUND:                -2.671
REMARK  Name = lig_assembled_1.pdb
REMARK  18 active torsions:
REMARK  status: ('A' for Active; 'I' for Inactive)
REMARK    1  A    between atoms: _2  and  _9
REMARK    2  A    between atoms: _4  and  _15
REMARK    3  A    between atoms: _5  and  _9
REMARK    4  A    between atoms: _5  and  _10
REMARK    5  A    between atoms: _6  and  _7
REMARK    6  A    between atoms: _6  and  _15
REMARK    7  A    between atoms: _11  and  _31
REMARK    8  A    between atoms: _13  and  _19
REMARK    9  A    between atoms: _14  and  _18
REMARK   10  A    between atoms: _18  and  _19
REMARK   11  A    between atoms: _21  and  _22
REMARK   12  A    between atoms: _23  and  _24
REMARK   13  A    between atoms: _25  and  _27
REMARK   14  A    between atoms: _27  and  _28
REMARK   15  A    between atoms: _27  and  _29
REMARK   16  A    between atoms: _29  and  _30
REMARK   17  A    between atoms: _29  and  _31
REMARK   18  A    between atoms: _32  and  _34
REMARK                            x       y       z     vdW  Elec       q    Type
REMARK                         _______ _______ _______ _____ _____    ______ ____
ROOT
ATOM      1  C   UNL     1       8.637   4.064  37.235  0.00  0.00    +0.175 C 
ENDROOT
BRANCH   1   2
ATOM      2  C   UNL     1       8.054   4.655  35.943  0.00  0.00    +0.176 C 
ATOM      3  O   UNL     1       6.683   5.057  36.215  0.00  0.00    -0.332 OA
ATOM      4  C   UNL     1       5.995   5.745  35.118  0.00  0.00    +0.277 C 
ATOM      5  C   UNL     1       6.045   4.890  33.828  0.00  0.00    +0.110 C 
ATOM      6  C   UNL     1       7.479   4.412  33.515  0.00  0.00    +0.143 C 
ATOM      7  C   UNL     1       8.100   3.714  34.725  0.00  0.00    +0.133 C 
BRANCH   7   8
ATOM      8  N   UNL     1       9.495   3.341  34.445  0.00  0.00    -0.308 N 
ATOM      9  H   UNL     1      10.115   4.060  34.100  0.00  0.00    +0.149 HD
ATOM     10  C   UNL     1       9.995   2.114  34.616  0.00  0.00    +0.210 C 
ATOM     11  C   UNL     1       9.018   1.035  35.117  0.00  0.00    +0.109 C 
ATOM     12  O   UNL     1      11.173   1.834  34.386  0.00  0.00    -0.276 OA
ENDBRANCH   7   8
BRANCH   4  13
ATOM     13  C   UNL     1       6.636   7.122  34.848  0.00  0.00    +0.414 C 
ATOM     14  O   UNL     1       5.976   8.023  34.332  0.00  0.00    -0.240 OA
ATOM     15  O   UNL     1       7.813   7.333  35.147  0.00  0.00    -0.240 OA
ENDBRANCH   4  13
BRANCH   4  16
ATOM     16  O   UNL     1       4.606   5.919  35.498  0.00  0.00    -0.343 OA
ATOM     17  C   UNL     1       4.320   5.678  36.899  0.00  0.00    +0.198 C 
ENDBRANCH   4  16
BRANCH   6  18
ATOM     18  O   UNL     1       7.455   3.508  32.411  0.00  0.00    -0.390 OA
ATOM     19  H   UNL     1       6.841   3.829  31.746  0.00  0.00    +0.210 HD
ENDBRANCH   6  18
ENDBRANCH   1   2
BRANCH   1  20
ATOM     20  O   UNL     1       7.672   3.196  37.864  0.00  0.00    -0.387 OA
ATOM     21  H   UNL     1       6.876   3.161  37.328  0.00  0.00    +0.210 HD
ENDBRANCH   1  20
BRANCH   1  22
ATOM     22  C   UNL     1       9.088   5.156  38.220  0.00  0.00    +0.163 C 
BRANCH  22  23
ATOM     23  O   UNL     1       8.879   6.465  37.666  0.00  0.00    -0.388 OA
ATOM     24  H   UNL     1       8.349   6.395  36.869  0.00  0.00    +0.210 HD
ENDBRANCH  22  23
BRANCH  22  25
ATOM     25  C   UNL     1      10.563   4.961  38.556  0.00  0.00    +0.141 C 
BRANCH  25  28
ATOM     26  C   UNL     1      12.330   4.155  37.029  0.00  0.00    +0.401 C 
ATOM     27  O   UNL     1      12.567   3.139  37.688  0.00  0.00    -0.226 OA
ATOM     28  N   UNL     1      11.414   5.064  37.365  0.00  0.00    -0.279 N 
ATOM     29  H   UNL     1      11.299   5.869  36.765  0.00  0.00    +0.152 HD
BRANCH  26  30
ATOM     30  O   UNL     1      13.073   4.395  35.831  0.00  0.00    -0.444 OA
BRANCH  30  31
ATOM     31  C   UNL     1      14.429   4.704  36.164  0.00  0.00    +0.292 C 
BRANCH  31  33
ATOM     32  N   UNL     1      14.918   5.474  33.861  0.00  0.00    -0.131 NA
ATOM     33  C   UNL     1      14.981   5.688  35.212  0.00  0.00    +0.120 A 
ATOM     34  C   UNL     1      15.605   6.892  35.450  0.00  0.00    +0.137 A 
ATOM     35  N   UNL     1      15.903   7.357  34.204  0.00  0.00    -0.249 N 
ATOM     36  N   UNL     1      15.493   6.503  33.252  0.00  0.00    -0.065 NA
BRANCH  35  37
ATOM     37  C   UNL     1      16.560   8.595  33.850  0.00  0.00    +0.173 C 
BRANCH  37  38
ATOM     38  C   UNL     1      15.574   9.719  33.553  0.00  0.00    +0.179 C 
BRANCH  38  39
ATOM     39  O   UNL     1      14.459   9.241  32.802  0.00  0.00    -0.393 OA
ATOM     40  H   UNL     1      14.622   9.481  31.869  0.00  0.00    +0.209 HD
ENDBRANCH  38  39
ENDBRANCH  37  38
ENDBRANCH  35  37
ENDBRANCH  31  33
ENDBRANCH  30  31
ENDBRANCH  26  30
ENDBRANCH  25  28
ENDBRANCH  22  25
ENDBRANCH   1  22
TORSDOF 16
