REMARK VINA RESULT:    -5.530     13.768     17.897
REMARK INTER + INTRA:         -13.208
REMARK INTER:                 -10.687
REMARK INTRA:                  -2.521
REMARK UNBOUND:                -3.313
REMARK  Name = lig_assembled_71.pdb
REMARK  17 active torsions:
REMARK  status: ('A' for Active; 'I' for Inactive)
REMARK    1  A    between atoms: _2  and  _12
REMARK    2  A    between atoms: _7  and  _22
REMARK    3  A    between atoms: _9  and  _10
REMARK    4  A    between atoms: _9  and  _22
REMARK    5  A    between atoms: _12  and  _13
REMARK    6  A    between atoms: _18  and  _38
REMARK    7  A    between atoms: _20  and  _26
REMARK    8  A    between atoms: _21  and  _25
REMARK    9  A    between atoms: _25  and  _26
REMARK   10  A    between atoms: _28  and  _29
REMARK   11  A    between atoms: _30  and  _31
REMARK   12  A    between atoms: _32  and  _34
REMARK   13  A    between atoms: _34  and  _35
REMARK   14  A    between atoms: _34  and  _36
REMARK   15  A    between atoms: _36  and  _37
REMARK   16  A    between atoms: _36  and  _38
REMARK   17  A    between atoms: _39  and  _41
REMARK                            x       y       z     vdW  Elec       q    Type
REMARK                         _______ _______ _______ _____ _____    ______ ____
ROOT
ATOM      1  C   UNL     1      17.274   3.273  23.397  0.00  0.00    +0.163 C 
ENDROOT
BRANCH   1   2
ATOM      2  O   UNL     1      15.900   2.866  23.282  0.00  0.00    -0.388 OA
ATOM      3  H   UNL     1      15.778   2.378  22.464  0.00  0.00    +0.210 HD
ENDBRANCH   1   2
BRANCH   1   4
ATOM      4  C   UNL     1      17.504   4.560  22.612  0.00  0.00    +0.141 C 
BRANCH   4   7
ATOM      5  C   UNL     1      18.842   6.111  23.995  0.00  0.00    +0.401 C 
ATOM      6  O   UNL     1      19.910   5.536  23.773  0.00  0.00    -0.226 OA
ATOM      7  N   UNL     1      17.668   5.720  23.498  0.00  0.00    -0.279 N 
ATOM      8  H   UNL     1      16.845   6.251  23.744  0.00  0.00    +0.152 HD
BRANCH   5   9
ATOM      9  O   UNL     1      18.837   7.267  24.836  0.00  0.00    -0.444 OA
BRANCH   9  10
ATOM     10  C   UNL     1      20.093   7.372  25.511  0.00  0.00    +0.292 C 
BRANCH  10  12
ATOM     11  N   UNL     1      19.959   7.011  27.964  0.00  0.00    -0.131 NA
ATOM     12  C   UNL     1      19.896   7.860  26.889  0.00  0.00    +0.120 A 
ATOM     13  C   UNL     1      19.639   9.133  27.341  0.00  0.00    +0.137 A 
ATOM     14  N   UNL     1      19.539   8.995  28.694  0.00  0.00    -0.242 N 
ATOM     15  N   UNL     1      19.747   7.719  29.067  0.00  0.00    -0.065 NA
BRANCH  14  16
ATOM     16  C   UNL     1      19.368  10.025  29.700  0.00  0.00    +0.241 C 
BRANCH  16  17
ATOM     17  C   UNL     1      18.177   9.752  30.581  0.00  0.00    +0.241 C 
ATOM     18  O   UNL     1      17.179  10.467  30.507  0.00  0.00    -0.273 OA
ATOM     19  N   UNL     1      18.356   8.724  31.482  0.00  0.00    -0.253 N 
ATOM     20  H   UNL     1      19.256   8.302  31.645  0.00  0.00    +0.158 HD
ATOM     21  C   UNL     1      17.376   8.294  32.370  0.00  0.00    +0.221 A 
ATOM     22  N   UNL     1      17.807   7.494  33.357  0.00  0.00    -0.223 NA
ATOM     23  C   UNL     1      16.884   7.128  34.272  0.00  0.00    +0.116 A 
ATOM     24  C   UNL     1      15.563   7.502  34.218  0.00  0.00    +0.039 A 
ATOM     25  C   UNL     1      15.220   8.280  33.144  0.00  0.00    +0.116 A 
ATOM     26  N   UNL     1      16.106   8.681  32.219  0.00  0.00    -0.223 NA
ENDBRANCH  16  17
ENDBRANCH  14  16
ENDBRANCH  10  12
ENDBRANCH   9  10
ENDBRANCH   5   9
ENDBRANCH   4   7
ENDBRANCH   1   4
BRANCH   1  27
ATOM     27  C   UNL     1      18.218   2.176  22.875  0.00  0.00    +0.175 C 
BRANCH  27  28
ATOM     28  C   UNL     1      18.239   0.946  23.794  0.00  0.00    +0.176 C 
ATOM     29  O   UNL     1      17.031   0.178  23.540  0.00  0.00    -0.332 OA
ATOM     30  C   UNL     1      16.928  -1.097  24.256  0.00  0.00    +0.277 C 
ATOM     31  C   UNL     1      17.097  -0.877  25.780  0.00  0.00    +0.110 C 
ATOM     32  C   UNL     1      18.351  -0.037  26.098  0.00  0.00    +0.143 C 
ATOM     33  C   UNL     1      18.358   1.265  25.296  0.00  0.00    +0.133 C 
BRANCH  33  34
ATOM     34  N   UNL     1      19.600   2.016  25.542  0.00  0.00    -0.308 N 
ATOM     35  H   UNL     1      20.459   1.644  25.161  0.00  0.00    +0.149 HD
ATOM     36  C   UNL     1      19.666   3.155  26.235  0.00  0.00    +0.210 C 
ATOM     37  C   UNL     1      18.344   3.681  26.825  0.00  0.00    +0.109 C 
ATOM     38  O   UNL     1      20.718   3.770  26.413  0.00  0.00    -0.276 OA
ENDBRANCH  33  34
BRANCH  30  39
ATOM     39  C   UNL     1      17.995  -2.093  23.758  0.00  0.00    +0.414 C 
ATOM     40  O   UNL     1      18.707  -2.694  24.562  0.00  0.00    -0.240 OA
ATOM     41  O   UNL     1      18.146  -2.295  22.552  0.00  0.00    -0.240 OA
ENDBRANCH  30  39
BRANCH  30  42
ATOM     42  O   UNL     1      15.604  -1.641  24.017  0.00  0.00    -0.343 OA
ATOM     43  C   UNL     1      15.453  -3.047  24.335  0.00  0.00    +0.198 C 
ENDBRANCH  30  42
BRANCH  32  44
ATOM     44  O   UNL     1      18.386   0.269  27.492  0.00  0.00    -0.390 OA
ATOM     45  H   UNL     1      19.184   0.763  27.693  0.00  0.00    +0.210 HD
ENDBRANCH  32  44
ENDBRANCH  27  28
BRANCH  27  46
ATOM     46  O   UNL     1      19.551   2.702  22.719  0.00  0.00    -0.387 OA
ATOM     47  H   UNL     1      19.909   2.423  21.873  0.00  0.00    +0.210 HD
ENDBRANCH  27  46
ENDBRANCH   1  27
TORSDOF 15
