REMARK VINA RESULT:    -6.386      0.000      0.000
REMARK INTER + INTRA:         -14.955
REMARK INTER:                 -13.100
REMARK INTRA:                  -1.855
REMARK UNBOUND:                -2.036
REMARK  Name = lig_assembled_45.pdb
REMARK  24 active torsions:
REMARK  status: ('A' for Active; 'I' for Inactive)
REMARK    1  A    between atoms: _2  and  _10
REMARK    2  A    between atoms: _3  and  _12
REMARK    3  A    between atoms: _3  and  _13
REMARK    4  A    between atoms: _3  and  _14
REMARK    5  A    between atoms: _3  and  _16
REMARK    6  A    between atoms: _5  and  _21
REMARK    7  A    between atoms: _6  and  _16
REMARK    8  A    between atoms: _7  and  _8
REMARK    9  A    between atoms: _7  and  _21
REMARK   10  A    between atoms: _10  and  _11
REMARK   11  A    between atoms: _11  and  _12
REMARK   12  A    between atoms: _14  and  _15
REMARK   13  A    between atoms: _17  and  _37
REMARK   14  A    between atoms: _19  and  _25
REMARK   15  A    between atoms: _20  and  _24
REMARK   16  A    between atoms: _24  and  _25
REMARK   17  A    between atoms: _27  and  _28
REMARK   18  A    between atoms: _29  and  _30
REMARK   19  A    between atoms: _31  and  _33
REMARK   20  A    between atoms: _33  and  _34
REMARK   21  A    between atoms: _33  and  _35
REMARK   22  A    between atoms: _35  and  _36
REMARK   23  A    between atoms: _35  and  _37
REMARK   24  A    between atoms: _38  and  _40
REMARK                            x       y       z     vdW  Elec       q    Type
REMARK                         _______ _______ _______ _____ _____    ______ ____
ROOT
ATOM      1  C   UNL     1       3.505   3.722  32.512  0.00  0.00    +0.163 C 
ENDROOT
BRANCH   1   2
ATOM      2  O   UNL     1       2.635   3.972  33.629  0.00  0.00    -0.388 OA
ATOM      3  H   UNL     1       2.767   4.869  33.943  0.00  0.00    +0.210 HD
ENDBRANCH   1   2
BRANCH   1   4
ATOM      4  C   UNL     1       4.832   3.097  32.977  0.00  0.00    +0.175 C 
BRANCH   4   5
ATOM      5  C   UNL     1       5.365   3.759  34.256  0.00  0.00    +0.176 C 
ATOM      6  O   UNL     1       5.384   5.197  34.041  0.00  0.00    -0.332 OA
ATOM      7  C   UNL     1       5.769   6.007  35.201  0.00  0.00    +0.277 C 
ATOM      8  C   UNL     1       7.138   5.542  35.755  0.00  0.00    +0.110 C 
ATOM      9  C   UNL     1       7.177   4.015  35.970  0.00  0.00    +0.143 C 
ATOM     10  C   UNL     1       6.756   3.271  34.702  0.00  0.00    +0.133 C 
BRANCH  10  11
ATOM     11  N   UNL     1       6.714   1.820  34.946  0.00  0.00    -0.308 N 
ATOM     12  H   UNL     1       6.032   1.473  35.606  0.00  0.00    +0.149 HD
ATOM     13  C   UNL     1       7.516   0.933  34.351  0.00  0.00    +0.210 C 
ATOM     14  C   UNL     1       8.561   1.497  33.370  0.00  0.00    +0.109 C 
ATOM     15  O   UNL     1       7.448  -0.278  34.564  0.00  0.00    -0.276 OA
ENDBRANCH  10  11
BRANCH   7  16
ATOM     16  C   UNL     1       4.704   5.910  36.313  0.00  0.00    +0.414 C 
ATOM     17  O   UNL     1       3.555   5.561  36.043  0.00  0.00    -0.240 OA
ATOM     18  O   UNL     1       4.992   6.181  37.479  0.00  0.00    -0.240 OA
ENDBRANCH   7  16
BRANCH   9  19
ATOM     19  O   UNL     1       8.498   3.613  36.335  0.00  0.00    -0.390 OA
ATOM     20  H   UNL     1       8.755   4.055  37.147  0.00  0.00    +0.210 HD
ENDBRANCH   9  19
BRANCH   7  21
ATOM     21  O   UNL     1       5.896   7.384  34.764  0.00  0.00    -0.343 OA
ATOM     22  C   UNL     1       7.240   7.791  34.403  0.00  0.00    +0.198 C 
ENDBRANCH   7  21
ENDBRANCH   4   5
BRANCH   4  23
ATOM     23  O   UNL     1       5.815   3.181  31.927  0.00  0.00    -0.387 OA
ATOM     24  H   UNL     1       6.658   3.451  32.298  0.00  0.00    +0.210 HD
ENDBRANCH   4  23
ENDBRANCH   1   4
BRANCH   1  25
ATOM     25  C   UNL     1       2.823   2.788  31.518  0.00  0.00    +0.141 C 
BRANCH  25  28
ATOM     26  C   UNL     1       2.138   2.878  29.146  0.00  0.00    +0.401 C 
ATOM     27  O   UNL     1       2.202   1.657  28.984  0.00  0.00    -0.226 OA
ATOM     28  N   UNL     1       2.417   3.493  30.295  0.00  0.00    -0.279 N 
ATOM     29  H   UNL     1       2.345   4.500  30.327  0.00  0.00    +0.152 HD
BRANCH  26  30
ATOM     30  O   UNL     1       1.748   3.704  28.046  0.00  0.00    -0.444 OA
BRANCH  30  31
ATOM     31  C   UNL     1       1.773   2.938  26.839  0.00  0.00    +0.292 C 
BRANCH  31  33
ATOM     32  N   UNL     1       0.617   4.832  25.730  0.00  0.00    -0.131 NA
ATOM     33  C   UNL     1       1.527   3.810  25.675  0.00  0.00    +0.120 A 
ATOM     34  C   UNL     1       2.095   3.781  24.422  0.00  0.00    +0.137 A 
ATOM     35  N   UNL     1       1.485   4.812  23.775  0.00  0.00    -0.251 N 
ATOM     36  N   UNL     1       0.597   5.438  24.550  0.00  0.00    -0.065 NA
BRANCH  35  37
ATOM     37  C   UNL     1       1.691   5.231  22.403  0.00  0.00    +0.150 C 
BRANCH  37  38
ATOM     38  C   UNL     1       1.782   4.061  21.433  0.00  0.00    +0.074 C 
BRANCH  38  39
ATOM     39  C   UNL     1       0.551   3.790  20.558  0.00  0.00    +0.134 C 
BRANCH  39  40
ATOM     40  N   UNL     1       0.781   3.162  19.144  0.00  0.00    +0.241 N 
ATOM     41  C   UNL     1       2.153   3.615  18.618  0.00  0.00    +0.192 C 
BRANCH  40  42
ATOM     42  C   UNL     1      -0.328   3.764  18.218  0.00  0.00    +0.129 C 
ATOM     43  C   UNL     1       0.202   4.733  17.167  0.00  0.00    +0.060 C 
ENDBRANCH  40  42
BRANCH  40  44
ATOM     44  C   UNL     1       0.713   1.624  19.101  0.00  0.00    +0.129 C 
ATOM     45  C   UNL     1       1.195   1.014  17.795  0.00  0.00    +0.060 C 
ENDBRANCH  40  44
ENDBRANCH  39  40
ENDBRANCH  38  39
ENDBRANCH  37  38
ENDBRANCH  35  37
ENDBRANCH  31  33
ENDBRANCH  30  31
ENDBRANCH  26  30
ENDBRANCH  25  28
ENDBRANCH   1  25
TORSDOF 19
