REMARK VINA RESULT:    -6.015      7.929     13.564
REMARK INTER + INTRA:         -12.779
REMARK INTER:                 -10.410
REMARK INTRA:                  -2.370
REMARK UNBOUND:                -2.370
REMARK  Name = lig_assembled_87.pdb
REMARK  17 active torsions:
REMARK  status: ('A' for Active; 'I' for Inactive)
REMARK    1  A    between atoms: _2  and  _10
REMARK    2  A    between atoms: _3  and  _13
REMARK    3  A    between atoms: _5  and  _21
REMARK    4  A    between atoms: _7  and  _8
REMARK    5  A    between atoms: _7  and  _21
REMARK    6  A    between atoms: _17  and  _37
REMARK    7  A    between atoms: _19  and  _25
REMARK    8  A    between atoms: _20  and  _24
REMARK    9  A    between atoms: _24  and  _25
REMARK   10  A    between atoms: _27  and  _28
REMARK   11  A    between atoms: _29  and  _30
REMARK   12  A    between atoms: _31  and  _33
REMARK   13  A    between atoms: _33  and  _34
REMARK   14  A    between atoms: _33  and  _35
REMARK   15  A    between atoms: _35  and  _36
REMARK   16  A    between atoms: _35  and  _37
REMARK   17  A    between atoms: _38  and  _40
REMARK                            x       y       z     vdW  Elec       q    Type
REMARK                         _______ _______ _______ _____ _____    ______ ____
ROOT
ATOM      1  C   UNL     1       8.319   2.534  35.617  0.00  0.00    +0.163 C 
ENDROOT
BRANCH   1   2
ATOM      2  O   UNL     1       8.689   3.194  36.839  0.00  0.00    -0.388 OA
ATOM      3  H   UNL     1       9.128   4.024  36.635  0.00  0.00    +0.210 HD
ENDBRANCH   1   2
BRANCH   1   4
ATOM      4  C   UNL     1       9.306   1.413  35.311  0.00  0.00    +0.141 C 
BRANCH   4   7
ATOM      5  C   UNL     1      11.617   2.287  35.278  0.00  0.00    +0.401 C 
ATOM      6  O   UNL     1      11.742   2.266  36.505  0.00  0.00    -0.226 OA
ATOM      7  N   UNL     1      10.510   1.912  34.635  0.00  0.00    -0.279 N 
ATOM      8  H   UNL     1      10.500   1.974  33.627  0.00  0.00    +0.152 HD
BRANCH   5   9
ATOM      9  O   UNL     1      12.710   2.742  34.476  0.00  0.00    -0.444 OA
BRANCH   9  10
ATOM     10  C   UNL     1      13.909   2.734  35.254  0.00  0.00    +0.292 C 
BRANCH  10  12
ATOM     11  N   UNL     1      13.840   5.149  35.770  0.00  0.00    -0.131 NA
ATOM     12  C   UNL     1      14.518   4.077  35.261  0.00  0.00    +0.120 A 
ATOM     13  C   UNL     1      15.757   4.491  34.827  0.00  0.00    +0.137 A 
ATOM     14  N   UNL     1      15.828   5.804  35.210  0.00  0.00    -0.248 N 
ATOM     15  N   UNL     1      14.625   6.208  35.668  0.00  0.00    -0.065 NA
BRANCH  14  16
ATOM     16  C   UNL     1      16.948   6.762  35.180  0.00  0.00    +0.112 C 
ATOM     17  C   UNL     1      16.598   8.191  35.680  0.00  0.00    +0.045 C 
ATOM     18  C   UNL     1      16.806   9.324  34.661  0.00  0.00    +0.059 C 
ATOM     19  C   UNL     1      18.284   9.720  34.534  0.00  0.00    +0.020 C 
ATOM     20  C   UNL     1      18.793   8.932  33.328  0.00  0.00    +0.020 C 
ATOM     21  C   UNL     1      17.625   8.013  32.969  0.00  0.00    +0.059 C 
ATOM     22  N   UNL     1      16.519   8.908  33.294  0.00  0.00    -0.299 NA
ATOM     23  C   UNL     1      15.177   8.453  33.000  0.00  0.00    +0.105 C 
ATOM     24  C   UNL     1      17.676   6.730  33.801  0.00  0.00    +0.045 C 
ENDBRANCH  14  16
ENDBRANCH  10  12
ENDBRANCH   9  10
ENDBRANCH   5   9
ENDBRANCH   4   7
ENDBRANCH   1   4
BRANCH   1  25
ATOM     25  C   UNL     1       8.290   3.528  34.442  0.00  0.00    +0.175 C 
BRANCH  25  26
ATOM     26  C   UNL     1       7.170   4.568  34.593  0.00  0.00    +0.176 C 
ATOM     27  O   UNL     1       7.566   5.503  35.634  0.00  0.00    -0.332 OA
ATOM     28  C   UNL     1       6.661   6.636  35.847  0.00  0.00    +0.277 C 
ATOM     29  C   UNL     1       5.220   6.135  36.114  0.00  0.00    +0.110 C 
ATOM     30  C   UNL     1       4.766   5.114  35.050  0.00  0.00    +0.143 C 
ATOM     31  C   UNL     1       5.782   3.980  34.909  0.00  0.00    +0.133 C 
BRANCH  31  32
ATOM     32  N   UNL     1       5.382   3.060  33.832  0.00  0.00    -0.308 N 
ATOM     33  H   UNL     1       5.427   3.399  32.881  0.00  0.00    +0.149 HD
ATOM     34  C   UNL     1       4.963   1.807  34.029  0.00  0.00    +0.210 C 
ATOM     35  C   UNL     1       4.882   1.329  35.491  0.00  0.00    +0.109 C 
ATOM     36  O   UNL     1       4.649   1.054  33.107  0.00  0.00    -0.276 OA
ENDBRANCH  31  32
BRANCH  28  37
ATOM     37  C   UNL     1       6.662   7.574  34.621  0.00  0.00    +0.414 C 
ATOM     38  O   UNL     1       5.614   8.088  34.233  0.00  0.00    -0.240 OA
ATOM     39  O   UNL     1       7.710   7.816  34.022  0.00  0.00    -0.240 OA
ENDBRANCH  28  37
BRANCH  30  40
ATOM     40  O   UNL     1       3.499   4.567  35.417  0.00  0.00    -0.390 OA
ATOM     41  H   UNL     1       2.830   5.255  35.380  0.00  0.00    +0.210 HD
ENDBRANCH  30  40
BRANCH  28  42
ATOM     42  O   UNL     1       7.117   7.362  37.017  0.00  0.00    -0.343 OA
ATOM     43  C   UNL     1       8.531   7.228  37.308  0.00  0.00    +0.198 C 
ENDBRANCH  28  42
ENDBRANCH  25  26
BRANCH  25  44
ATOM     44  O   UNL     1       8.143   2.818  33.196  0.00  0.00    -0.387 OA
ATOM     45  H   UNL     1       7.764   3.404  32.536  0.00  0.00    +0.210 HD
ENDBRANCH  25  44
ENDBRANCH   1  25
TORSDOF 14
