REMARK VINA RESULT:    -6.643     13.347     17.807
REMARK INTER + INTRA:         -15.065
REMARK INTER:                 -12.700
REMARK INTRA:                  -2.365
REMARK UNBOUND:                -2.597
REMARK  Name = lig_assembled_77.pdb
REMARK  19 active torsions:
REMARK  status: ('A' for Active; 'I' for Inactive)
REMARK    1  A    between atoms: _2  and  _10
REMARK    2  A    between atoms: _3  and  _17
REMARK    3  A    between atoms: _5  and  _27
REMARK    4  A    between atoms: _7  and  _8
REMARK    5  A    between atoms: _7  and  _27
REMARK    6  A    between atoms: _13  and  _47
REMARK    7  A    between atoms: _14  and  _47
REMARK    8  A    between atoms: _23  and  _43
REMARK    9  A    between atoms: _25  and  _31
REMARK   10  A    between atoms: _26  and  _30
REMARK   11  A    between atoms: _30  and  _31
REMARK   12  A    between atoms: _33  and  _34
REMARK   13  A    between atoms: _35  and  _36
REMARK   14  A    between atoms: _37  and  _39
REMARK   15  A    between atoms: _39  and  _40
REMARK   16  A    between atoms: _39  and  _41
REMARK   17  A    between atoms: _41  and  _42
REMARK   18  A    between atoms: _41  and  _43
REMARK   19  A    between atoms: _44  and  _46
REMARK                            x       y       z     vdW  Elec       q    Type
REMARK                         _______ _______ _______ _____ _____    ______ ____
ROOT
ATOM      1  C   UNL     1      18.706   5.657  23.668  0.00  0.00    +0.401 C 
ATOM      2  O   UNL     1      18.220   6.649  23.120  0.00  0.00    -0.226 OA
ATOM      3  N   UNL     1      18.282   4.410  23.463  0.00  0.00    -0.279 N 
ATOM      4  H   UNL     1      18.752   3.660  23.952  0.00  0.00    +0.152 HD
ENDROOT
BRANCH   3   5
ATOM      5  C   UNL     1      17.171   4.064  22.568  0.00  0.00    +0.141 C 
BRANCH   5   6
ATOM      6  C   UNL     1      16.687   2.634  22.789  0.00  0.00    +0.163 C 
BRANCH   6   7
ATOM      7  O   UNL     1      17.198   1.777  21.756  0.00  0.00    -0.388 OA
ATOM      8  H   UNL     1      18.048   1.420  22.027  0.00  0.00    +0.210 HD
ENDBRANCH   6   7
BRANCH   6   9
ATOM      9  C   UNL     1      17.134   2.149  24.179  0.00  0.00    +0.175 C 
BRANCH   9  10
ATOM     10  C   UNL     1      17.898   0.819  24.109  0.00  0.00    +0.176 C 
ATOM     11  O   UNL     1      16.944  -0.227  23.772  0.00  0.00    -0.332 OA
ATOM     12  C   UNL     1      17.515  -1.560  23.557  0.00  0.00    +0.277 C 
ATOM     13  C   UNL     1      18.356  -1.993  24.783  0.00  0.00    +0.110 C 
ATOM     14  C   UNL     1      19.362  -0.899  25.198  0.00  0.00    +0.143 C 
ATOM     15  C   UNL     1      18.662   0.446  25.392  0.00  0.00    +0.133 C 
BRANCH  15  16
ATOM     16  N   UNL     1      19.644   1.497  25.702  0.00  0.00    -0.308 N 
ATOM     17  H   UNL     1      20.399   1.645  25.048  0.00  0.00    +0.149 HD
ATOM     18  C   UNL     1      19.601   2.269  26.792  0.00  0.00    +0.210 C 
ATOM     19  C   UNL     1      18.453   2.001  27.783  0.00  0.00    +0.109 C 
ATOM     20  O   UNL     1      20.429   3.152  27.019  0.00  0.00    -0.276 OA
ENDBRANCH  15  16
BRANCH  12  21
ATOM     21  C   UNL     1      18.400  -1.578  22.293  0.00  0.00    +0.414 C 
ATOM     22  O   UNL     1      19.215  -2.483  22.119  0.00  0.00    -0.240 OA
ATOM     23  O   UNL     1      18.298  -0.689  21.447  0.00  0.00    -0.240 OA
ENDBRANCH  12  21
BRANCH  14  24
ATOM     24  O   UNL     1      20.006  -1.275  26.416  0.00  0.00    -0.390 OA
ATOM     25  H   UNL     1      20.801  -1.776  26.218  0.00  0.00    +0.210 HD
ENDBRANCH  14  24
BRANCH  12  26
ATOM     26  O   UNL     1      16.419  -2.497  23.399  0.00  0.00    -0.343 OA
ATOM     27  C   UNL     1      15.654  -2.752  24.604  0.00  0.00    +0.198 C 
ENDBRANCH  12  26
ENDBRANCH   9  10
BRANCH   9  28
ATOM     28  O   UNL     1      15.993   2.022  25.051  0.00  0.00    -0.387 OA
ATOM     29  H   UNL     1      15.620   2.890  25.220  0.00  0.00    +0.210 HD
ENDBRANCH   9  28
ENDBRANCH   6   9
ENDBRANCH   5   6
ENDBRANCH   3   5
BRANCH   1  30
ATOM     30  O   UNL     1      19.795   5.831  24.578  0.00  0.00    -0.444 OA
BRANCH  30  31
ATOM     31  C   UNL     1      20.402   7.107  24.360  0.00  0.00    +0.292 C 
BRANCH  31  33
ATOM     32  N   UNL     1      21.306   8.877  25.831  0.00  0.00    -0.131 NA
ATOM     33  C   UNL     1      20.371   7.912  25.596  0.00  0.00    +0.121 A 
ATOM     34  C   UNL     1      19.492   7.871  26.654  0.00  0.00    +0.143 A 
ATOM     35  N   UNL     1      19.930   8.849  27.518  0.00  0.00    -0.220 N 
ATOM     36  N   UNL     1      21.038   9.435  27.003  0.00  0.00    -0.060 NA
BRANCH  35  37
ATOM     37  C   UNL     1      19.345   9.291  28.734  0.00  0.00    +0.067 A 
ATOM     38  C   UNL     1      19.630   8.644  29.947  0.00  0.00    +0.030 A 
ATOM     39  C   UNL     1      18.954   9.014  31.114  0.00  0.00    +0.029 A 
ATOM     40  C   UNL     1      17.998  10.031  31.067  0.00  0.00    +0.094 A 
ATOM     41  C   UNL     1      17.773  10.743  29.886  0.00  0.00    +0.029 A 
ATOM     42  C   UNL     1      18.437  10.364  28.716  0.00  0.00    +0.030 A 
BRANCH  40  43
ATOM     43  S   UNL     1      17.087  10.453  32.539  0.00  0.00    +0.025 S 
ATOM     44  O   UNL     1      18.030  11.120  33.421  0.00  0.00    -0.164 OA
ATOM     45  O   UNL     1      15.869  11.119  32.119  0.00  0.00    -0.164 OA
BRANCH  43  46
ATOM     46  C   UNL     1      16.582   8.952  33.355  0.00  0.00    +0.094 A 
ATOM     47  C   UNL     1      16.047   7.886  32.631  0.00  0.00    +0.029 A 
ATOM     48  C   UNL     1      15.603   6.746  33.311  0.00  0.00    +0.024 A 
ATOM     49  C   UNL     1      15.731   6.638  34.703  0.00  0.00    +0.025 A 
ATOM     50  C   UNL     1      16.242   7.729  35.414  0.00  0.00    +0.024 A 
ATOM     51  C   UNL     1      16.687   8.874  34.747  0.00  0.00    +0.029 A 
BRANCH  49  52
ATOM     52  N   UNL     1      15.132   5.576  35.384  0.00  0.00    -0.358 N 
ATOM     53  H   UNL     1      14.117   5.574  35.361  0.00  0.00    +0.142 HD
ATOM     54  H   UNL     1      15.527   4.666  35.173  0.00  0.00    +0.142 HD
ENDBRANCH  49  52
ENDBRANCH  43  46
ENDBRANCH  40  43
ENDBRANCH  35  37
ENDBRANCH  31  33
ENDBRANCH  30  31
ENDBRANCH   1  30
TORSDOF 17
