REMARK VINA RESULT:    -6.319      7.566     13.221
REMARK INTER + INTRA:         -14.238
REMARK INTER:                 -12.321
REMARK INTRA:                  -1.917
REMARK UNBOUND:                -2.378
REMARK  Name = lig_assembled_68.pdb
REMARK  19 active torsions:
REMARK  status: ('A' for Active; 'I' for Inactive)
REMARK    1  A    between atoms: _2  and  _9
REMARK    2  A    between atoms: _4  and  _21
REMARK    3  A    between atoms: _6  and  _7
REMARK    4  A    between atoms: _6  and  _21
REMARK    5  A    between atoms: _9  and  _10
REMARK    6  A    between atoms: _10  and  _11
REMARK    7  A    between atoms: _10  and  _16
REMARK    8  A    between atoms: _17  and  _37
REMARK    9  A    between atoms: _19  and  _25
REMARK   10  A    between atoms: _20  and  _24
REMARK   11  A    between atoms: _24  and  _25
REMARK   12  A    between atoms: _27  and  _28
REMARK   13  A    between atoms: _29  and  _30
REMARK   14  A    between atoms: _31  and  _33
REMARK   15  A    between atoms: _33  and  _34
REMARK   16  A    between atoms: _33  and  _35
REMARK   17  A    between atoms: _35  and  _36
REMARK   18  A    between atoms: _35  and  _37
REMARK   19  A    between atoms: _38  and  _40
REMARK                            x       y       z     vdW  Elec       q    Type
REMARK                         _______ _______ _______ _____ _____    ______ ____
ROOT
ATOM      1  C   UNL     1       7.285   2.453  34.385  0.00  0.00    +0.163 C 
ENDROOT
BRANCH   1   2
ATOM      2  O   UNL     1       7.304   2.472  35.822  0.00  0.00    -0.388 OA
ATOM      3  H   UNL     1       6.798   3.224  36.139  0.00  0.00    +0.210 HD
ENDBRANCH   1   2
BRANCH   1   4
ATOM      4  C   UNL     1       7.738   3.807  33.811  0.00  0.00    +0.175 C 
BRANCH   4   5
ATOM      5  C   UNL     1       7.113   4.992  34.563  0.00  0.00    +0.176 C 
ATOM      6  O   UNL     1       7.817   5.142  35.826  0.00  0.00    -0.332 OA
ATOM      7  C   UNL     1       7.424   6.297  36.638  0.00  0.00    +0.277 C 
ATOM      8  C   UNL     1       5.896   6.287  36.889  0.00  0.00    +0.110 C 
ATOM      9  C   UNL     1       5.104   6.097  35.578  0.00  0.00    +0.143 C 
ATOM     10  C   UNL     1       5.598   4.869  34.812  0.00  0.00    +0.133 C 
BRANCH  10  11
ATOM     11  N   UNL     1       4.896   4.749  33.524  0.00  0.00    -0.308 N 
ATOM     12  H   UNL     1       5.098   5.436  32.811  0.00  0.00    +0.149 HD
ATOM     13  C   UNL     1       4.010   3.792  33.236  0.00  0.00    +0.210 C 
ATOM     14  C   UNL     1       3.705   2.776  34.353  0.00  0.00    +0.109 C 
ATOM     15  O   UNL     1       3.449   3.707  32.143  0.00  0.00    -0.276 OA
ENDBRANCH  10  11
BRANCH   7  16
ATOM     16  C   UNL     1       7.823   7.616  35.943  0.00  0.00    +0.414 C 
ATOM     17  O   UNL     1       7.779   7.708  34.717  0.00  0.00    -0.240 OA
ATOM     18  O   UNL     1       8.189   8.586  36.608  0.00  0.00    -0.240 OA
ENDBRANCH   7  16
BRANCH   7  19
ATOM     19  O   UNL     1       8.098   6.197  37.919  0.00  0.00    -0.343 OA
ATOM     20  C   UNL     1       7.221   6.185  39.073  0.00  0.00    +0.198 C 
ENDBRANCH   7  19
BRANCH   9  21
ATOM     21  O   UNL     1       3.715   5.942  35.871  0.00  0.00    -0.390 OA
ATOM     22  H   UNL     1       3.476   6.518  36.601  0.00  0.00    +0.210 HD
ENDBRANCH   9  21
ENDBRANCH   4   5
BRANCH   4  23
ATOM     23  O   UNL     1       7.417   3.884  32.408  0.00  0.00    -0.387 OA
ATOM     24  H   UNL     1       8.150   4.283  31.933  0.00  0.00    +0.210 HD
ENDBRANCH   4  23
ENDBRANCH   1   4
BRANCH   1  25
ATOM     25  C   UNL     1       8.199   1.349  33.866  0.00  0.00    +0.141 C 
BRANCH  25  28
ATOM     26  C   UNL     1      10.438   1.617  34.877  0.00  0.00    +0.401 C 
ATOM     27  O   UNL     1      10.111   1.124  35.959  0.00  0.00    -0.226 OA
ATOM     28  N   UNL     1       9.606   1.767  33.845  0.00  0.00    -0.279 N 
ATOM     29  H   UNL     1       9.965   2.192  33.002  0.00  0.00    +0.152 HD
BRANCH  26  30
ATOM     30  O   UNL     1      11.783   2.068  34.697  0.00  0.00    -0.444 OA
BRANCH  30  31
ATOM     31  C   UNL     1      12.241   2.697  35.896  0.00  0.00    +0.292 C 
BRANCH  31  33
ATOM     32  N   UNL     1      13.806   3.845  34.353  0.00  0.00    -0.131 NA
ATOM     33  C   UNL     1      13.201   3.769  35.582  0.00  0.00    +0.120 A 
ATOM     34  C   UNL     1      13.654   4.802  36.369  0.00  0.00    +0.137 A 
ATOM     35  N   UNL     1      14.523   5.475  35.561  0.00  0.00    -0.249 N 
ATOM     36  N   UNL     1      14.621   4.892  34.354  0.00  0.00    -0.065 NA
BRANCH  35  37
ATOM     37  C   UNL     1      15.359   6.606  35.905  0.00  0.00    +0.181 C 
BRANCH  37  38
ATOM     38  C   UNL     1      15.920   7.310  34.663  0.00  0.00    +0.166 C 
BRANCH  38  39
ATOM     39  C   UNL     1      16.677   8.597  34.960  0.00  0.00    -0.017 A 
ATOM     40  C   UNL     1      17.929   8.518  35.597  0.00  0.00    +0.006 A 
ATOM     41  C   UNL     1      18.669   9.672  35.865  0.00  0.00    +0.000 A 
ATOM     42  C   UNL     1      18.174  10.919  35.496  0.00  0.00    +0.000 A 
ATOM     43  C   UNL     1      16.948  11.015  34.849  0.00  0.00    +0.000 A 
ATOM     44  C   UNL     1      16.205   9.862  34.578  0.00  0.00    +0.006 A 
ENDBRANCH  38  39
BRANCH  38  45
ATOM     45  O   UNL     1      14.839   7.628  33.779  0.00  0.00    -0.385 OA
ATOM     46  H   UNL     1      14.010   7.572  34.280  0.00  0.00    +0.210 HD
ENDBRANCH  38  45
ENDBRANCH  37  38
ENDBRANCH  35  37
ENDBRANCH  31  33
ENDBRANCH  30  31
ENDBRANCH  26  30
ENDBRANCH  25  28
ENDBRANCH   1  25
TORSDOF 17
