REMARK VINA RESULT:    -6.335      1.593      2.227
REMARK INTER + INTRA:         -13.100
REMARK INTER:                 -11.141
REMARK INTRA:                  -1.958
REMARK UNBOUND:                -2.135
REMARK  Name = lig_assembled_51.pdb
REMARK  16 active torsions:
REMARK  status: ('A' for Active; 'I' for Inactive)
REMARK    1  A    between atoms: _2  and  _9
REMARK    2  A    between atoms: _4  and  _22
REMARK    3  A    between atoms: _6  and  _7
REMARK    4  A    between atoms: _6  and  _22
REMARK    5  A    between atoms: _18  and  _38
REMARK    6  A    between atoms: _20  and  _26
REMARK    7  A    between atoms: _21  and  _25
REMARK    8  A    between atoms: _25  and  _26
REMARK    9  A    between atoms: _28  and  _29
REMARK   10  A    between atoms: _30  and  _31
REMARK   11  A    between atoms: _32  and  _34
REMARK   12  A    between atoms: _34  and  _35
REMARK   13  A    between atoms: _34  and  _36
REMARK   14  A    between atoms: _36  and  _37
REMARK   15  A    between atoms: _36  and  _38
REMARK   16  A    between atoms: _39  and  _41
REMARK                            x       y       z     vdW  Elec       q    Type
REMARK                         _______ _______ _______ _____ _____    ______ ____
ROOT
ATOM      1  C   UNL     1       2.282   3.645  33.043  0.00  0.00    +0.163 C 
ENDROOT
BRANCH   1   2
ATOM      2  O   UNL     1       1.681   3.656  34.348  0.00  0.00    -0.388 OA
ATOM      3  H   UNL     1       1.613   4.561  34.662  0.00  0.00    +0.210 HD
ENDBRANCH   1   2
BRANCH   1   4
ATOM      4  C   UNL     1       1.487   2.736  32.110  0.00  0.00    +0.141 C 
BRANCH   4   7
ATOM      5  C   UNL     1       2.255   2.631  29.764  0.00  0.00    +0.401 C 
ATOM      6  O   UNL     1       2.979   1.649  29.947  0.00  0.00    -0.226 OA
ATOM      7  N   UNL     1       1.528   3.209  30.721  0.00  0.00    -0.279 N 
ATOM      8  H   UNL     1       0.973   4.016  30.476  0.00  0.00    +0.152 HD
BRANCH   5   9
ATOM      9  O   UNL     1       2.180   3.205  28.457  0.00  0.00    -0.444 OA
BRANCH   9  10
ATOM     10  C   UNL     1       1.759   2.209  27.521  0.00  0.00    +0.292 C 
BRANCH  10  12
ATOM     11  N   UNL     1       2.292   3.989  25.886  0.00  0.00    -0.131 NA
ATOM     12  C   UNL     1       1.772   2.752  26.151  0.00  0.00    +0.120 A 
ATOM     13  C   UNL     1       1.314   2.198  24.977  0.00  0.00    +0.137 A 
ATOM     14  N   UNL     1       1.579   3.147  24.029  0.00  0.00    -0.245 N 
ATOM     15  N   UNL     1       2.169   4.220  24.586  0.00  0.00    -0.065 NA
BRANCH  14  16
ATOM     16  C   UNL     1       1.285   3.087  22.595  0.00  0.00    +0.066 C 
ATOM     17  C   UNL     1       1.884   1.791  21.982  0.00  0.00    +0.034 C 
ATOM     18  C   UNL     1       1.547   1.685  20.485  0.00  0.00    -0.008 C 
ATOM     19  C   UNL     1       0.019   1.677  20.309  0.00  0.00    +0.007 C 
ATOM     20  C   UNL     1      -0.585   2.975  20.870  0.00  0.00    -0.008 C 
ATOM     21  C   UNL     1       0.017   4.178  20.128  0.00  0.00    +0.007 C 
ATOM     22  C   UNL     1       1.543   4.195  20.309  0.00  0.00    -0.008 C 
ATOM     23  C   UNL     1       2.136   2.895  19.745  0.00  0.00    +0.007 C 
ATOM     24  C   UNL     1      -0.252   3.083  22.368  0.00  0.00    +0.034 C 
ATOM     25  C   UNL     1       1.875   4.297  21.808  0.00  0.00    +0.034 C 
ENDBRANCH  14  16
ENDBRANCH  10  12
ENDBRANCH   9  10
ENDBRANCH   5   9
ENDBRANCH   4   7
ENDBRANCH   1   4
BRANCH   1  26
ATOM     26  C   UNL     1       3.740   3.159  33.113  0.00  0.00    +0.175 C 
BRANCH  26  27
ATOM     27  C   UNL     1       4.447   3.635  34.391  0.00  0.00    +0.176 C 
ATOM     28  O   UNL     1       4.663   5.068  34.275  0.00  0.00    -0.332 OA
ATOM     29  C   UNL     1       5.237   5.720  35.456  0.00  0.00    +0.277 C 
ATOM     30  C   UNL     1       6.556   5.024  35.872  0.00  0.00    +0.110 C 
ATOM     31  C   UNL     1       6.383   3.494  35.978  0.00  0.00    +0.143 C 
ATOM     32  C   UNL     1       5.776   2.921  34.696  0.00  0.00    +0.133 C 
BRANCH  32  33
ATOM     33  N   UNL     1       5.536   1.476  34.841  0.00  0.00    -0.308 N 
ATOM     34  H   UNL     1       4.855   1.178  35.526  0.00  0.00    +0.149 HD
ATOM     35  C   UNL     1       6.158   0.534  34.128  0.00  0.00    +0.210 C 
ATOM     36  C   UNL     1       7.209   1.020  33.112  0.00  0.00    +0.109 C 
ATOM     37  O   UNL     1       5.926  -0.668  34.261  0.00  0.00    -0.276 OA
ENDBRANCH  32  33
BRANCH  29  38
ATOM     38  C   UNL     1       4.242   5.688  36.635  0.00  0.00    +0.414 C 
ATOM     39  O   UNL     1       4.652   5.752  37.794  0.00  0.00    -0.240 OA
ATOM     40  O   UNL     1       3.032   5.599  36.429  0.00  0.00    -0.240 OA
ENDBRANCH  29  38
BRANCH  31  41
ATOM     41  O   UNL     1       7.651   2.881  36.213  0.00  0.00    -0.390 OA
ATOM     42  H   UNL     1       8.271   3.540  36.534  0.00  0.00    +0.210 HD
ENDBRANCH  31  41
BRANCH  29  43
ATOM     43  O   UNL     1       5.537   7.097  35.108  0.00  0.00    -0.343 OA
ATOM     44  C   UNL     1       6.660   7.269  34.208  0.00  0.00    +0.198 C 
ENDBRANCH  29  43
ENDBRANCH  26  27
BRANCH  26  45
ATOM     45  O   UNL     1       4.467   3.601  31.950  0.00  0.00    -0.387 OA
ATOM     46  H   UNL     1       5.231   4.115  32.225  0.00  0.00    +0.210 HD
ENDBRANCH  26  45
ENDBRANCH   1  26
TORSDOF 14
