REMARK VINA RESULT:    -7.134     11.418     18.062
REMARK INTER + INTRA:         -14.339
REMARK INTER:                 -11.957
REMARK INTRA:                  -2.382
REMARK UNBOUND:                -1.992
REMARK  Name = lig_assembled_25.pdb
REMARK  16 active torsions:
REMARK  status: ('A' for Active; 'I' for Inactive)
REMARK    1  A    between atoms: _2  and  _9
REMARK    2  A    between atoms: _4  and  _25
REMARK    3  A    between atoms: _6  and  _7
REMARK    4  A    between atoms: _6  and  _25
REMARK    5  A    between atoms: _21  and  _41
REMARK    6  A    between atoms: _23  and  _29
REMARK    7  A    between atoms: _24  and  _28
REMARK    8  A    between atoms: _28  and  _29
REMARK    9  A    between atoms: _31  and  _32
REMARK   10  A    between atoms: _33  and  _34
REMARK   11  A    between atoms: _35  and  _37
REMARK   12  A    between atoms: _37  and  _38
REMARK   13  A    between atoms: _37  and  _39
REMARK   14  A    between atoms: _39  and  _40
REMARK   15  A    between atoms: _39  and  _41
REMARK   16  A    between atoms: _42  and  _44
REMARK                            x       y       z     vdW  Elec       q    Type
REMARK                         _______ _______ _______ _____ _____    ______ ____
ROOT
ATOM      1  C   UNL     1      -2.716   7.005  13.658  0.00  0.00    +0.141 C 
ENDROOT
BRANCH   1   4
ATOM      2  C   UNL     1      -3.158   6.401  16.013  0.00  0.00    +0.401 C 
ATOM      3  O   UNL     1      -4.385   6.418  15.885  0.00  0.00    -0.226 OA
ATOM      4  N   UNL     1      -2.302   6.669  15.026  0.00  0.00    -0.279 N 
ATOM      5  H   UNL     1      -1.313   6.638  15.231  0.00  0.00    +0.152 HD
BRANCH   2   6
ATOM      6  O   UNL     1      -2.597   6.081  17.288  0.00  0.00    -0.444 OA
BRANCH   6   7
ATOM      7  C   UNL     1      -1.260   5.602  17.116  0.00  0.00    +0.292 C 
BRANCH   7   9
ATOM      8  N   UNL     1      -1.688   4.640  19.350  0.00  0.00    -0.131 NA
ATOM      9  C   UNL     1      -0.840   4.813  18.290  0.00  0.00    +0.120 A 
ATOM     10  C   UNL     1       0.351   4.176  18.556  0.00  0.00    +0.138 A 
ATOM     11  N   UNL     1       0.177   3.647  19.804  0.00  0.00    -0.240 N 
ATOM     12  N   UNL     1      -1.060   3.923  20.271  0.00  0.00    -0.064 NA
BRANCH  11  13
ATOM     13  C   UNL     1       1.120   2.952  20.664  0.00  0.00    +0.170 C 
ATOM     14  C   UNL     1       0.626   1.571  21.073  0.00  0.00    -0.011 A 
ATOM     15  C   UNL     1       0.611   1.461  22.481  0.00  0.00    -0.012 A 
ATOM     16  C   UNL     1       1.057   2.715  23.055  0.00  0.00    -0.012 A 
ATOM     17  C   UNL     1       1.244   3.078  24.379  0.00  0.00    +0.009 A 
ATOM     18  C   UNL     1       1.720   4.363  24.655  0.00  0.00    +0.001 A 
ATOM     19  C   UNL     1       1.998   5.267  23.615  0.00  0.00    +0.000 A 
ATOM     20  C   UNL     1       1.810   4.903  22.279  0.00  0.00    +0.006 A 
ATOM     21  C   UNL     1       0.218   0.281  23.089  0.00  0.00    +0.009 A 
ATOM     22  C   UNL     1      -0.161  -0.793  22.276  0.00  0.00    +0.001 A 
ATOM     23  C   UNL     1      -0.142  -0.680  20.877  0.00  0.00    +0.000 A 
ATOM     24  C   UNL     1       0.257   0.507  20.260  0.00  0.00    +0.006 A 
ATOM     25  C   UNL     1       1.337   3.627  22.012  0.00  0.00    -0.011 A 
ENDBRANCH  11  13
ENDBRANCH   7   9
ENDBRANCH   6   7
ENDBRANCH   2   6
ENDBRANCH   1   4
BRANCH   1  26
ATOM     26  C   UNL     1      -2.190   8.370  13.224  0.00  0.00    +0.163 C 
BRANCH  26  27
ATOM     27  O   UNL     1      -2.327   8.520  11.802  0.00  0.00    -0.388 OA
ATOM     28  H   UNL     1      -2.615   7.688  11.418  0.00  0.00    +0.210 HD
ENDBRANCH  26  27
BRANCH  26  29
ATOM     29  C   UNL     1      -2.955   9.476  13.971  0.00  0.00    +0.175 C 
BRANCH  29  30
ATOM     30  C   UNL     1      -3.179  10.717  13.093  0.00  0.00    +0.176 C 
ATOM     31  O   UNL     1      -1.899  11.091  12.514  0.00  0.00    -0.332 OA
ATOM     32  C   UNL     1      -1.936  12.200  11.556  0.00  0.00    +0.277 C 
ATOM     33  C   UNL     1      -2.606  13.443  12.193  0.00  0.00    +0.110 C 
ATOM     34  C   UNL     1      -3.956  13.088  12.850  0.00  0.00    +0.143 C 
ATOM     35  C   UNL     1      -3.802  11.920  13.825  0.00  0.00    +0.133 C 
BRANCH  35  36
ATOM     36  N   UNL     1      -5.109  11.535  14.379  0.00  0.00    -0.308 N 
ATOM     37  H   UNL     1      -5.789  11.133  13.749  0.00  0.00    +0.149 HD
ATOM     38  C   UNL     1      -5.457  11.681  15.661  0.00  0.00    +0.210 C 
ATOM     39  C   UNL     1      -4.408  12.320  16.591  0.00  0.00    +0.109 C 
ATOM     40  O   UNL     1      -6.554  11.335  16.100  0.00  0.00    -0.276 OA
ENDBRANCH  35  36
BRANCH  32  41
ATOM     41  C   UNL     1      -2.706  11.797  10.282  0.00  0.00    +0.414 C 
ATOM     42  O   UNL     1      -3.533  12.563   9.787  0.00  0.00    -0.240 OA
ATOM     43  O   UNL     1      -2.502  10.706   9.748  0.00  0.00    -0.240 OA
ENDBRANCH  32  41
BRANCH  34  44
ATOM     44  O   UNL     1      -4.464  14.223  13.553  0.00  0.00    -0.390 OA
ATOM     45  H   UNL     1      -3.968  15.005  13.298  0.00  0.00    +0.210 HD
ENDBRANCH  34  44
BRANCH  32  46
ATOM     46  O   UNL     1      -0.569  12.544  11.213  0.00  0.00    -0.343 OA
ATOM     47  C   UNL     1      -0.416  13.780  10.471  0.00  0.00    +0.198 C 
ENDBRANCH  32  46
ENDBRANCH  29  30
BRANCH  29  48
ATOM     48  O   UNL     1      -2.252   9.840  15.175  0.00  0.00    -0.387 OA
ATOM     49  H   UNL     1      -2.833  10.353  15.742  0.00  0.00    +0.210 HD
ENDBRANCH  29  48
ENDBRANCH  26  29
ENDBRANCH   1  26
TORSDOF 14
