REMARK VINA RESULT:    -5.635     15.336     18.260
REMARK INTER + INTRA:         -12.244
REMARK INTER:                  -9.605
REMARK INTRA:                  -2.639
REMARK UNBOUND:                -2.491
REMARK  Name = lig_assembled_57.pdb
REMARK  17 active torsions:
REMARK  status: ('A' for Active; 'I' for Inactive)
REMARK    1  A    between atoms: _2  and  _10
REMARK    2  A    between atoms: _3  and  _13
REMARK    3  A    between atoms: _5  and  _19
REMARK    4  A    between atoms: _7  and  _8
REMARK    5  A    between atoms: _7  and  _19
REMARK    6  A    between atoms: _15  and  _35
REMARK    7  A    between atoms: _17  and  _23
REMARK    8  A    between atoms: _18  and  _22
REMARK    9  A    between atoms: _22  and  _23
REMARK   10  A    between atoms: _25  and  _26
REMARK   11  A    between atoms: _27  and  _28
REMARK   12  A    between atoms: _29  and  _31
REMARK   13  A    between atoms: _31  and  _32
REMARK   14  A    between atoms: _31  and  _33
REMARK   15  A    between atoms: _33  and  _34
REMARK   16  A    between atoms: _33  and  _35
REMARK   17  A    between atoms: _36  and  _38
REMARK                            x       y       z     vdW  Elec       q    Type
REMARK                         _______ _______ _______ _____ _____    ______ ____
ROOT
ATOM      1  C   UNL     1      17.033   1.612  26.788  0.00  0.00    +0.163 C 
ENDROOT
BRANCH   1   2
ATOM      2  O   UNL     1      17.264   2.824  26.051  0.00  0.00    -0.388 OA
ATOM      3  H   UNL     1      16.443   3.318  25.981  0.00  0.00    +0.210 HD
ENDBRANCH   1   2
BRANCH   1   4
ATOM      4  C   UNL     1      18.294   1.216  27.549  0.00  0.00    +0.141 C 
BRANCH   4   7
ATOM      5  C   UNL     1      19.848   2.844  28.570  0.00  0.00    +0.401 C 
ATOM      6  O   UNL     1      19.523   2.570  29.728  0.00  0.00    -0.226 OA
ATOM      7  N   UNL     1      19.320   2.265  27.491  0.00  0.00    -0.279 N 
ATOM      8  H   UNL     1      19.645   2.564  26.582  0.00  0.00    +0.152 HD
BRANCH   5   9
ATOM      9  O   UNL     1      20.846   3.843  28.347  0.00  0.00    -0.444 OA
BRANCH   9  10
ATOM     10  C   UNL     1      21.001   4.058  26.941  0.00  0.00    +0.292 C 
BRANCH  10  12
ATOM     11  N   UNL     1      19.083   5.466  26.281  0.00  0.00    -0.131 NA
ATOM     12  C   UNL     1      20.415   5.356  26.561  0.00  0.00    +0.120 A 
ATOM     13  C   UNL     1      21.003   6.598  26.448  0.00  0.00    +0.137 A 
ATOM     14  N   UNL     1      19.962   7.437  26.184  0.00  0.00    -0.248 N 
ATOM     15  N   UNL     1      18.822   6.735  26.013  0.00  0.00    -0.065 NA
BRANCH  14  16
ATOM     16  C   UNL     1      19.895   8.893  26.129  0.00  0.00    +0.111 C 
ATOM     17  C   UNL     1      18.714   9.415  26.961  0.00  0.00    +0.042 C 
ATOM     18  C   UNL     1      19.023   9.312  28.453  0.00  0.00    +0.086 C 
ATOM     19  N   UNL     1      20.221  10.063  28.842  0.00  0.00    -0.305 NA
ATOM     20  C   UNL     1      21.397   9.692  28.054  0.00  0.00    +0.086 C 
ATOM     21  C   UNL     1      19.987  11.504  28.869  0.00  0.00    +0.104 C 
ATOM     22  C   UNL     1      21.172   9.647  26.535  0.00  0.00    +0.042 C 
ENDBRANCH  14  16
ENDBRANCH  10  12
ENDBRANCH   9  10
ENDBRANCH   5   9
ENDBRANCH   4   7
ENDBRANCH   1   4
BRANCH   1  23
ATOM     23  C   UNL     1      16.619   0.467  25.848  0.00  0.00    +0.175 C 
BRANCH  23  24
ATOM     24  C   UNL     1      17.572   0.328  24.652  0.00  0.00    +0.176 C 
ATOM     25  O   UNL     1      17.287   1.412  23.725  0.00  0.00    -0.332 OA
ATOM     26  C   UNL     1      18.177   1.503  22.564  0.00  0.00    +0.277 C 
ATOM     27  C   UNL     1      18.210   0.156  21.800  0.00  0.00    +0.110 C 
ATOM     28  C   UNL     1      18.478  -1.030  22.749  0.00  0.00    +0.143 C 
ATOM     29  C   UNL     1      17.498  -1.027  23.923  0.00  0.00    +0.133 C 
BRANCH  29  30
ATOM     30  N   UNL     1      17.818  -2.110  24.865  0.00  0.00    -0.308 N 
ATOM     31  H   UNL     1      18.724  -2.094  25.312  0.00  0.00    +0.149 HD
ATOM     32  C   UNL     1      16.990  -3.114  25.168  0.00  0.00    +0.210 C 
ATOM     33  C   UNL     1      15.627  -3.124  24.450  0.00  0.00    +0.109 C 
ATOM     34  O   UNL     1      17.280  -4.000  25.973  0.00  0.00    -0.276 OA
ENDBRANCH  29  30
BRANCH  26  35
ATOM     35  C   UNL     1      19.608   1.883  22.999  0.00  0.00    +0.414 C 
ATOM     36  O   UNL     1      20.558   1.697  22.240  0.00  0.00    -0.240 OA
ATOM     37  O   UNL     1      19.812   2.377  24.109  0.00  0.00    -0.240 OA
ENDBRANCH  26  35
BRANCH  28  38
ATOM     38  O   UNL     1      18.350  -2.259  22.033  0.00  0.00    -0.390 OA
ATOM     39  H   UNL     1      17.672  -2.801  22.444  0.00  0.00    +0.210 HD
ENDBRANCH  28  38
BRANCH  26  40
ATOM     40  O   UNL     1      17.651   2.521  21.674  0.00  0.00    -0.343 OA
ATOM     41  C   UNL     1      16.602   3.346  22.240  0.00  0.00    +0.198 C 
ENDBRANCH  26  40
ENDBRANCH  23  24
BRANCH  23  42
ATOM     42  O   UNL     1      15.268   0.667  25.386  0.00  0.00    -0.387 OA
ATOM     43  H   UNL     1      14.775   1.162  26.045  0.00  0.00    +0.210 HD
ENDBRANCH  23  42
ENDBRANCH   1  23
TORSDOF 14
