REMARK VINA RESULT:    -5.716     18.044     22.278
REMARK INTER + INTRA:         -13.545
REMARK INTER:                  -9.900
REMARK INTRA:                  -3.645
REMARK UNBOUND:                -1.813
REMARK  Name = lig_assembled_33.pdb
REMARK  22 active torsions:
REMARK  status: ('A' for Active; 'I' for Inactive)
REMARK    1  A    between atoms: _2  and  _9
REMARK    2  A    between atoms: _4  and  _20
REMARK    3  A    between atoms: _5  and  _13
REMARK    4  A    between atoms: _5  and  _14
REMARK    5  A    between atoms: _6  and  _7
REMARK    6  A    between atoms: _6  and  _20
REMARK    7  A    between atoms: _9  and  _10
REMARK    8  A    between atoms: _10  and  _11
REMARK    9  A    between atoms: _11  and  _12
REMARK   10  A    between atoms: _12  and  _13
REMARK   11  A    between atoms: _16  and  _36
REMARK   12  A    between atoms: _18  and  _24
REMARK   13  A    between atoms: _19  and  _23
REMARK   14  A    between atoms: _23  and  _24
REMARK   15  A    between atoms: _26  and  _27
REMARK   16  A    between atoms: _28  and  _29
REMARK   17  A    between atoms: _30  and  _32
REMARK   18  A    between atoms: _32  and  _33
REMARK   19  A    between atoms: _32  and  _34
REMARK   20  A    between atoms: _34  and  _35
REMARK   21  A    between atoms: _34  and  _36
REMARK   22  A    between atoms: _37  and  _39
REMARK                            x       y       z     vdW  Elec       q    Type
REMARK                         _______ _______ _______ _____ _____    ______ ____
ROOT
ATOM      1  C   UNL     1       0.075  13.388  10.869  0.00  0.00    +0.163 C 
ENDROOT
BRANCH   1   2
ATOM      2  O   UNL     1       1.241  13.889  10.195  0.00  0.00    -0.388 OA
ATOM      3  H   UNL     1       0.975  14.510   9.513  0.00  0.00    +0.210 HD
ENDBRANCH   1   2
BRANCH   1   4
ATOM      4  C   UNL     1      -0.643  14.514  11.634  0.00  0.00    +0.175 C 
BRANCH   4   5
ATOM      5  C   UNL     1      -0.109  15.903  11.255  0.00  0.00    +0.176 C 
ATOM      6  O   UNL     1       1.077  16.159  12.056  0.00  0.00    -0.332 OA
ATOM      7  C   UNL     1       1.790  17.404  11.753  0.00  0.00    +0.277 C 
ATOM      8  C   UNL     1       0.827  18.614  11.841  0.00  0.00    +0.110 C 
ATOM      9  C   UNL     1      -0.464  18.374  11.030  0.00  0.00    +0.143 C 
ATOM     10  C   UNL     1      -1.121  17.051  11.423  0.00  0.00    +0.133 C 
BRANCH  10  11
ATOM     11  N   UNL     1      -2.302  16.792  10.583  0.00  0.00    -0.308 N 
ATOM     12  H   UNL     1      -2.179  16.805   9.581  0.00  0.00    +0.149 HD
ATOM     13  C   UNL     1      -3.524  16.543  11.060  0.00  0.00    +0.210 C 
ATOM     14  C   UNL     1      -3.684  16.557  12.592  0.00  0.00    +0.109 C 
ATOM     15  O   UNL     1      -4.492  16.315  10.332  0.00  0.00    -0.276 OA
ENDBRANCH  10  11
BRANCH   7  16
ATOM     16  C   UNL     1       2.418  17.346  10.345  0.00  0.00    +0.414 C 
ATOM     17  O   UNL     1       2.981  16.323   9.959  0.00  0.00    -0.240 OA
ATOM     18  O   UNL     1       2.361  18.322   9.596  0.00  0.00    -0.240 OA
ENDBRANCH   7  16
BRANCH   9  19
ATOM     19  O   UNL     1      -1.383  19.443  11.261  0.00  0.00    -0.390 OA
ATOM     20  H   UNL     1      -2.129  19.120  11.771  0.00  0.00    +0.210 HD
ENDBRANCH   9  19
BRANCH   7  21
ATOM     21  O   UNL     1       2.833  17.577  12.746  0.00  0.00    -0.343 OA
ATOM     22  C   UNL     1       3.351  18.926  12.862  0.00  0.00    +0.198 C 
ENDBRANCH   7  21
ENDBRANCH   4   5
BRANCH   4  23
ATOM     23  O   UNL     1      -0.521  14.305  13.055  0.00  0.00    -0.387 OA
ATOM     24  H   UNL     1       0.262  13.780  13.235  0.00  0.00    +0.210 HD
ENDBRANCH   4  23
ENDBRANCH   1   4
BRANCH   1  25
ATOM     25  C   UNL     1      -0.883  12.765   9.861  0.00  0.00    +0.141 C 
BRANCH  25  28
ATOM     26  C   UNL     1      -2.993  11.700  10.583  0.00  0.00    +0.401 C 
ATOM     27  O   UNL     1      -2.575  10.550  10.430  0.00  0.00    -0.226 OA
ATOM     28  N   UNL     1      -2.273  12.794  10.335  0.00  0.00    -0.279 N 
ATOM     29  H   UNL     1      -2.707  13.695  10.482  0.00  0.00    +0.152 HD
BRANCH  26  30
ATOM     30  O   UNL     1      -4.331  11.897  11.049  0.00  0.00    -0.444 OA
BRANCH  30  31
ATOM     31  C   UNL     1      -4.329  12.847  12.118  0.00  0.00    +0.292 C 
BRANCH  31  33
ATOM     32  N   UNL     1      -2.676  12.069  13.785  0.00  0.00    -0.131 NA
ATOM     33  C   UNL     1      -3.983  12.190  13.391  0.00  0.00    +0.120 A 
ATOM     34  C   UNL     1      -4.796  11.617  14.346  0.00  0.00    +0.137 A 
ATOM     35  N   UNL     1      -3.923  11.176  15.294  0.00  0.00    -0.251 N 
ATOM     36  N   UNL     1      -2.651  11.433  14.947  0.00  0.00    -0.065 NA
BRANCH  35  37
ATOM     37  C   UNL     1      -4.219  10.497  16.539  0.00  0.00    +0.145 C 
BRANCH  37  38
ATOM     38  C   UNL     1      -4.860   9.129  16.308  0.00  0.00    +0.023 C 
BRANCH  38  39
ATOM     39  C   UNL     1      -3.861   7.978  16.457  0.00  0.00    +0.002 C 
BRANCH  39  40
ATOM     40  C   UNL     1      -3.401   7.508  15.075  0.00  0.00    +0.011 C 
BRANCH  40  41
ATOM     41  C   UNL     1      -1.897   7.669  14.865  0.00  0.00    +0.120 C 
BRANCH  41  42
ATOM     42  C   UNL     1      -1.582   8.060  13.437  0.00  0.00    +0.305 C 
ATOM     43  O   UNL     1      -1.131   7.314  12.584  0.00  0.00    -0.251 OA
BRANCH  42  44
ATOM     44  O   UNL     1      -1.864   9.359  13.185  0.00  0.00    -0.481 OA
ATOM     45  H   UNL     1      -2.690   9.494  12.686  0.00  0.00    +0.295 HD
ENDBRANCH  42  44
ENDBRANCH  41  42
ENDBRANCH  40  41
ENDBRANCH  39  40
ENDBRANCH  38  39
ENDBRANCH  37  38
ENDBRANCH  35  37
ENDBRANCH  31  33
ENDBRANCH  30  31
ENDBRANCH  26  30
ENDBRANCH  25  28
ENDBRANCH   1  25
TORSDOF 20
