REMARK VINA RESULT:    -7.020      2.166      3.750
REMARK INTER + INTRA:         -14.118
REMARK INTER:                 -11.983
REMARK INTRA:                  -2.135
REMARK UNBOUND:                -1.557
REMARK  Name = lig_assembled_28.pdb
REMARK  17 active torsions:
REMARK  status: ('A' for Active; 'I' for Inactive)
REMARK    1  A    between atoms: _2  and  _9
REMARK    2  A    between atoms: _4  and  _22
REMARK    3  A    between atoms: _6  and  _7
REMARK    4  A    between atoms: _6  and  _22
REMARK    5  A    between atoms: _9  and  _10
REMARK    6  A    between atoms: _18  and  _38
REMARK    7  A    between atoms: _20  and  _26
REMARK    8  A    between atoms: _21  and  _25
REMARK    9  A    between atoms: _25  and  _26
REMARK   10  A    between atoms: _28  and  _29
REMARK   11  A    between atoms: _30  and  _31
REMARK   12  A    between atoms: _32  and  _34
REMARK   13  A    between atoms: _34  and  _35
REMARK   14  A    between atoms: _34  and  _36
REMARK   15  A    between atoms: _36  and  _37
REMARK   16  A    between atoms: _36  and  _38
REMARK   17  A    between atoms: _39  and  _41
REMARK                            x       y       z     vdW  Elec       q    Type
REMARK                         _______ _______ _______ _____ _____    ______ ____
ROOT
ATOM      1  C   UNL     1       3.514   3.680  32.589  0.00  0.00    +0.163 C 
ENDROOT
BRANCH   1   2
ATOM      2  O   UNL     1       2.723   4.032  33.736  0.00  0.00    -0.388 OA
ATOM      3  H   UNL     1       3.174   3.748  34.535  0.00  0.00    +0.210 HD
ENDBRANCH   1   2
BRANCH   1   4
ATOM      4  C   UNL     1       2.771   2.656  31.738  0.00  0.00    +0.141 C 
BRANCH   4   7
ATOM      5  C   UNL     1       0.751   3.826  30.927  0.00  0.00    +0.401 C 
ATOM      6  O   UNL     1       0.195   3.826  32.028  0.00  0.00    -0.226 OA
ATOM      7  N   UNL     1       1.953   3.295  30.700  0.00  0.00    -0.279 N 
ATOM      8  H   UNL     1       2.323   3.336  29.760  0.00  0.00    +0.152 HD
BRANCH   5   9
ATOM      9  O   UNL     1       0.084   4.422  29.812  0.00  0.00    -0.444 OA
BRANCH   9  10
ATOM     10  C   UNL     1      -0.284   3.405  28.876  0.00  0.00    +0.292 C 
BRANCH  10  12
ATOM     11  N   UNL     1      -0.348   4.679  26.750  0.00  0.00    -0.131 NA
ATOM     12  C   UNL     1       0.242   3.726  27.536  0.00  0.00    +0.120 A 
ATOM     13  C   UNL     1       1.338   3.217  26.879  0.00  0.00    +0.137 A 
ATOM     14  N   UNL     1       1.423   3.967  25.740  0.00  0.00    -0.247 N 
ATOM     15  N   UNL     1       0.376   4.810  25.646  0.00  0.00    -0.065 NA
BRANCH  14  16
ATOM     16  C   UNL     1       2.473   4.040  24.733  0.00  0.00    +0.180 C 
BRANCH  16  17
ATOM     17  C   UNL     1       2.038   3.566  23.367  0.00  0.00    -0.022 A 
ATOM     18  C   UNL     1       1.802   2.199  23.135  0.00  0.00    +0.055 A 
ATOM     19  C   UNL     1       1.296   1.829  21.907  0.00  0.00    +0.167 A 
ATOM     20  O   UNL     1       0.960   0.563  21.537  0.00  0.00    -0.453 OA
ATOM     21  C   UNL     1       0.384   0.808  20.237  0.00  0.00    +0.466 C 
ATOM     22  O   UNL     1       0.523   2.176  19.798  0.00  0.00    -0.453 OA
ATOM     23  C   UNL     1       1.049   2.746  20.915  0.00  0.00    +0.166 A 
ATOM     24  C   UNL     1       1.301   4.090  21.093  0.00  0.00    +0.050 A 
ATOM     25  C   UNL     1       1.793   4.502  22.335  0.00  0.00    +0.009 A 
ENDBRANCH  16  17
ENDBRANCH  14  16
ENDBRANCH  10  12
ENDBRANCH   9  10
ENDBRANCH   5   9
ENDBRANCH   4   7
ENDBRANCH   1   4
BRANCH   1  26
ATOM     26  C   UNL     1       4.875   3.105  33.014  0.00  0.00    +0.175 C 
BRANCH  26  27
ATOM     27  C   UNL     1       5.411   3.771  34.290  0.00  0.00    +0.176 C 
ATOM     28  O   UNL     1       5.416   5.209  34.076  0.00  0.00    -0.332 OA
ATOM     29  C   UNL     1       5.801   6.021  35.234  0.00  0.00    +0.277 C 
ATOM     30  C   UNL     1       7.177   5.568  35.779  0.00  0.00    +0.110 C 
ATOM     31  C   UNL     1       7.231   4.041  35.993  0.00  0.00    +0.143 C 
ATOM     32  C   UNL     1       6.809   3.294  34.727  0.00  0.00    +0.133 C 
BRANCH  32  33
ATOM     33  N   UNL     1       6.780   1.843  34.970  0.00  0.00    -0.308 N 
ATOM     34  H   UNL     1       6.126   1.493  35.656  0.00  0.00    +0.149 HD
ATOM     35  C   UNL     1       7.562   0.960  34.344  0.00  0.00    +0.210 C 
ATOM     36  C   UNL     1       8.567   1.529  33.324  0.00  0.00    +0.109 C 
ATOM     37  O   UNL     1       7.506  -0.252  34.557  0.00  0.00    -0.276 OA
ENDBRANCH  32  33
BRANCH  29  38
ATOM     38  C   UNL     1       4.743   5.914  36.352  0.00  0.00    +0.414 C 
ATOM     39  O   UNL     1       5.047   6.158  37.519  0.00  0.00    -0.240 OA
ATOM     40  O   UNL     1       3.586   5.586  36.088  0.00  0.00    -0.240 OA
ENDBRANCH  29  38
BRANCH  29  41
ATOM     41  O   UNL     1       5.913   7.400  34.798  0.00  0.00    -0.343 OA
ATOM     42  C   UNL     1       7.236   7.798  34.360  0.00  0.00    +0.198 C 
ENDBRANCH  29  41
BRANCH  31  43
ATOM     43  O   UNL     1       8.558   3.651  36.350  0.00  0.00    -0.390 OA
ATOM     44  H   UNL     1       9.171   4.351  36.117  0.00  0.00    +0.210 HD
ENDBRANCH  31  43
ENDBRANCH  26  27
BRANCH  26  45
ATOM     45  O   UNL     1       5.830   3.244  31.943  0.00  0.00    -0.387 OA
ATOM     46  H   UNL     1       5.821   4.149  31.622  0.00  0.00    +0.210 HD
ENDBRANCH  26  45
ENDBRANCH   1  26
TORSDOF 15
