REMARK VINA RESULT:    -6.468      1.614      3.605
REMARK INTER + INTRA:         -14.558
REMARK INTER:                 -12.359
REMARK INTRA:                  -2.200
REMARK UNBOUND:                -2.230
REMARK  Name = lig_assembled_9.pdb
REMARK  20 active torsions:
REMARK  status: ('A' for Active; 'I' for Inactive)
REMARK    1  A    between atoms: _2  and  _9
REMARK    2  A    between atoms: _4  and  _23
REMARK    3  A    between atoms: _6  and  _7
REMARK    4  A    between atoms: _6  and  _23
REMARK    5  A    between atoms: _11  and  _12
REMARK    6  A    between atoms: _12  and  _17
REMARK    7  A    between atoms: _13  and  _14
REMARK    8  A    between atoms: _13  and  _17
REMARK    9  A    between atoms: _19  and  _39
REMARK   10  A    between atoms: _21  and  _27
REMARK   11  A    between atoms: _22  and  _26
REMARK   12  A    between atoms: _26  and  _27
REMARK   13  A    between atoms: _29  and  _30
REMARK   14  A    between atoms: _31  and  _32
REMARK   15  A    between atoms: _33  and  _35
REMARK   16  A    between atoms: _35  and  _36
REMARK   17  A    between atoms: _35  and  _37
REMARK   18  A    between atoms: _37  and  _38
REMARK   19  A    between atoms: _37  and  _39
REMARK   20  A    between atoms: _40  and  _42
REMARK                            x       y       z     vdW  Elec       q    Type
REMARK                         _______ _______ _______ _____ _____    ______ ____
ROOT
ATOM      1  C   UNL     1       3.270   2.890  33.034  0.00  0.00    +0.163 C 
ENDROOT
BRANCH   1   2
ATOM      2  O   UNL     1       4.080   1.987  32.265  0.00  0.00    -0.388 OA
ATOM      3  H   UNL     1       4.981   2.317  32.228  0.00  0.00    +0.210 HD
ENDBRANCH   1   2
BRANCH   1   4
ATOM      4  C   UNL     1       4.141   3.760  33.957  0.00  0.00    +0.175 C 
BRANCH   4   5
ATOM      5  C   UNL     1       5.605   3.296  33.976  0.00  0.00    +0.176 C 
ATOM      6  O   UNL     1       5.636   1.936  34.488  0.00  0.00    -0.332 OA
ATOM      7  C   UNL     1       6.950   1.285  34.480  0.00  0.00    +0.277 C 
ATOM      8  C   UNL     1       7.988   2.152  35.234  0.00  0.00    +0.110 C 
ATOM      9  C   UNL     1       7.970   3.616  34.745  0.00  0.00    +0.143 C 
ATOM     10  C   UNL     1       6.554   4.193  34.793  0.00  0.00    +0.133 C 
BRANCH  10  11
ATOM     11  N   UNL     1       6.535   5.558  34.244  0.00  0.00    -0.308 N 
ATOM     12  H   UNL     1       6.779   5.678  33.271  0.00  0.00    +0.149 HD
ATOM     13  C   UNL     1       6.216   6.647  34.948  0.00  0.00    +0.210 C 
ATOM     14  C   UNL     1       5.874   6.433  36.434  0.00  0.00    +0.109 C 
ATOM     15  O   UNL     1       6.195   7.777  34.458  0.00  0.00    -0.276 OA
ENDBRANCH  10  11
BRANCH   7  16
ATOM     16  C   UNL     1       7.432   1.045  33.034  0.00  0.00    +0.414 C 
ATOM     17  O   UNL     1       6.625   0.758  32.151  0.00  0.00    -0.240 OA
ATOM     18  O   UNL     1       8.627   1.137  32.751  0.00  0.00    -0.240 OA
ENDBRANCH   7  16
BRANCH   7  19
ATOM     19  O   UNL     1       6.827   0.015  35.171  0.00  0.00    -0.343 OA
ATOM     20  C   UNL     1       6.649   0.114  36.606  0.00  0.00    +0.198 C 
ENDBRANCH   7  19
BRANCH   9  21
ATOM     21  O   UNL     1       8.829   4.408  35.566  0.00  0.00    -0.390 OA
ATOM     22  H   UNL     1       9.732   4.095  35.481  0.00  0.00    +0.210 HD
ENDBRANCH   9  21
ENDBRANCH   4   5
BRANCH   4  23
ATOM     23  O   UNL     1       3.602   3.760  35.294  0.00  0.00    -0.387 OA
ATOM     24  H   UNL     1       4.130   3.183  35.852  0.00  0.00    +0.210 HD
ENDBRANCH   4  23
ENDBRANCH   1   4
BRANCH   1  25
ATOM     25  C   UNL     1       2.461   3.787  32.104  0.00  0.00    +0.141 C 
BRANCH  25  28
ATOM     26  C   UNL     1       0.869   2.415  30.803  0.00  0.00    +0.401 C 
ATOM     27  O   UNL     1       0.049   2.328  31.720  0.00  0.00    -0.226 OA
ATOM     28  N   UNL     1       2.025   3.073  30.897  0.00  0.00    -0.279 N 
ATOM     29  H   UNL     1       2.637   3.079  30.093  0.00  0.00    +0.152 HD
BRANCH  26  30
ATOM     30  O   UNL     1       0.585   1.777  29.555  0.00  0.00    -0.444 OA
BRANCH  30  31
ATOM     31  C   UNL     1      -0.243   2.630  28.760  0.00  0.00    +0.292 C 
BRANCH  31  33
ATOM     32  N   UNL     1       1.776   3.639  27.743  0.00  0.00    -0.131 NA
ATOM     33  C   UNL     1       0.514   3.141  27.601  0.00  0.00    +0.121 A 
ATOM     34  C   UNL     1       0.151   3.205  26.277  0.00  0.00    +0.143 A 
ATOM     35  N   UNL     1       1.253   3.721  25.632  0.00  0.00    -0.220 N 
ATOM     36  N   UNL     1       2.215   3.997  26.544  0.00  0.00    -0.060 NA
BRANCH  35  37
ATOM     37  C   UNL     1       1.449   3.932  24.243  0.00  0.00    +0.068 A 
ATOM     38  C   UNL     1       1.520   2.846  23.360  0.00  0.00    +0.042 A 
ATOM     39  C   UNL     1       1.746   3.058  21.992  0.00  0.00    +0.061 A 
ATOM     40  C   UNL     1       1.896   4.362  21.508  0.00  0.00    +0.015 A 
ATOM     41  C   UNL     1       1.813   5.448  22.383  0.00  0.00    +0.003 A 
ATOM     42  C   UNL     1       1.588   5.237  23.745  0.00  0.00    +0.028 A 
BRANCH  39  43
ATOM     43  C   UNL     1       1.769   1.937  21.015  0.00  0.00    +0.339 C 
ATOM     44  O   UNL     1       1.404   0.803  21.276  0.00  0.00    -0.245 OA
BRANCH  43  45
ATOM     45  O   UNL     1       2.341   2.350  19.857  0.00  0.00    -0.461 OA
BRANCH  45  46
ATOM     46  C   UNL     1       1.567   2.129  18.672  0.00  0.00    +0.229 C 
ATOM     47  C   UNL     1       1.508   3.434  17.900  0.00  0.00    +0.048 C 
ENDBRANCH  45  46
ENDBRANCH  43  45
ENDBRANCH  39  43
ENDBRANCH  35  37
ENDBRANCH  31  33
ENDBRANCH  30  31
ENDBRANCH  26  30
ENDBRANCH  25  28
ENDBRANCH   1  25
TORSDOF 17
