REMARK VINA RESULT:    -5.547      3.221     10.065
REMARK INTER + INTRA:         -14.074
REMARK INTER:                 -11.525
REMARK INTRA:                  -2.549
REMARK UNBOUND:                -2.852
REMARK  Name = lig_assembled_11.pdb
REMARK  22 active torsions:
REMARK  status: ('A' for Active; 'I' for Inactive)
REMARK    1  A    between atoms: _2  and  _9
REMARK    2  A    between atoms: _4  and  _21
REMARK    3  A    between atoms: _5  and  _9
REMARK    4  A    between atoms: _5  and  _13
REMARK    5  A    between atoms: _6  and  _7
REMARK    6  A    between atoms: _6  and  _21
REMARK    7  A    between atoms: _9  and  _10
REMARK    8  A    between atoms: _10  and  _11
REMARK    9  A    between atoms: _11  and  _12
REMARK   10  A    between atoms: _12  and  _15
REMARK   11  A    between atoms: _17  and  _37
REMARK   12  A    between atoms: _19  and  _25
REMARK   13  A    between atoms: _20  and  _24
REMARK   14  A    between atoms: _24  and  _25
REMARK   15  A    between atoms: _27  and  _28
REMARK   16  A    between atoms: _29  and  _30
REMARK   17  A    between atoms: _31  and  _33
REMARK   18  A    between atoms: _33  and  _34
REMARK   19  A    between atoms: _33  and  _35
REMARK   20  A    between atoms: _35  and  _36
REMARK   21  A    between atoms: _35  and  _37
REMARK   22  A    between atoms: _38  and  _40
REMARK                            x       y       z     vdW  Elec       q    Type
REMARK                         _______ _______ _______ _____ _____    ______ ____
ROOT
ATOM      1  C   UNL     1      16.374   0.942  25.988  0.00  0.00    +0.163 C 
ENDROOT
BRANCH   1   2
ATOM      2  O   UNL     1      15.921   2.019  25.151  0.00  0.00    -0.388 OA
ATOM      3  H   UNL     1      16.668   2.392  24.676  0.00  0.00    +0.210 HD
ENDBRANCH   1   2
BRANCH   1   4
ATOM      4  C   UNL     1      16.593  -0.339  25.166  0.00  0.00    +0.175 C 
BRANCH   4   5
ATOM      5  C   UNL     1      17.690  -0.165  24.105  0.00  0.00    +0.176 C 
ATOM      6  O   UNL     1      17.257   0.870  23.180  0.00  0.00    -0.332 OA
ATOM      7  C   UNL     1      18.231   1.249  22.152  0.00  0.00    +0.277 C 
ATOM      8  C   UNL     1      18.697   0.001  21.362  0.00  0.00    +0.110 C 
ATOM      9  C   UNL     1      19.138  -1.138  22.305  0.00  0.00    +0.143 C 
ATOM     10  C   UNL     1      18.051  -1.449  23.335  0.00  0.00    +0.133 C 
BRANCH  10  11
ATOM     11  N   UNL     1      18.517  -2.475  24.281  0.00  0.00    -0.308 N 
ATOM     12  H   UNL     1      19.304  -2.249  24.872  0.00  0.00    +0.149 HD
ATOM     13  C   UNL     1      17.966  -3.685  24.409  0.00  0.00    +0.210 C 
ATOM     14  C   UNL     1      16.784  -4.008  23.476  0.00  0.00    +0.109 C 
ATOM     15  O   UNL     1      18.368  -4.520  25.221  0.00  0.00    -0.276 OA
ENDBRANCH  10  11
BRANCH   7  16
ATOM     16  C   UNL     1      19.454   1.944  22.787  0.00  0.00    +0.414 C 
ATOM     17  O   UNL     1      20.576   1.783  22.308  0.00  0.00    -0.240 OA
ATOM     18  O   UNL     1      19.318   2.664  23.777  0.00  0.00    -0.240 OA
ENDBRANCH   7  16
BRANCH   7  19
ATOM     19  O   UNL     1      17.578   2.158  21.228  0.00  0.00    -0.343 OA
ATOM     20  C   UNL     1      16.633   3.074  21.836  0.00  0.00    +0.198 C 
ENDBRANCH   7  19
BRANCH   9  21
ATOM     21  O   UNL     1      19.414  -2.314  21.543  0.00  0.00    -0.390 OA
ATOM     22  H   UNL     1      18.806  -3.012  21.799  0.00  0.00    +0.210 HD
ENDBRANCH   9  21
ENDBRANCH   4   5
BRANCH   4  23
ATOM     23  O   UNL     1      15.359  -0.746  24.541  0.00  0.00    -0.387 OA
ATOM     24  H   UNL     1      15.511  -0.912  23.608  0.00  0.00    +0.210 HD
ENDBRANCH   4  23
ENDBRANCH   1   4
BRANCH   1  25
ATOM     25  C   UNL     1      17.675   1.332  26.681  0.00  0.00    +0.141 C 
BRANCH  25  28
ATOM     26  C   UNL     1      18.173   3.693  27.212  0.00  0.00    +0.401 C 
ATOM     27  O   UNL     1      17.891   3.582  28.408  0.00  0.00    -0.226 OA
ATOM     28  N   UNL     1      18.095   2.695  26.332  0.00  0.00    -0.279 N 
ATOM     29  H   UNL     1      18.338   2.887  25.370  0.00  0.00    +0.152 HD
BRANCH  26  30
ATOM     30  O   UNL     1      18.607   4.962  26.717  0.00  0.00    -0.444 OA
BRANCH  30  31
ATOM     31  C   UNL     1      19.865   5.300  27.308  0.00  0.00    +0.292 C 
BRANCH  31  33
ATOM     32  N   UNL     1      21.237   7.347  27.546  0.00  0.00    -0.131 NA
ATOM     33  C   UNL     1      20.006   6.764  27.417  0.00  0.00    +0.120 A 
ATOM     34  C   UNL     1      19.044   7.747  27.405  0.00  0.00    +0.138 A 
ATOM     35  N   UNL     1      19.744   8.907  27.574  0.00  0.00    -0.238 N 
ATOM     36  N   UNL     1      21.067   8.660  27.628  0.00  0.00    -0.065 NA
BRANCH  35  37
ATOM     37  C   UNL     1      19.293  10.295  27.558  0.00  0.00    +0.217 C 
BRANCH  37  38
ATOM     38  C   UNL     1      20.116  11.197  26.650  0.00  0.00    +0.330 C 
ATOM     39  O   UNL     1      20.609  12.270  26.964  0.00  0.00    -0.249 OA
BRANCH  38  40
ATOM     40  O   UNL     1      20.274  10.717  25.391  0.00  0.00    -0.479 OA
ATOM     41  H   UNL     1      19.527  10.834  24.772  0.00  0.00    +0.295 HD
ENDBRANCH  38  40
ENDBRANCH  37  38
BRANCH  37  42
ATOM     42  C   UNL     1      19.141  10.865  28.980  0.00  0.00    +0.049 C 
BRANCH  42  43
ATOM     43  C   UNL     1      17.846  10.467  29.700  0.00  0.00    +0.123 C 
BRANCH  43  44
ATOM     44  C   UNL     1      18.101   9.363  30.701  0.00  0.00    +0.305 C 
ATOM     45  O   UNL     1      17.231   8.710  31.252  0.00  0.00    -0.251 OA
BRANCH  44  46
ATOM     46  O   UNL     1      19.416   9.181  30.951  0.00  0.00    -0.481 OA
ATOM     47  H   UNL     1      19.723   9.554  31.800  0.00  0.00    +0.295 HD
ENDBRANCH  44  46
ENDBRANCH  43  44
ENDBRANCH  42  43
ENDBRANCH  37  42
ENDBRANCH  35  37
ENDBRANCH  31  33
ENDBRANCH  30  31
ENDBRANCH  26  30
ENDBRANCH  25  28
ENDBRANCH   1  25
TORSDOF 20
