REMARK VINA RESULT:    -5.607     14.541     16.716
REMARK INTER + INTRA:         -13.005
REMARK INTER:                 -11.193
REMARK INTRA:                  -1.812
REMARK UNBOUND:                -2.810
REMARK  Name = lig_assembled_53.pdb
REMARK  18 active torsions:
REMARK  status: ('A' for Active; 'I' for Inactive)
REMARK    1  A    between atoms: _2  and  _9
REMARK    2  A    between atoms: _4  and  _16
REMARK    3  A    between atoms: _5  and  _9
REMARK    4  A    between atoms: _5  and  _10
REMARK    5  A    between atoms: _6  and  _7
REMARK    6  A    between atoms: _6  and  _16
REMARK    7  A    between atoms: _12  and  _32
REMARK    8  A    between atoms: _14  and  _20
REMARK    9  A    between atoms: _15  and  _19
REMARK   10  A    between atoms: _19  and  _20
REMARK   11  A    between atoms: _22  and  _23
REMARK   12  A    between atoms: _24  and  _25
REMARK   13  A    between atoms: _26  and  _28
REMARK   14  A    between atoms: _28  and  _29
REMARK   15  A    between atoms: _28  and  _30
REMARK   16  A    between atoms: _30  and  _31
REMARK   17  A    between atoms: _30  and  _32
REMARK   18  A    between atoms: _33  and  _35
REMARK                            x       y       z     vdW  Elec       q    Type
REMARK                         _______ _______ _______ _____ _____    ______ ____
ROOT
ATOM      1  C   UNL     1       7.597   3.671  33.357  0.00  0.00    +0.175 C 
ENDROOT
BRANCH   1   2
ATOM      2  C   UNL     1       7.303   4.223  34.760  0.00  0.00    +0.176 C 
ATOM      3  O   UNL     1       7.293   5.674  34.676  0.00  0.00    -0.332 OA
ATOM      4  C   UNL     1       6.922   6.378  35.907  0.00  0.00    +0.277 C 
ATOM      5  C   UNL     1       7.826   5.927  37.081  0.00  0.00    +0.110 C 
ATOM      6  C   UNL     1       7.893   4.390  37.190  0.00  0.00    +0.143 C 
ATOM      7  C   UNL     1       8.285   3.761  35.852  0.00  0.00    +0.133 C 
BRANCH   7   8
ATOM      8  N   UNL     1       8.261   2.293  35.946  0.00  0.00    -0.308 N 
ATOM      9  H   UNL     1       7.408   1.854  36.264  0.00  0.00    +0.149 HD
ATOM     10  C   UNL     1       9.293   1.502  35.639  0.00  0.00    +0.210 C 
ATOM     11  C   UNL     1      10.586   2.202  35.182  0.00  0.00    +0.109 C 
ATOM     12  O   UNL     1       9.239   0.274  35.713  0.00  0.00    -0.276 OA
ENDBRANCH   7   8
BRANCH   4  13
ATOM     13  C   UNL     1       5.444   6.114  36.264  0.00  0.00    +0.414 C 
ATOM     14  O   UNL     1       4.608   5.966  35.374  0.00  0.00    -0.240 OA
ATOM     15  O   UNL     1       5.088   6.048  37.442  0.00  0.00    -0.240 OA
ENDBRANCH   4  13
BRANCH   4  16
ATOM     16  O   UNL     1       7.126   7.798  35.692  0.00  0.00    -0.343 OA
ATOM     17  C   UNL     1       7.555   8.159  34.355  0.00  0.00    +0.198 C 
ENDBRANCH   4  16
BRANCH   6  18
ATOM     18  O   UNL     1       8.851   4.019  38.183  0.00  0.00    -0.390 OA
ATOM     19  H   UNL     1       9.500   3.426  37.796  0.00  0.00    +0.210 HD
ENDBRANCH   6  18
ENDBRANCH   1   2
BRANCH   1  20
ATOM     20  O   UNL     1       7.934   4.748  32.460  0.00  0.00    -0.387 OA
ATOM     21  H   UNL     1       7.335   4.739  31.709  0.00  0.00    +0.210 HD
ENDBRANCH   1  20
BRANCH   1  22
ATOM     22  C   UNL     1       6.416   2.862  32.794  0.00  0.00    +0.163 C 
BRANCH  22  23
ATOM     23  O   UNL     1       6.155   3.217  31.426  0.00  0.00    -0.388 OA
ATOM     24  H   UNL     1       5.233   3.047  31.220  0.00  0.00    +0.210 HD
ENDBRANCH  22  23
BRANCH  22  25
ATOM     25  C   UNL     1       5.174   3.114  33.643  0.00  0.00    +0.141 C 
BRANCH  25  28
ATOM     26  C   UNL     1       3.066   3.486  32.409  0.00  0.00    +0.401 C 
ATOM     27  O   UNL     1       2.733   2.299  32.433  0.00  0.00    -0.226 OA
ATOM     28  N   UNL     1       4.194   3.954  32.945  0.00  0.00    -0.279 N 
ATOM     29  H   UNL     1       4.385   4.943  32.866  0.00  0.00    +0.152 HD
BRANCH  26  30
ATOM     30  O   UNL     1       2.209   4.435  31.770  0.00  0.00    -0.444 OA
BRANCH  30  31
ATOM     31  C   UNL     1       0.926   3.846  31.547  0.00  0.00    +0.292 C 
BRANCH  31  33
ATOM     32  N   UNL     1       1.595   3.624  29.172  0.00  0.00    -0.131 NA
ATOM     33  C   UNL     1       0.613   3.819  30.106  0.00  0.00    +0.120 A 
ATOM     34  C   UNL     1      -0.596   3.967  29.463  0.00  0.00    +0.137 A 
ATOM     35  N   UNL     1      -0.277   3.918  28.140  0.00  0.00    -0.241 N 
ATOM     36  N   UNL     1       1.036   3.665  27.971  0.00  0.00    -0.065 NA
BRANCH  35  37
ATOM     37  C   UNL     1      -1.130   3.938  26.969  0.00  0.00    +0.265 C 
BRANCH  37  38
ATOM     38  C   UNL     1      -0.653   4.811  25.840  0.00  0.00    +0.326 C 
ATOM     39  O   UNL     1      -1.028   5.946  25.584  0.00  0.00    -0.249 OA
BRANCH  38  40
ATOM     40  O   UNL     1       0.279   4.195  25.064  0.00  0.00    -0.479 OA
ATOM     41  H   UNL     1      -0.064   3.548  24.418  0.00  0.00    +0.295 HD
ENDBRANCH  38  40
ENDBRANCH  37  38
ENDBRANCH  35  37
ENDBRANCH  31  33
ENDBRANCH  30  31
ENDBRANCH  26  30
ENDBRANCH  25  28
ENDBRANCH  22  25
ENDBRANCH   1  22
TORSDOF 16
