REMARK VINA RESULT:    -6.878      1.689      3.217
REMARK INTER + INTRA:         -13.864
REMARK INTER:                 -11.913
REMARK INTRA:                  -1.951
REMARK UNBOUND:                -1.557
REMARK  Name = lig_assembled_28.pdb
REMARK  17 active torsions:
REMARK  status: ('A' for Active; 'I' for Inactive)
REMARK    1  A    between atoms: _2  and  _9
REMARK    2  A    between atoms: _4  and  _22
REMARK    3  A    between atoms: _6  and  _7
REMARK    4  A    between atoms: _6  and  _22
REMARK    5  A    between atoms: _9  and  _10
REMARK    6  A    between atoms: _18  and  _38
REMARK    7  A    between atoms: _20  and  _26
REMARK    8  A    between atoms: _21  and  _25
REMARK    9  A    between atoms: _25  and  _26
REMARK   10  A    between atoms: _28  and  _29
REMARK   11  A    between atoms: _30  and  _31
REMARK   12  A    between atoms: _32  and  _34
REMARK   13  A    between atoms: _34  and  _35
REMARK   14  A    between atoms: _34  and  _36
REMARK   15  A    between atoms: _36  and  _37
REMARK   16  A    between atoms: _36  and  _38
REMARK   17  A    between atoms: _39  and  _41
REMARK                            x       y       z     vdW  Elec       q    Type
REMARK                         _______ _______ _______ _____ _____    ______ ____
ROOT
ATOM      1  C   UNL     1       3.315   1.431  32.040  0.00  0.00    +0.163 C 
ENDROOT
BRANCH   1   2
ATOM      2  O   UNL     1       3.743   0.604  30.946  0.00  0.00    -0.388 OA
ATOM      3  H   UNL     1       3.849   1.143  30.158  0.00  0.00    +0.210 HD
ENDBRANCH   1   2
BRANCH   1   4
ATOM      4  C   UNL     1       2.271   2.433  31.559  0.00  0.00    +0.141 C 
BRANCH   4   7
ATOM      5  C   UNL     1       1.692   3.406  29.362  0.00  0.00    +0.401 C 
ATOM      6  O   UNL     1       0.476   3.377  29.564  0.00  0.00    -0.226 OA
ATOM      7  N   UNL     1       2.604   2.979  30.238  0.00  0.00    -0.279 N 
ATOM      8  H   UNL     1       3.578   3.035  29.977  0.00  0.00    +0.152 HD
BRANCH   5   9
ATOM      9  O   UNL     1       2.178   3.920  28.120  0.00  0.00    -0.444 OA
BRANCH   9  10
ATOM     10  C   UNL     1       1.757   3.066  27.052  0.00  0.00    +0.292 C 
BRANCH  10  12
ATOM     11  N   UNL     1       0.481   4.820  25.852  0.00  0.00    -0.131 NA
ATOM     12  C   UNL     1       1.458   3.862  25.846  0.00  0.00    +0.120 A 
ATOM     13  C   UNL     1       2.056   3.837  24.608  0.00  0.00    +0.137 A 
ATOM     14  N   UNL     1       1.468   4.868  23.932  0.00  0.00    -0.247 N 
ATOM     15  N   UNL     1       0.487   5.423  24.670  0.00  0.00    -0.065 NA
BRANCH  14  16
ATOM     16  C   UNL     1       1.804   5.469  22.648  0.00  0.00    +0.180 C 
BRANCH  16  17
ATOM     17  C   UNL     1       1.185   4.761  21.466  0.00  0.00    -0.022 A 
ATOM     18  C   UNL     1      -0.145   5.032  21.097  0.00  0.00    +0.055 A 
ATOM     19  C   UNL     1      -0.628   4.450  19.945  0.00  0.00    +0.167 A 
ATOM     20  O   UNL     1      -1.867   4.648  19.416  0.00  0.00    -0.453 OA
ATOM     21  C   UNL     1      -1.753   3.907  18.184  0.00  0.00    +0.466 C 
ATOM     22  O   UNL     1      -0.519   3.166  18.072  0.00  0.00    -0.453 OA
ATOM     23  C   UNL     1       0.137   3.605  19.181  0.00  0.00    +0.166 A 
ATOM     24  C   UNL     1       1.433   3.287  19.529  0.00  0.00    +0.050 A 
ATOM     25  C   UNL     1       1.962   3.879  20.680  0.00  0.00    +0.009 A 
ENDBRANCH  16  17
ENDBRANCH  14  16
ENDBRANCH  10  12
ENDBRANCH   9  10
ENDBRANCH   5   9
ENDBRANCH   4   7
ENDBRANCH   1   4
BRANCH   1  26
ATOM     26  C   UNL     1       4.505   2.185  32.658  0.00  0.00    +0.175 C 
BRANCH  26  27
ATOM     27  C   UNL     1       5.801   1.364  32.601  0.00  0.00    +0.176 C 
ATOM     28  O   UNL     1       5.483  -0.001  32.989  0.00  0.00    -0.332 OA
ATOM     29  C   UNL     1       6.587  -0.961  32.893  0.00  0.00    +0.277 C 
ATOM     30  C   UNL     1       7.812  -0.460  33.696  0.00  0.00    +0.110 C 
ATOM     31  C   UNL     1       8.169   0.998  33.341  0.00  0.00    +0.143 C 
ATOM     32  C   UNL     1       6.948   1.910  33.472  0.00  0.00    +0.133 C 
BRANCH  32  33
ATOM     33  N   UNL     1       7.279   3.279  33.048  0.00  0.00    -0.308 N 
ATOM     34  H   UNL     1       7.495   3.431  32.073  0.00  0.00    +0.149 HD
ATOM     35  C   UNL     1       7.313   4.334  33.867  0.00  0.00    +0.210 C 
ATOM     36  C   UNL     1       7.004   4.064  35.351  0.00  0.00    +0.109 C 
ATOM     37  O   UNL     1       7.579   5.472  33.480  0.00  0.00    -0.276 OA
ENDBRANCH  32  33
BRANCH  29  38
ATOM     38  C   UNL     1       6.992  -1.182  31.420  0.00  0.00    +0.414 C 
ATOM     39  O   UNL     1       8.098  -1.645  31.144  0.00  0.00    -0.240 OA
ATOM     40  O   UNL     1       6.213  -0.899  30.509  0.00  0.00    -0.240 OA
ENDBRANCH  29  38
BRANCH  29  41
ATOM     41  O   UNL     1       6.142  -2.215  33.471  0.00  0.00    -0.343 OA
ATOM     42  C   UNL     1       7.040  -2.788  34.454  0.00  0.00    +0.198 C 
ENDBRANCH  29  41
BRANCH  31  43
ATOM     43  O   UNL     1       9.202   1.467  34.209  0.00  0.00    -0.390 OA
ATOM     44  H   UNL     1       8.937   2.303  34.600  0.00  0.00    +0.210 HD
ENDBRANCH  31  43
ENDBRANCH  26  27
BRANCH  26  45
ATOM     45  O   UNL     1       4.208   2.552  34.020  0.00  0.00    -0.387 OA
ATOM     46  H   UNL     1       4.713   1.996  34.618  0.00  0.00    +0.210 HD
ENDBRANCH  26  45
ENDBRANCH   1  26
TORSDOF 15
