REMARK VINA RESULT:    -6.118     13.807     15.627
REMARK INTER + INTRA:         -13.192
REMARK INTER:                 -11.647
REMARK INTRA:                  -1.546
REMARK UNBOUND:                -2.246
REMARK  Name = lig_assembled_5.pdb
REMARK  18 active torsions:
REMARK  status: ('A' for Active; 'I' for Inactive)
REMARK    1  A    between atoms: _2  and  _9
REMARK    2  A    between atoms: _4  and  _20
REMARK    3  A    between atoms: _6  and  _7
REMARK    4  A    between atoms: _6  and  _20
REMARK    5  A    between atoms: _12  and  _15
REMARK    6  A    between atoms: _13  and  _15
REMARK    7  A    between atoms: _16  and  _36
REMARK    8  A    between atoms: _18  and  _24
REMARK    9  A    between atoms: _19  and  _23
REMARK   10  A    between atoms: _23  and  _24
REMARK   11  A    between atoms: _26  and  _27
REMARK   12  A    between atoms: _28  and  _29
REMARK   13  A    between atoms: _30  and  _32
REMARK   14  A    between atoms: _32  and  _33
REMARK   15  A    between atoms: _32  and  _34
REMARK   16  A    between atoms: _34  and  _35
REMARK   17  A    between atoms: _34  and  _36
REMARK   18  A    between atoms: _37  and  _39
REMARK                            x       y       z     vdW  Elec       q    Type
REMARK                         _______ _______ _______ _____ _____    ______ ____
ROOT
ATOM      1  C   UNL     1      18.952   6.910  29.594  0.00  0.00    +0.163 C 
ENDROOT
BRANCH   1   2
ATOM      2  O   UNL     1      18.623   5.564  29.973  0.00  0.00    -0.388 OA
ATOM      3  H   UNL     1      17.873   5.260  29.457  0.00  0.00    +0.210 HD
ENDBRANCH   1   2
BRANCH   1   4
ATOM      4  C   UNL     1      19.705   6.909  28.267  0.00  0.00    +0.141 C 
BRANCH   4   7
ATOM      5  C   UNL     1      18.890   7.363  25.979  0.00  0.00    +0.401 C 
ATOM      6  O   UNL     1      19.721   8.246  25.757  0.00  0.00    -0.226 OA
ATOM      7  N   UNL     1      18.806   6.690  27.128  0.00  0.00    -0.279 N 
ATOM      8  H   UNL     1      18.082   5.990  27.219  0.00  0.00    +0.152 HD
BRANCH   5   9
ATOM      9  O   UNL     1      17.945   7.026  24.960  0.00  0.00    -0.444 OA
BRANCH   9  10
ATOM     10  C   UNL     1      18.641   6.643  23.771  0.00  0.00    +0.292 C 
BRANCH  10  12
ATOM     11  N   UNL     1      17.043   5.314  22.428  0.00  0.00    -0.131 NA
ATOM     12  C   UNL     1      18.120   5.359  23.264  0.00  0.00    +0.121 A 
ATOM     13  C   UNL     1      18.564   4.078  23.495  0.00  0.00    +0.143 A 
ATOM     14  N   UNL     1      17.734   3.273  22.747  0.00  0.00    -0.220 N 
ATOM     15  N   UNL     1      16.809   4.044  22.124  0.00  0.00    -0.060 NA
BRANCH  14  16
ATOM     16  C   UNL     1      17.784   1.865  22.571  0.00  0.00    +0.067 A 
ATOM     17  C   UNL     1      17.402   1.000  23.602  0.00  0.00    +0.031 A 
ATOM     18  C   UNL     1      17.516  -0.382  23.430  0.00  0.00    +0.048 A 
ATOM     19  C   UNL     1      17.989  -0.918  22.231  0.00  0.00    +0.120 A 
ATOM     20  C   UNL     1      18.354  -0.059  21.196  0.00  0.00    +0.048 A 
ATOM     21  C   UNL     1      18.254   1.329  21.363  0.00  0.00    +0.031 A 
BRANCH  19  22
ATOM     22  O   UNL     1      18.109  -2.280  22.219  0.00  0.00    -0.495 OA
ATOM     23  C   UNL     1      17.444  -2.981  23.260  0.00  0.00    +0.277 C 
ENDBRANCH  19  22
ENDBRANCH  14  16
ENDBRANCH  10  12
ENDBRANCH   9  10
ENDBRANCH   5   9
ENDBRANCH   4   7
ENDBRANCH   1   4
BRANCH   1  24
ATOM     24  C   UNL     1      19.812   7.592  30.672  0.00  0.00    +0.175 C 
BRANCH  24  25
ATOM     25  C   UNL     1      18.960   8.379  31.679  0.00  0.00    +0.176 C 
ATOM     26  O   UNL     1      18.039   7.447  32.310  0.00  0.00    -0.332 OA
ATOM     27  C   UNL     1      17.211   8.004  33.384  0.00  0.00    +0.277 C 
ATOM     28  C   UNL     1      16.436   9.246  32.881  0.00  0.00    +0.110 C 
ATOM     29  C   UNL     1      17.369  10.252  32.174  0.00  0.00    +0.143 C 
ATOM     30  C   UNL     1      18.185   9.566  31.077  0.00  0.00    +0.133 C 
BRANCH  30  31
ATOM     31  N   UNL     1      19.132  10.514  30.470  0.00  0.00    -0.308 N 
ATOM     32  H   UNL     1      19.918  10.817  31.027  0.00  0.00    +0.149 HD
ATOM     33  C   UNL     1      19.019  11.000  29.231  0.00  0.00    +0.210 C 
ATOM     34  C   UNL     1      17.796  10.539  28.417  0.00  0.00    +0.109 C 
ATOM     35  O   UNL     1      19.836  11.782  28.743  0.00  0.00    -0.276 OA
ENDBRANCH  30  31
BRANCH  27  36
ATOM     36  C   UNL     1      18.080   8.395  34.598  0.00  0.00    +0.414 C 
ATOM     37  O   UNL     1      19.114   7.776  34.846  0.00  0.00    -0.240 OA
ATOM     38  O   UNL     1      17.748   9.330  35.328  0.00  0.00    -0.240 OA
ENDBRANCH  27  36
BRANCH  27  39
ATOM     39  O   UNL     1      16.249   6.993  33.779  0.00  0.00    -0.343 OA
ATOM     40  C   UNL     1      16.658   5.625  33.525  0.00  0.00    +0.198 C 
ENDBRANCH  27  39
BRANCH  29  41
ATOM     41  O   UNL     1      16.594  11.303  31.595  0.00  0.00    -0.390 OA
ATOM     42  H   UNL     1      17.084  12.127  31.645  0.00  0.00    +0.210 HD
ENDBRANCH  29  41
ENDBRANCH  24  25
BRANCH  24  43
ATOM     43  O   UNL     1      20.784   8.461  30.057  0.00  0.00    -0.387 OA
ATOM     44  H   UNL     1      21.208   8.996  30.732  0.00  0.00    +0.210 HD
ENDBRANCH  24  43
ENDBRANCH   1  24
TORSDOF 15
