REMARK VINA RESULT:    -6.384     14.977     17.445
REMARK INTER + INTRA:         -13.197
REMARK INTER:                  -9.807
REMARK INTRA:                  -3.390
REMARK UNBOUND:                -1.775
REMARK  Name = lig_assembled_69.pdb
REMARK  18 active torsions:
REMARK  status: ('A' for Active; 'I' for Inactive)
REMARK    1  A    between atoms: _2  and  _9
REMARK    2  A    between atoms: _4  and  _21
REMARK    3  A    between atoms: _6  and  _7
REMARK    4  A    between atoms: _6  and  _21
REMARK    5  A    between atoms: _11  and  _16
REMARK    6  A    between atoms: _14  and  _15
REMARK    7  A    between atoms: _17  and  _37
REMARK    8  A    between atoms: _19  and  _25
REMARK    9  A    between atoms: _20  and  _24
REMARK   10  A    between atoms: _24  and  _25
REMARK   11  A    between atoms: _27  and  _28
REMARK   12  A    between atoms: _29  and  _30
REMARK   13  A    between atoms: _31  and  _33
REMARK   14  A    between atoms: _33  and  _34
REMARK   15  A    between atoms: _33  and  _35
REMARK   16  A    between atoms: _35  and  _36
REMARK   17  A    between atoms: _35  and  _37
REMARK   18  A    between atoms: _38  and  _40
REMARK                            x       y       z     vdW  Elec       q    Type
REMARK                         _______ _______ _______ _____ _____    ______ ____
ROOT
ATOM      1  C   UNL     1      17.887  -1.270  22.381  0.00  0.00    +0.163 C 
ENDROOT
BRANCH   1   2
ATOM      2  O   UNL     1      18.432  -2.600  22.367  0.00  0.00    -0.388 OA
ATOM      3  H   UNL     1      19.391  -2.554  22.395  0.00  0.00    +0.210 HD
ENDBRANCH   1   2
BRANCH   1   4
ATOM      4  C   UNL     1      18.019  -0.637  23.777  0.00  0.00    +0.175 C 
BRANCH   4   5
ATOM      5  C   UNL     1      17.936  -1.685  24.897  0.00  0.00    +0.176 C 
ATOM      6  O   UNL     1      16.789  -2.537  24.629  0.00  0.00    -0.332 OA
ATOM      7  C   UNL     1      16.612  -3.669  25.543  0.00  0.00    +0.277 C 
ATOM      8  C   UNL     1      16.566  -3.177  27.011  0.00  0.00    +0.110 C 
ATOM      9  C   UNL     1      17.750  -2.241  27.335  0.00  0.00    +0.143 C 
ATOM     10  C   UNL     1      17.842  -1.101  26.319  0.00  0.00    +0.133 C 
BRANCH  10  11
ATOM     11  N   UNL     1      19.024  -0.267  26.587  0.00  0.00    -0.308 N 
ATOM     12  H   UNL     1      19.935  -0.691  26.478  0.00  0.00    +0.149 HD
ATOM     13  C   UNL     1      18.972   1.013  26.966  0.00  0.00    +0.210 C 
ATOM     14  C   UNL     1      17.569   1.621  27.150  0.00  0.00    +0.109 C 
ATOM     15  O   UNL     1      19.979   1.691  27.169  0.00  0.00    -0.276 OA
ENDBRANCH  10  11
BRANCH   7  16
ATOM     16  C   UNL     1      17.756  -4.690  25.377  0.00  0.00    +0.414 C 
ATOM     17  O   UNL     1      18.164  -5.328  26.347  0.00  0.00    -0.240 OA
ATOM     18  O   UNL     1      18.271  -4.876  24.274  0.00  0.00    -0.240 OA
ENDBRANCH   7  16
BRANCH   7  19
ATOM     19  O   UNL     1      15.343  -4.302  25.233  0.00  0.00    -0.343 OA
ATOM     20  C   UNL     1      14.648  -4.869  26.372  0.00  0.00    +0.198 C 
ENDBRANCH   7  19
BRANCH   9  21
ATOM     21  O   UNL     1      17.587  -1.693  28.643  0.00  0.00    -0.390 OA
ATOM     22  H   UNL     1      17.903  -0.787  28.654  0.00  0.00    +0.210 HD
ENDBRANCH   9  21
ENDBRANCH   4   5
BRANCH   4  23
ATOM     23  O   UNL     1      17.004   0.370  23.963  0.00  0.00    -0.387 OA
ATOM     24  H   UNL     1      17.118   1.064  23.309  0.00  0.00    +0.210 HD
ENDBRANCH   4  23
ENDBRANCH   1   4
BRANCH   1  25
ATOM     25  C   UNL     1      18.608  -0.400  21.357  0.00  0.00    +0.141 C 
BRANCH  25  28
ATOM     26  C   UNL     1      17.538   1.689  20.584  0.00  0.00    +0.401 C 
ATOM     27  O   UNL     1      17.120   1.197  19.533  0.00  0.00    -0.226 OA
ATOM     28  N   UNL     1      18.247   1.017  21.492  0.00  0.00    -0.279 N 
ATOM     29  H   UNL     1      18.553   1.510  22.319  0.00  0.00    +0.152 HD
BRANCH  26  30
ATOM     30  O   UNL     1      17.260   3.063  20.866  0.00  0.00    -0.444 OA
BRANCH  30  31
ATOM     31  C   UNL     1      16.722   3.180  22.186  0.00  0.00    +0.292 C 
BRANCH  31  33
ATOM     32  N   UNL     1      18.615   2.893  23.747  0.00  0.00    -0.131 NA
ATOM     33  C   UNL     1      17.735   3.724  23.108  0.00  0.00    +0.120 A 
ATOM     34  C   UNL     1      17.984   5.023  23.490  0.00  0.00    +0.137 A 
ATOM     35  N   UNL     1      19.017   4.914  24.373  0.00  0.00    -0.248 N 
ATOM     36  N   UNL     1      19.392   3.632  24.524  0.00  0.00    -0.065 NA
BRANCH  35  37
ATOM     37  C   UNL     1      19.659   5.977  25.145  0.00  0.00    +0.114 C 
ATOM     38  C   UNL     1      20.439   5.413  26.339  0.00  0.00    +0.062 C 
ATOM     39  C   UNL     1      19.631   5.151  27.611  0.00  0.00    +0.139 C 
ATOM     40  C   UNL     1      19.149   6.362  28.360  0.00  0.00    +0.002 C 
ATOM     41  C   UNL     1      18.977   7.615  27.908  0.00  0.00    +0.002 C 
ATOM     42  C   UNL     1      19.081   8.103  26.495  0.00  0.00    +0.139 C 
ATOM     43  C   UNL     1      18.644   7.090  25.442  0.00  0.00    +0.062 C 
BRANCH  39  44
ATOM     44  O   UNL     1      20.495   4.459  28.521  0.00  0.00    -0.388 OA
ATOM     45  H   UNL     1      21.175   5.089  28.812  0.00  0.00    +0.210 HD
ENDBRANCH  39  44
BRANCH  42  46
ATOM     46  O   UNL     1      20.408   8.539  26.245  0.00  0.00    -0.388 OA
ATOM     47  H   UNL     1      20.959   8.230  26.984  0.00  0.00    +0.210 HD
ENDBRANCH  42  46
ENDBRANCH  35  37
ENDBRANCH  31  33
ENDBRANCH  30  31
ENDBRANCH  26  30
ENDBRANCH  25  28
ENDBRANCH   1  25
TORSDOF 16
