REMARK VINA RESULT:    -6.489      2.002      3.574
REMARK INTER + INTRA:         -13.078
REMARK INTER:                 -11.341
REMARK INTRA:                  -1.737
REMARK UNBOUND:                -1.847
REMARK  Name = lig_assembled_2.pdb
REMARK  16 active torsions:
REMARK  status: ('A' for Active; 'I' for Inactive)
REMARK    1  A    between atoms: _2  and  _9
REMARK    2  A    between atoms: _4  and  _18
REMARK    3  A    between atoms: _6  and  _7
REMARK    4  A    between atoms: _6  and  _18
REMARK    5  A    between atoms: _14  and  _34
REMARK    6  A    between atoms: _16  and  _22
REMARK    7  A    between atoms: _17  and  _21
REMARK    8  A    between atoms: _21  and  _22
REMARK    9  A    between atoms: _24  and  _25
REMARK   10  A    between atoms: _26  and  _27
REMARK   11  A    between atoms: _28  and  _30
REMARK   12  A    between atoms: _30  and  _31
REMARK   13  A    between atoms: _30  and  _32
REMARK   14  A    between atoms: _32  and  _33
REMARK   15  A    between atoms: _32  and  _34
REMARK   16  A    between atoms: _35  and  _37
REMARK                            x       y       z     vdW  Elec       q    Type
REMARK                         _______ _______ _______ _____ _____    ______ ____
ROOT
ATOM      1  C   UNL     1       5.204   3.351  34.647  0.00  0.00    +0.163 C 
ENDROOT
BRANCH   1   2
ATOM      2  O   UNL     1       6.197   2.425  34.174  0.00  0.00    -0.388 OA
ATOM      3  H   UNL     1       5.782   1.775  33.602  0.00  0.00    +0.210 HD
ENDBRANCH   1   2
BRANCH   1   4
ATOM      4  C   UNL     1       3.830   2.958  34.116  0.00  0.00    +0.141 C 
BRANCH   4   7
ATOM      5  C   UNL     1       3.109   3.216  31.766  0.00  0.00    +0.401 C 
ATOM      6  O   UNL     1       2.284   4.098  32.018  0.00  0.00    -0.226 OA
ATOM      7  N   UNL     1       3.870   2.623  32.687  0.00  0.00    -0.279 N 
ATOM      8  H   UNL     1       4.511   1.903  32.384  0.00  0.00    +0.152 HD
BRANCH   5   9
ATOM      9  O   UNL     1       3.273   2.784  30.413  0.00  0.00    -0.444 OA
BRANCH   9  10
ATOM     10  C   UNL     1       2.062   2.175  29.956  0.00  0.00    +0.292 C 
BRANCH  10  12
ATOM     11  N   UNL     1       0.686   3.702  28.578  0.00  0.00    -0.131 NA
ATOM     12  C   UNL     1       1.660   2.749  28.657  0.00  0.00    +0.121 A 
ATOM     13  C   UNL     1       2.134   2.483  27.393  0.00  0.00    +0.143 A 
ATOM     14  N   UNL     1       1.431   3.329  26.566  0.00  0.00    -0.220 N 
ATOM     15  N   UNL     1       0.548   4.044  27.304  0.00  0.00    -0.060 NA
BRANCH  14  16
ATOM     16  C   UNL     1       1.565   3.514  25.165  0.00  0.00    +0.067 A 
ATOM     17  C   UNL     1       1.444   4.788  24.591  0.00  0.00    +0.029 A 
ATOM     18  C   UNL     1       1.541   4.942  23.203  0.00  0.00    +0.022 A 
ATOM     19  C   UNL     1       1.761   3.832  22.390  0.00  0.00    +0.041 A 
ATOM     20 CL   UNL     1       1.856   4.030  20.685  0.00  0.00    -0.084 Cl
ATOM     21  C   UNL     1       1.897   2.565  22.952  0.00  0.00    +0.022 A 
ATOM     22  C   UNL     1       1.802   2.403  24.337  0.00  0.00    +0.029 A 
ENDBRANCH  14  16
ENDBRANCH  10  12
ENDBRANCH   9  10
ENDBRANCH   5   9
ENDBRANCH   4   7
ENDBRANCH   1   4
BRANCH   1  23
ATOM     23  C   UNL     1       5.535   4.786  34.204  0.00  0.00    +0.175 C 
BRANCH  23  24
ATOM     24  C   UNL     1       6.005   5.660  35.376  0.00  0.00    +0.176 C 
ATOM     25  O   UNL     1       7.395   5.332  35.649  0.00  0.00    -0.332 OA
ATOM     26  C   UNL     1       8.049   6.148  36.677  0.00  0.00    +0.277 C 
ATOM     27  C   UNL     1       7.235   6.113  37.994  0.00  0.00    +0.110 C 
ATOM     28  C   UNL     1       5.743   6.424  37.750  0.00  0.00    +0.143 C 
ATOM     29  C   UNL     1       5.165   5.520  36.660  0.00  0.00    +0.133 C 
BRANCH  29  30
ATOM     30  N   UNL     1       3.769   5.885  36.376  0.00  0.00    -0.308 N 
ATOM     31  H   UNL     1       3.599   6.741  35.867  0.00  0.00    +0.149 HD
ATOM     32  C   UNL     1       2.711   5.158  36.745  0.00  0.00    +0.210 C 
ATOM     33  C   UNL     1       3.002   3.871  37.541  0.00  0.00    +0.109 C 
ATOM     34  O   UNL     1       1.552   5.480  36.480  0.00  0.00    -0.276 OA
ENDBRANCH  29  30
BRANCH  26  35
ATOM     35  C   UNL     1       8.200   7.608  36.202  0.00  0.00    +0.414 C 
ATOM     36  O   UNL     1       8.273   8.522  37.023  0.00  0.00    -0.240 OA
ATOM     37  O   UNL     1       8.248   7.872  35.000  0.00  0.00    -0.240 OA
ENDBRANCH  26  35
BRANCH  28  38
ATOM     38  O   UNL     1       5.007   6.233  38.959  0.00  0.00    -0.390 OA
ATOM     39  H   UNL     1       4.960   5.296  39.160  0.00  0.00    +0.210 HD
ENDBRANCH  28  38
BRANCH  26  40
ATOM     40  O   UNL     1       9.359   5.580  36.934  0.00  0.00    -0.343 OA
ATOM     41  C   UNL     1       9.351   4.328  37.666  0.00  0.00    +0.198 C 
ENDBRANCH  26  40
ENDBRANCH  23  24
BRANCH  23  42
ATOM     42  O   UNL     1       4.390   5.386  33.566  0.00  0.00    -0.387 OA
ATOM     43  H   UNL     1       4.685   6.024  32.912  0.00  0.00    +0.210 HD
ENDBRANCH  23  42
ENDBRANCH   1  23
TORSDOF 14
