REMARK VINA RESULT:    -5.114      3.538      6.996
REMARK INTER + INTRA:         -13.128
REMARK INTER:                 -10.733
REMARK INTRA:                  -2.394
REMARK UNBOUND:                -3.380
REMARK  Name = lig_assembled_62.pdb
REMARK  20 active torsions:
REMARK  status: ('A' for Active; 'I' for Inactive)
REMARK    1  A    between atoms: _2  and  _10
REMARK    2  A    between atoms: _5  and  _19
REMARK    3  A    between atoms: _6  and  _10
REMARK    4  A    between atoms: _7  and  _8
REMARK    5  A    between atoms: _7  and  _19
REMARK    6  A    between atoms: _10  and  _11
REMARK    7  A    between atoms: _11  and  _14
REMARK    8  A    between atoms: _12  and  _14
REMARK    9  A    between atoms: _15  and  _35
REMARK   10  A    between atoms: _17  and  _23
REMARK   11  A    between atoms: _18  and  _22
REMARK   12  A    between atoms: _22  and  _23
REMARK   13  A    between atoms: _25  and  _26
REMARK   14  A    between atoms: _27  and  _28
REMARK   15  A    between atoms: _29  and  _31
REMARK   16  A    between atoms: _31  and  _32
REMARK   17  A    between atoms: _31  and  _33
REMARK   18  A    between atoms: _33  and  _34
REMARK   19  A    between atoms: _33  and  _35
REMARK   20  A    between atoms: _36  and  _38
REMARK                            x       y       z     vdW  Elec       q    Type
REMARK                         _______ _______ _______ _____ _____    ______ ____
ROOT
ATOM      1  C   UNL     1      20.695   5.969  29.111  0.00  0.00    +0.163 C 
ENDROOT
BRANCH   1   2
ATOM      2  O   UNL     1      21.344   5.766  27.844  0.00  0.00    -0.388 OA
ATOM      3  H   UNL     1      20.952   5.010  27.401  0.00  0.00    +0.210 HD
ENDBRANCH   1   2
BRANCH   1   4
ATOM      4  C   UNL     1      19.301   6.590  28.921  0.00  0.00    +0.175 C 
BRANCH   4   5
ATOM      5  C   UNL     1      19.361   8.120  28.801  0.00  0.00    +0.176 C 
ATOM      6  O   UNL     1      18.455   8.682  29.790  0.00  0.00    -0.332 OA
ATOM      7  C   UNL     1      18.459  10.145  29.894  0.00  0.00    +0.277 C 
ATOM      8  C   UNL     1      18.188  10.786  28.511  0.00  0.00    +0.110 C 
ATOM      9  C   UNL     1      19.106  10.197  27.420  0.00  0.00    +0.143 C 
ATOM     10  C   UNL     1      19.026   8.670  27.402  0.00  0.00    +0.133 C 
BRANCH  10  11
ATOM     11  N   UNL     1      19.970   8.116  26.418  0.00  0.00    -0.308 N 
ATOM     12  H   UNL     1      20.952   8.319  26.540  0.00  0.00    +0.149 HD
ATOM     13  C   UNL     1      19.613   7.363  25.374  0.00  0.00    +0.210 C 
ATOM     14  C   UNL     1      18.107   7.094  25.200  0.00  0.00    +0.109 C 
ATOM     15  O   UNL     1      20.428   6.901  24.574  0.00  0.00    -0.276 OA
ENDBRANCH  10  11
BRANCH   7  16
ATOM     16  C   UNL     1      19.810  10.650  30.441  0.00  0.00    +0.414 C 
ATOM     17  O   UNL     1      20.555   9.888  31.055  0.00  0.00    -0.240 OA
ATOM     18  O   UNL     1      20.154  11.820  30.269  0.00  0.00    -0.240 OA
ENDBRANCH   7  16
BRANCH   7  19
ATOM     19  O   UNL     1      17.390  10.533  30.795  0.00  0.00    -0.343 OA
ATOM     20  C   UNL     1      17.308   9.757  32.017  0.00  0.00    +0.198 C 
ENDBRANCH   7  19
BRANCH   9  21
ATOM     21  O   UNL     1      18.721  10.703  26.141  0.00  0.00    -0.390 OA
ATOM     22  H   UNL     1      18.924  10.053  25.464  0.00  0.00    +0.210 HD
ENDBRANCH   9  21
ENDBRANCH   4   5
BRANCH   4  23
ATOM     23  O   UNL     1      18.436   6.211  30.011  0.00  0.00    -0.387 OA
ATOM     24  H   UNL     1      18.061   5.345  29.836  0.00  0.00    +0.210 HD
ENDBRANCH   4  23
ENDBRANCH   1   4
BRANCH   1  25
ATOM     25  C   UNL     1      20.565   4.641  29.849  0.00  0.00    +0.141 C 
BRANCH  25  28
ATOM     26  C   UNL     1      19.838   2.583  28.690  0.00  0.00    +0.401 C 
ATOM     27  O   UNL     1      20.971   2.100  28.637  0.00  0.00    -0.226 OA
ATOM     28  N   UNL     1      19.558   3.769  29.234  0.00  0.00    -0.279 N 
ATOM     29  H   UNL     1      18.598   4.084  29.221  0.00  0.00    +0.152 HD
BRANCH  26  30
ATOM     30  O   UNL     1      18.743   1.848  28.139  0.00  0.00    -0.444 OA
BRANCH  30  31
ATOM     31  C   UNL     1      17.763   2.758  27.631  0.00  0.00    +0.292 C 
BRANCH  31  33
ATOM     32  N   UNL     1      16.396   1.888  25.759  0.00  0.00    -0.131 NA
ATOM     33  C   UNL     1      17.532   2.514  26.195  0.00  0.00    +0.120 A 
ATOM     34  C   UNL     1      18.316   2.829  25.107  0.00  0.00    +0.138 A 
ATOM     35  N   UNL     1      17.611   2.356  24.039  0.00  0.00    -0.237 N 
ATOM     36  N   UNL     1      16.452   1.797  24.437  0.00  0.00    -0.065 NA
BRANCH  35  37
ATOM     37  C   UNL     1      17.927   2.413  22.622  0.00  0.00    +0.219 C 
BRANCH  37  38
ATOM     38  C   UNL     1      16.961   3.341  21.902  0.00  0.00    +0.237 C 
ATOM     39  O   UNL     1      16.717   4.493  22.252  0.00  0.00    -0.274 OA
ATOM     40  N   UNL     1      16.390   2.846  20.760  0.00  0.00    -0.328 N 
ATOM     41  H   UNL     1      16.615   1.942  20.365  0.00  0.00    +0.145 HD
ATOM     42  H   UNL     1      15.749   3.447  20.256  0.00  0.00    +0.145 HD
ENDBRANCH  37  38
BRANCH  37  43
ATOM     43  C   UNL     1      17.904   1.016  22.005  0.00  0.00    +0.195 C 
BRANCH  43  44
ATOM     44  O   UNL     1      18.854   0.182  22.684  0.00  0.00    -0.380 OA
ATOM     45  C   UNL     1      20.185   0.448  22.259  0.00  0.00    +0.194 C 
ENDBRANCH  43  44
ENDBRANCH  37  43
ENDBRANCH  35  37
ENDBRANCH  31  33
ENDBRANCH  30  31
ENDBRANCH  26  30
ENDBRANCH  25  28
ENDBRANCH   1  25
TORSDOF 17
