REMARK VINA RESULT:    -6.541     14.148     15.558
REMARK INTER + INTRA:         -13.767
REMARK INTER:                 -11.618
REMARK INTRA:                  -2.150
REMARK UNBOUND:                -1.873
REMARK  Name = lig_assembled_60.pdb
REMARK  18 active torsions:
REMARK  status: ('A' for Active; 'I' for Inactive)
REMARK    1  A    between atoms: _2  and  _10
REMARK    2  A    between atoms: _3  and  _41
REMARK    3  A    between atoms: _5  and  _21
REMARK    4  A    between atoms: _7  and  _8
REMARK    5  A    between atoms: _7  and  _21
REMARK    6  A    between atoms: _13  and  _41
REMARK    7  A    between atoms: _17  and  _37
REMARK    8  A    between atoms: _19  and  _25
REMARK    9  A    between atoms: _20  and  _24
REMARK   10  A    between atoms: _24  and  _25
REMARK   11  A    between atoms: _27  and  _28
REMARK   12  A    between atoms: _29  and  _30
REMARK   13  A    between atoms: _31  and  _33
REMARK   14  A    between atoms: _33  and  _34
REMARK   15  A    between atoms: _33  and  _35
REMARK   16  A    between atoms: _35  and  _36
REMARK   17  A    between atoms: _35  and  _37
REMARK   18  A    between atoms: _38  and  _40
REMARK                            x       y       z     vdW  Elec       q    Type
REMARK                         _______ _______ _______ _____ _____    ______ ____
ROOT
ATOM      1  C   UNL     1      19.243  10.312  27.664  0.00  0.00    +0.141 C 
ENDROOT
BRANCH   1   4
ATOM      2  C   UNL     1      19.687   8.396  26.168  0.00  0.00    +0.401 C 
ATOM      3  O   UNL     1      20.575   8.973  25.537  0.00  0.00    -0.226 OA
ATOM      4  N   UNL     1      19.007   8.948  27.173  0.00  0.00    -0.279 N 
ATOM      5  H   UNL     1      18.289   8.398  27.623  0.00  0.00    +0.152 HD
BRANCH   2   6
ATOM      6  O   UNL     1      19.345   7.053  25.815  0.00  0.00    -0.444 OA
BRANCH   6   7
ATOM      7  C   UNL     1      19.383   6.909  24.392  0.00  0.00    +0.292 C 
BRANCH   7   9
ATOM      8  N   UNL     1      17.905   5.620  22.881  0.00  0.00    -0.131 NA
ATOM      9  C   UNL     1      18.707   5.663  23.985  0.00  0.00    +0.121 A 
ATOM     10  C   UNL     1      18.749   4.413  24.558  0.00  0.00    +0.143 A 
ATOM     11  N   UNL     1      17.976   3.620  23.741  0.00  0.00    -0.220 N 
ATOM     12  N   UNL     1      17.457   4.379  22.745  0.00  0.00    -0.060 NA
BRANCH  11  13
ATOM     13  C   UNL     1      17.746   2.222  23.824  0.00  0.00    +0.067 A 
ATOM     14  C   UNL     1      18.173   1.365  22.798  0.00  0.00    +0.030 A 
ATOM     15  C   UNL     1      17.879   0.001  22.857  0.00  0.00    +0.030 A 
ATOM     16  C   UNL     1      17.171  -0.510  23.947  0.00  0.00    +0.105 A 
ATOM     17  C   UNL     1      16.755   0.332  24.983  0.00  0.00    +0.030 A 
ATOM     18  C   UNL     1      17.049   1.697  24.924  0.00  0.00    +0.030 A 
BRANCH  16  19
ATOM     19  S   UNL     1      16.738  -2.224  23.971  0.00  0.00    +0.056 S 
ATOM     20  O   UNL     1      17.496  -2.894  25.002  0.00  0.00    -0.153 OA
ATOM     21  O   UNL     1      15.303  -2.350  23.856  0.00  0.00    -0.153 OA
BRANCH  19  22
ATOM     22  N   UNL     1      17.369  -2.756  22.511  0.00  0.00    -0.204 NA
ATOM     23  H   UNL     1      17.708  -3.713  22.609  0.00  0.00    +0.144 HD
ATOM     24  H   UNL     1      18.078  -2.099  22.182  0.00  0.00    +0.144 HD
ENDBRANCH  19  22
ENDBRANCH  16  19
ENDBRANCH  11  13
ENDBRANCH   7   9
ENDBRANCH   6   7
ENDBRANCH   2   6
ENDBRANCH   1   4
BRANCH   1  25
ATOM     25  C   UNL     1      18.750  10.495  29.095  0.00  0.00    +0.163 C 
BRANCH  25  26
ATOM     26  O   UNL     1      17.433  11.069  29.093  0.00  0.00    -0.388 OA
ATOM     27  H   UNL     1      17.500  12.026  29.097  0.00  0.00    +0.210 HD
ENDBRANCH  25  26
BRANCH  25  28
ATOM     28  C   UNL     1      18.757   9.137  29.818  0.00  0.00    +0.175 C 
BRANCH  28  29
ATOM     29  C   UNL     1      17.981   9.183  31.143  0.00  0.00    +0.176 C 
ATOM     30  O   UNL     1      18.228  10.476  31.760  0.00  0.00    -0.332 OA
ATOM     31  C   UNL     1      17.479  10.744  32.992  0.00  0.00    +0.277 C 
ATOM     32  C   UNL     1      17.717   9.616  34.026  0.00  0.00    +0.110 C 
ATOM     33  C   UNL     1      17.498   8.220  33.406  0.00  0.00    +0.143 C 
ATOM     34  C   UNL     1      18.321   8.051  32.129  0.00  0.00    +0.133 C 
BRANCH  34  35
ATOM     35  N   UNL     1      18.037   6.750  31.502  0.00  0.00    -0.308 N 
ATOM     36  H   UNL     1      17.131   6.621  31.075  0.00  0.00    +0.149 HD
ATOM     37  C   UNL     1      18.899   5.731  31.459  0.00  0.00    +0.210 C 
ATOM     38  C   UNL     1      20.263   5.952  32.140  0.00  0.00    +0.109 C 
ATOM     39  O   UNL     1      18.639   4.658  30.913  0.00  0.00    -0.276 OA
ENDBRANCH  34  35
BRANCH  31  40
ATOM     40  C   UNL     1      15.969  10.864  32.699  0.00  0.00    +0.414 C 
ATOM     41  O   UNL     1      15.577  11.465  31.700  0.00  0.00    -0.240 OA
ATOM     42  O   UNL     1      15.143  10.360  33.462  0.00  0.00    -0.240 OA
ENDBRANCH  31  40
BRANCH  33  43
ATOM     43  O   UNL     1      17.873   7.212  34.346  0.00  0.00    -0.390 OA
ATOM     44  H   UNL     1      17.700   6.345  33.972  0.00  0.00    +0.210 HD
ENDBRANCH  33  43
BRANCH  31  45
ATOM     45  O   UNL     1      17.968  11.989  33.553  0.00  0.00    -0.343 OA
ATOM     46  C   UNL     1      19.371  12.262  33.308  0.00  0.00    +0.198 C 
ENDBRANCH  31  45
ENDBRANCH  28  29
BRANCH  28  47
ATOM     47  O   UNL     1      20.112   8.705  30.052  0.00  0.00    -0.387 OA
ATOM     48  H   UNL     1      20.407   9.024  30.908  0.00  0.00    +0.210 HD
ENDBRANCH  28  47
ENDBRANCH  25  28
ENDBRANCH   1  25
TORSDOF 16
