REMARK VINA RESULT:    -6.386      2.498      4.791
REMARK INTER + INTRA:         -16.361
REMARK INTER:                 -12.508
REMARK INTRA:                  -3.854
REMARK UNBOUND:                -3.256
REMARK  Name = lig_assembled_47.pdb
REMARK  22 active torsions:
REMARK  status: ('A' for Active; 'I' for Inactive)
REMARK    1  A    between atoms: _2  and  _9
REMARK    2  A    between atoms: _4  and  _30
REMARK    3  A    between atoms: _6  and  _7
REMARK    4  A    between atoms: _6  and  _30
REMARK    5  A    between atoms: _9  and  _10
REMARK    6  A    between atoms: _10  and  _11
REMARK    7  A    between atoms: _10  and  _12
REMARK    8  A    between atoms: _11  and  _24
REMARK    9  A    between atoms: _12  and  _13
REMARK   10  A    between atoms: _12  and  _19
REMARK   11  A    between atoms: _26  and  _46
REMARK   12  A    between atoms: _28  and  _34
REMARK   13  A    between atoms: _29  and  _33
REMARK   14  A    between atoms: _33  and  _34
REMARK   15  A    between atoms: _36  and  _37
REMARK   16  A    between atoms: _38  and  _39
REMARK   17  A    between atoms: _40  and  _42
REMARK   18  A    between atoms: _42  and  _43
REMARK   19  A    between atoms: _42  and  _44
REMARK   20  A    between atoms: _44  and  _45
REMARK   21  A    between atoms: _44  and  _46
REMARK   22  A    between atoms: _47  and  _49
REMARK                            x       y       z     vdW  Elec       q    Type
REMARK                         _______ _______ _______ _____ _____    ______ ____
ROOT
ATOM      1  C   UNL     1       4.467  23.991  18.130  0.00  0.00    +0.401 C 
ATOM      2  O   UNL     1       5.295  24.901  18.210  0.00  0.00    -0.226 OA
ATOM      3  N   UNL     1       4.410  23.121  17.121  0.00  0.00    -0.279 N 
ATOM      4  H   UNL     1       3.700  22.402  17.150  0.00  0.00    +0.152 HD
ENDROOT
BRANCH   3   5
ATOM      5  C   UNL     1       5.321  23.148  15.970  0.00  0.00    +0.141 C 
BRANCH   5   6
ATOM      6  C   UNL     1       4.760  22.373  14.783  0.00  0.00    +0.163 C 
BRANCH   6   7
ATOM      7  O   UNL     1       5.283  21.034  14.778  0.00  0.00    -0.388 OA
ATOM      8  H   UNL     1       4.596  20.422  14.506  0.00  0.00    +0.210 HD
ENDBRANCH   6   7
BRANCH   6   9
ATOM      9  C   UNL     1       3.223  22.362  14.855  0.00  0.00    +0.175 C 
BRANCH   9  10
ATOM     10  C   UNL     1       2.608  21.311  13.920  0.00  0.00    +0.176 C 
ATOM     11  O   UNL     1       3.158  21.519  12.590  0.00  0.00    -0.332 OA
ATOM     12  C   UNL     1       2.762  20.534  11.579  0.00  0.00    +0.277 C 
ATOM     13  C   UNL     1       1.219  20.434  11.497  0.00  0.00    +0.110 C 
ATOM     14  C   UNL     1       0.586  20.244  12.891  0.00  0.00    +0.143 C 
ATOM     15  C   UNL     1       1.069  21.320  13.864  0.00  0.00    +0.133 C 
BRANCH  15  16
ATOM     16  N   UNL     1       0.527  21.078  15.211  0.00  0.00    -0.308 N 
ATOM     17  H   UNL     1       0.834  20.249  15.701  0.00  0.00    +0.149 HD
ATOM     18  C   UNL     1      -0.344  21.881  15.828  0.00  0.00    +0.210 C 
ATOM     19  C   UNL     1      -0.812  23.122  15.044  0.00  0.00    +0.109 C 
ATOM     20  O   UNL     1      -0.769  21.661  16.962  0.00  0.00    -0.276 OA
ENDBRANCH  15  16
BRANCH  12  21
ATOM     21  C   UNL     1       3.352  19.147  11.905  0.00  0.00    +0.414 C 
ATOM     22  O   UNL     1       2.859  18.132  11.415  0.00  0.00    -0.240 OA
ATOM     23  O   UNL     1       4.321  19.042  12.659  0.00  0.00    -0.240 OA
ENDBRANCH  12  21
BRANCH  12  24
ATOM     24  O   UNL     1       3.260  20.986  10.293  0.00  0.00    -0.343 OA
ATOM     25  C   UNL     1       2.273  21.019   9.231  0.00  0.00    +0.198 C 
ENDBRANCH  12  24
BRANCH  14  26
ATOM     26  O   UNL     1      -0.837  20.309  12.787  0.00  0.00    -0.390 OA
ATOM     27  H   UNL     1      -1.190  19.425  12.660  0.00  0.00    +0.210 HD
ENDBRANCH  14  26
ENDBRANCH   9  10
BRANCH   9  28
ATOM     28  O   UNL     1       2.702  23.670  14.545  0.00  0.00    -0.387 OA
ATOM     29  H   UNL     1       3.119  24.323  15.111  0.00  0.00    +0.210 HD
ENDBRANCH   9  28
ENDBRANCH   6   9
ENDBRANCH   5   6
ENDBRANCH   3   5
BRANCH   1  30
ATOM     30  O   UNL     1       3.502  23.837  19.174  0.00  0.00    -0.444 OA
BRANCH  30  31
ATOM     31  C   UNL     1       2.202  24.165  18.676  0.00  0.00    +0.292 C 
BRANCH  31  33
ATOM     32  N   UNL     1       1.412  22.206  19.981  0.00  0.00    -0.131 NA
ATOM     33  C   UNL     1       1.152  23.420  19.399  0.00  0.00    +0.120 A 
ATOM     34  C   UNL     1      -0.175  23.733  19.596  0.00  0.00    +0.137 A 
ATOM     35  N   UNL     1      -0.676  22.653  20.260  0.00  0.00    -0.251 N 
ATOM     36  N   UNL     1       0.284  21.746  20.507  0.00  0.00    -0.065 NA
BRANCH  35  37
ATOM     37  C   UNL     1      -2.069  22.346  20.552  0.00  0.00    +0.160 C 
BRANCH  37  38
ATOM     38  C   UNL     1      -2.257  21.210  21.562  0.00  0.00    +0.131 C 
BRANCH  38  39
ATOM     39  C   UNL     1      -2.697  21.837  22.878  0.00  0.00    +0.311 C 
ATOM     40  O   UNL     1      -3.735  21.530  23.444  0.00  0.00    -0.251 OA
BRANCH  39  41
ATOM     41  O   UNL     1      -1.828  22.683  23.470  0.00  0.00    -0.480 OA
ATOM     42  H   UNL     1      -2.169  23.505  23.860  0.00  0.00    +0.295 HD
ENDBRANCH  39  41
ENDBRANCH  38  39
BRANCH  38  43
ATOM     43  C   UNL     1      -3.231  20.080  21.100  0.00  0.00    +0.064 C 
BRANCH  43  44
ATOM     44  C   UNL     1      -4.044  20.379  19.838  0.00  0.00    -0.039 A 
ATOM     45  C   UNL     1      -5.355  20.879  19.955  0.00  0.00    +0.004 A 
ATOM     46  C   UNL     1      -6.125  21.163  18.822  0.00  0.00    +0.000 A 
ATOM     47  C   UNL     1      -5.606  20.936  17.551  0.00  0.00    +0.000 A 
ATOM     48  C   UNL     1      -4.320  20.425  17.415  0.00  0.00    +0.000 A 
ATOM     49  C   UNL     1      -3.541  20.158  18.547  0.00  0.00    +0.004 A 
ENDBRANCH  43  44
BRANCH  43  50
ATOM     50  C   UNL     1      -2.492  18.738  21.031  0.00  0.00    -0.039 A 
ATOM     51  C   UNL     1      -3.091  17.571  21.531  0.00  0.00    +0.004 A 
ATOM     52  C   UNL     1      -2.359  16.382  21.629  0.00  0.00    +0.000 A 
ATOM     53  C   UNL     1      -1.033  16.338  21.205  0.00  0.00    +0.000 A 
ATOM     54  C   UNL     1      -0.437  17.474  20.673  0.00  0.00    +0.000 A 
ATOM     55  C   UNL     1      -1.160  18.664  20.587  0.00  0.00    +0.004 A 
ENDBRANCH  43  50
ENDBRANCH  38  43
ENDBRANCH  37  38
ENDBRANCH  35  37
ENDBRANCH  31  33
ENDBRANCH  30  31
ENDBRANCH   1  30
TORSDOF 20
