REMARK VINA RESULT:    -7.107     21.045     25.916
REMARK INTER + INTRA:         -16.813
REMARK INTER:                 -13.339
REMARK INTRA:                  -3.474
REMARK UNBOUND:                -3.474
REMARK  Name = lig_assembled_34.pdb
REMARK  19 active torsions:
REMARK  status: ('A' for Active; 'I' for Inactive)
REMARK    1  A    between atoms: _2  and  _9
REMARK    2  A    between atoms: _4  and  _37
REMARK    3  A    between atoms: _6  and  _7
REMARK    4  A    between atoms: _6  and  _37
REMARK    5  A    between atoms: _11  and  _12
REMARK    6  A    between atoms: _13  and  _14
REMARK    7  A    between atoms: _18  and  _31
REMARK    8  A    between atoms: _33  and  _53
REMARK    9  A    between atoms: _35  and  _41
REMARK   10  A    between atoms: _36  and  _40
REMARK   11  A    between atoms: _40  and  _41
REMARK   12  A    between atoms: _43  and  _44
REMARK   13  A    between atoms: _45  and  _46
REMARK   14  A    between atoms: _47  and  _49
REMARK   15  A    between atoms: _49  and  _50
REMARK   16  A    between atoms: _49  and  _51
REMARK   17  A    between atoms: _51  and  _52
REMARK   18  A    between atoms: _51  and  _53
REMARK   19  A    between atoms: _54  and  _56
REMARK                            x       y       z     vdW  Elec       q    Type
REMARK                         _______ _______ _______ _____ _____    ______ ____
ROOT
ATOM      1  N   UNL     1       1.102   9.698  42.141  0.00  0.00    -0.131 NA
ATOM      2  C   UNL     1       2.404   9.615  41.736  0.00  0.00    +0.121 A 
ATOM      3  C   UNL     1       2.695  10.702  40.949  0.00  0.00    +0.143 A 
ATOM      4  N   UNL     1       1.541  11.454  40.917  0.00  0.00    -0.220 N 
ATOM      5  N   UNL     1       0.577  10.809  41.629  0.00  0.00    -0.060 NA
ENDROOT
BRANCH   4   6
ATOM      6  C   UNL     1       1.339  12.720  40.306  0.00  0.00    +0.068 A 
ATOM      7  C   UNL     1       0.339  13.570  40.789  0.00  0.00    +0.038 A 
ATOM      8  C   UNL     1      -0.003  14.788  40.152  0.00  0.00    +0.007 A 
ATOM      9  C   UNL     1       0.746  15.193  39.028  0.00  0.00    -0.008 A 
ATOM     10  C   UNL     1       1.790  14.350  38.575  0.00  0.00    +0.011 A 
ATOM     11  C   UNL     1       2.076  13.120  39.191  0.00  0.00    +0.028 A 
BRANCH   9  12
ATOM     12  C   UNL     1       0.470  16.424  38.218  0.00  0.00    +0.004 A 
ATOM     13  C   UNL     1       1.101  17.609  38.452  0.00  0.00    +0.026 A 
ATOM     14  C   UNL     1       2.055  17.796  39.552  0.00  0.00    +0.016 A 
ATOM     15  C   UNL     1       2.519  19.012  39.879  0.00  0.00    +0.051 A 
ATOM     16  C   UNL     1       2.106  20.210  39.110  0.00  0.00    +0.183 A 
ATOM     17  O   UNL     1       2.472  21.335  39.439  0.00  0.00    -0.288 OA
ATOM     18  C   UNL     1       1.301  19.993  37.892  0.00  0.00    +0.097 A 
ATOM     19  C   UNL     1       0.863  18.769  37.572  0.00  0.00    +0.140 A 
ATOM     20  O   UNL     1       0.232  18.595  36.349  0.00  0.00    -0.455 OA
ATOM     21  C   UNL     1      -0.438  17.423  36.119  0.00  0.00    +0.140 A 
ATOM     22  C   UNL     1      -1.133  17.335  34.913  0.00  0.00    +0.092 A 
ATOM     23  C   UNL     1      -1.881  16.200  34.641  0.00  0.00    +0.120 A 
ATOM     24  C   UNL     1      -2.005  15.192  35.592  0.00  0.00    +0.046 A 
ATOM     25  C   UNL     1      -1.292  15.289  36.790  0.00  0.00    +0.016 A 
ATOM     26  C   UNL     1      -0.447  16.380  37.043  0.00  0.00    +0.026 A 
BRANCH  23  27
ATOM     27  O   UNL     1      -2.478  16.097  33.419  0.00  0.00    -0.507 OA
ATOM     28  H   UNL     1      -3.257  16.676  33.424  0.00  0.00    +0.292 HD
ENDBRANCH  23  27
ENDBRANCH   9  12
BRANCH   8  29
ATOM     29  C   UNL     1      -1.213  15.520  40.697  0.00  0.00    +0.072 C 
ATOM     30  O   UNL     1      -2.343  15.152  40.240  0.00  0.00    -0.545 OA
ATOM     31  O   UNL     1      -1.023  16.483  41.498  0.00  0.00    -0.545 OA
ENDBRANCH   8  29
ENDBRANCH   4   6
BRANCH   2  32
ATOM     32  C   UNL     1       3.286   8.500  42.131  0.00  0.00    +0.292 C 
BRANCH  32  33
ATOM     33  O   UNL     1       4.494   8.992  42.717  0.00  0.00    -0.444 OA
BRANCH  33  34
ATOM     34  C   UNL     1       5.619   8.451  42.018  0.00  0.00    +0.401 C 
ATOM     35  O   UNL     1       6.499   9.216  41.617  0.00  0.00    -0.226 OA
ATOM     36  N   UNL     1       5.645   7.129  41.847  0.00  0.00    -0.279 N 
ATOM     37  H   UNL     1       4.881   6.584  42.222  0.00  0.00    +0.152 HD
BRANCH  36  38
ATOM     38  C   UNL     1       6.722   6.420  41.145  0.00  0.00    +0.141 C 
BRANCH  38  39
ATOM     39  C   UNL     1       6.330   6.063  39.715  0.00  0.00    +0.163 C 
BRANCH  39  40
ATOM     40  O   UNL     1       4.903   5.925  39.616  0.00  0.00    -0.388 OA
ATOM     41  H   UNL     1       4.669   4.994  39.632  0.00  0.00    +0.210 HD
ENDBRANCH  39  40
BRANCH  39  42
ATOM     42  C   UNL     1       6.846   7.148  38.754  0.00  0.00    +0.175 C 
BRANCH  42  43
ATOM     43  C   UNL     1       7.116   6.594  37.348  0.00  0.00    +0.176 C 
ATOM     44  O   UNL     1       5.834   6.294  36.731  0.00  0.00    -0.332 OA
ATOM     45  C   UNL     1       5.891   5.850  35.335  0.00  0.00    +0.277 C 
ATOM     46  C   UNL     1       6.838   4.633  35.192  0.00  0.00    +0.110 C 
ATOM     47  C   UNL     1       8.204   4.893  35.861  0.00  0.00    +0.143 C 
ATOM     48  C   UNL     1       8.027   5.353  37.309  0.00  0.00    +0.133 C 
BRANCH  48  49
ATOM     49  N   UNL     1       9.330   5.680  37.908  0.00  0.00    -0.308 N 
ATOM     50  H   UNL     1       9.822   6.490  37.556  0.00  0.00    +0.149 HD
ATOM     51  C   UNL     1       9.907   4.978  38.887  0.00  0.00    +0.210 C 
ATOM     52  C   UNL     1       9.145   3.735  39.385  0.00  0.00    +0.109 C 
ATOM     53  O   UNL     1      10.993   5.284  39.380  0.00  0.00    -0.276 OA
ENDBRANCH  48  49
BRANCH  45  54
ATOM     54  C   UNL     1       6.376   6.992  34.417  0.00  0.00    +0.414 C 
ATOM     55  O   UNL     1       7.332   6.817  33.663  0.00  0.00    -0.240 OA
ATOM     56  O   UNL     1       5.811   8.086  34.431  0.00  0.00    -0.240 OA
ENDBRANCH  45  54
BRANCH  47  57
ATOM     57  O   UNL     1       8.986   3.699  35.839  0.00  0.00    -0.390 OA
ATOM     58  H   UNL     1       9.869   3.900  35.521  0.00  0.00    +0.210 HD
ENDBRANCH  47  57
BRANCH  45  59
ATOM     59  O   UNL     1       4.556   5.440  34.940  0.00  0.00    -0.343 OA
ATOM     60  C   UNL     1       3.725   4.940  36.018  0.00  0.00    +0.198 C 
ENDBRANCH  45  59
ENDBRANCH  42  43
BRANCH  42  61
ATOM     61  O   UNL     1       8.039   7.756  39.287  0.00  0.00    -0.387 OA
ATOM     62  H   UNL     1       7.844   8.654  39.566  0.00  0.00    +0.210 HD
ENDBRANCH  42  61
ENDBRANCH  39  42
ENDBRANCH  38  39
ENDBRANCH  36  38
ENDBRANCH  33  34
ENDBRANCH  32  33
ENDBRANCH   2  32
TORSDOF 17
