REMARK VINA RESULT:    -6.123      2.116      3.875
REMARK INTER + INTRA:         -12.629
REMARK INTER:                 -10.421
REMARK INTRA:                  -2.208
REMARK UNBOUND:                -2.031
REMARK  Name = lig_assembled_42.pdb
REMARK  16 active torsions:
REMARK  status: ('A' for Active; 'I' for Inactive)
REMARK    1  A    between atoms: _2  and  _9
REMARK    2  A    between atoms: _4  and  _21
REMARK    3  A    between atoms: _6  and  _7
REMARK    4  A    between atoms: _6  and  _21
REMARK    5  A    between atoms: _17  and  _37
REMARK    6  A    between atoms: _19  and  _25
REMARK    7  A    between atoms: _20  and  _24
REMARK    8  A    between atoms: _24  and  _25
REMARK    9  A    between atoms: _27  and  _28
REMARK   10  A    between atoms: _29  and  _30
REMARK   11  A    between atoms: _31  and  _33
REMARK   12  A    between atoms: _33  and  _34
REMARK   13  A    between atoms: _33  and  _35
REMARK   14  A    between atoms: _35  and  _36
REMARK   15  A    between atoms: _35  and  _37
REMARK   16  A    between atoms: _38  and  _40
REMARK                            x       y       z     vdW  Elec       q    Type
REMARK                         _______ _______ _______ _____ _____    ______ ____
ROOT
ATOM      1  C   UNL     1       6.654   3.284  33.486  0.00  0.00    +0.163 C 
ENDROOT
BRANCH   1   2
ATOM      2  O   UNL     1       7.221   4.453  32.872  0.00  0.00    -0.388 OA
ATOM      3  H   UNL     1       6.634   5.201  33.004  0.00  0.00    +0.210 HD
ENDBRANCH   1   2
BRANCH   1   4
ATOM      4  C   UNL     1       6.172   2.313  32.413  0.00  0.00    +0.141 C 
BRANCH   4   7
ATOM      5  C   UNL     1       4.016   1.395  31.631  0.00  0.00    +0.401 C 
ATOM      6  O   UNL     1       4.524   0.413  31.085  0.00  0.00    -0.226 OA
ATOM      7  N   UNL     1       4.712   2.336  32.270  0.00  0.00    -0.279 N 
ATOM      8  H   UNL     1       4.205   3.110  32.678  0.00  0.00    +0.152 HD
BRANCH   5   9
ATOM      9  O   UNL     1       2.596   1.557  31.587  0.00  0.00    -0.444 OA
BRANCH   9  10
ATOM     10  C   UNL     1       2.272   2.735  30.844  0.00  0.00    +0.292 C 
BRANCH  10  12
ATOM     11  N   UNL     1       1.803   1.150  28.993  0.00  0.00    -0.131 NA
ATOM     12  C   UNL     1       2.095   2.414  29.415  0.00  0.00    +0.121 A 
ATOM     13  C   UNL     1       2.183   3.241  28.321  0.00  0.00    +0.143 A 
ATOM     14  N   UNL     1       1.933   2.433  27.238  0.00  0.00    -0.220 N 
ATOM     15  N   UNL     1       1.705   1.167  27.669  0.00  0.00    -0.060 NA
BRANCH  14  16
ATOM     16  C   UNL     1       1.903   2.787  25.866  0.00  0.00    +0.071 A 
ATOM     17  C   UNL     1       1.468   4.064  25.479  0.00  0.00    +0.077 A 
ATOM     18  C   UNL     1       1.459   4.360  24.133  0.00  0.00    +0.168 A 
ATOM     19  O   UNL     1       1.071   5.546  23.596  0.00  0.00    -0.453 OA
ATOM     20  C   UNL     1       1.276   5.286  22.193  0.00  0.00    +0.466 C 
ATOM     21  O   UNL     1       1.770   3.956  21.923  0.00  0.00    -0.453 OA
ATOM     22  C   UNL     1       1.858   3.453  23.183  0.00  0.00    +0.166 A 
ATOM     23  C   UNL     1       2.290   2.190  23.525  0.00  0.00    +0.051 A 
ATOM     24  C   UNL     1       2.314   1.852  24.885  0.00  0.00    +0.031 A 
ENDBRANCH  14  16
ENDBRANCH  10  12
ENDBRANCH   9  10
ENDBRANCH   5   9
ENDBRANCH   4   7
ENDBRANCH   1   4
BRANCH   1  25
ATOM     25  C   UNL     1       5.479   3.659  34.405  0.00  0.00    +0.175 C 
BRANCH  25  26
ATOM     26  C   UNL     1       5.784   4.900  35.256  0.00  0.00    +0.176 C 
ATOM     27  O   UNL     1       7.196   4.868  35.603  0.00  0.00    -0.332 OA
ATOM     28  C   UNL     1       7.697   6.037  36.332  0.00  0.00    +0.277 C 
ATOM     29  C   UNL     1       6.851   6.284  37.605  0.00  0.00    +0.110 C 
ATOM     30  C   UNL     1       5.340   6.296  37.291  0.00  0.00    +0.143 C 
ATOM     31  C   UNL     1       4.928   5.035  36.529  0.00  0.00    +0.133 C 
BRANCH  31  32
ATOM     32  N   UNL     1       3.505   5.098  36.160  0.00  0.00    -0.308 N 
ATOM     33  H   UNL     1       3.233   5.752  35.440  0.00  0.00    +0.149 HD
ATOM     34  C   UNL     1       2.550   4.347  36.714  0.00  0.00    +0.210 C 
ATOM     35  C   UNL     1       2.993   3.378  37.827  0.00  0.00    +0.109 C 
ATOM     36  O   UNL     1       1.368   4.410  36.374  0.00  0.00    -0.276 OA
ENDBRANCH  31  32
BRANCH  28  37
ATOM     37  C   UNL     1       7.663   7.294  35.439  0.00  0.00    +0.414 C 
ATOM     38  O   UNL     1       7.810   8.411  35.934  0.00  0.00    -0.240 OA
ATOM     39  O   UNL     1       7.490   7.192  34.223  0.00  0.00    -0.240 OA
ENDBRANCH  28  37
BRANCH  30  40
ATOM     40  O   UNL     1       4.595   6.374  38.507  0.00  0.00    -0.390 OA
ATOM     41  H   UNL     1       3.943   7.074  38.439  0.00  0.00    +0.210 HD
ENDBRANCH  30  40
BRANCH  28  42
ATOM     42  O   UNL     1       9.063   5.762  36.737  0.00  0.00    -0.343 OA
ATOM     43  C   UNL     1       9.334   4.379  37.076  0.00  0.00    +0.198 C 
ENDBRANCH  28  42
ENDBRANCH  25  26
BRANCH  25  44
ATOM     44  O   UNL     1       5.137   2.546  35.254  0.00  0.00    -0.387 OA
ATOM     45  H   UNL     1       4.741   2.872  36.066  0.00  0.00    +0.210 HD
ENDBRANCH  25  44
ENDBRANCH   1  25
TORSDOF 14
