REMARK VINA RESULT:    -5.974     13.976     17.414
REMARK INTER + INTRA:         -12.404
REMARK INTER:                 -10.655
REMARK INTRA:                  -1.749
REMARK UNBOUND:                -2.065
REMARK  Name = lig_assembled_49.pdb
REMARK  16 active torsions:
REMARK  status: ('A' for Active; 'I' for Inactive)
REMARK    1  A    between atoms: _2  and  _9
REMARK    2  A    between atoms: _4  and  _17
REMARK    3  A    between atoms: _6  and  _7
REMARK    4  A    between atoms: _6  and  _17
REMARK    5  A    between atoms: _13  and  _33
REMARK    6  A    between atoms: _15  and  _21
REMARK    7  A    between atoms: _16  and  _20
REMARK    8  A    between atoms: _20  and  _21
REMARK    9  A    between atoms: _23  and  _24
REMARK   10  A    between atoms: _25  and  _26
REMARK   11  A    between atoms: _27  and  _29
REMARK   12  A    between atoms: _29  and  _30
REMARK   13  A    between atoms: _29  and  _31
REMARK   14  A    between atoms: _31  and  _32
REMARK   15  A    between atoms: _31  and  _33
REMARK   16  A    between atoms: _34  and  _36
REMARK                            x       y       z     vdW  Elec       q    Type
REMARK                         _______ _______ _______ _____ _____    ______ ____
ROOT
ATOM      1  C   UNL     1      16.680   0.656  26.263  0.00  0.00    +0.175 C 
ENDROOT
BRANCH   1   2
ATOM      2  C   UNL     1      17.454   0.792  24.944  0.00  0.00    +0.176 C 
ATOM      3  O   UNL     1      16.861   1.884  24.188  0.00  0.00    -0.332 OA
ATOM      4  C   UNL     1      17.541   2.232  22.937  0.00  0.00    +0.277 C 
ATOM      5  C   UNL     1      17.679   0.983  22.031  0.00  0.00    +0.110 C 
ATOM      6  C   UNL     1      18.276  -0.214  22.800  0.00  0.00    +0.143 C 
ATOM      7  C   UNL     1      17.494  -0.486  24.086  0.00  0.00    +0.133 C 
BRANCH   7   8
ATOM      8  N   UNL     1      18.124  -1.573  24.852  0.00  0.00    -0.308 N 
ATOM      9  H   UNL     1      19.081  -1.446  25.151  0.00  0.00    +0.149 HD
ATOM     10  C   UNL     1      17.515  -2.716  25.177  0.00  0.00    +0.210 C 
ATOM     11  C   UNL     1      16.066  -2.890  24.683  0.00  0.00    +0.109 C 
ATOM     12  O   UNL     1      18.063  -3.603  25.833  0.00  0.00    -0.276 OA
ENDBRANCH   7   8
BRANCH   4  13
ATOM     13  C   UNL     1      18.939   2.821  23.219  0.00  0.00    +0.414 C 
ATOM     14  O   UNL     1      19.060   3.813  23.937  0.00  0.00    -0.240 OA
ATOM     15  O   UNL     1      19.944   2.305  22.729  0.00  0.00    -0.240 OA
ENDBRANCH   4  13
BRANCH   6  16
ATOM     16  O   UNL     1      18.245  -1.380  21.975  0.00  0.00    -0.390 OA
ATOM     17  H   UNL     1      18.530  -1.152  21.087  0.00  0.00    +0.210 HD
ENDBRANCH   6  16
BRANCH   4  18
ATOM     18  O   UNL     1      16.729   3.213  22.242  0.00  0.00    -0.343 OA
ATOM     19  C   UNL     1      16.389   2.869  20.875  0.00  0.00    +0.198 C 
ENDBRANCH   4  18
ENDBRANCH   1   2
BRANCH   1  20
ATOM     20  O   UNL     1      15.280   0.439  25.998  0.00  0.00    -0.387 OA
ATOM     21  H   UNL     1      14.924   1.193  25.523  0.00  0.00    +0.210 HD
ENDBRANCH   1  20
BRANCH   1  22
ATOM     22  C   UNL     1      16.864   1.884  27.171  0.00  0.00    +0.163 C 
BRANCH  22  23
ATOM     23  O   UNL     1      15.885   2.894  26.874  0.00  0.00    -0.388 OA
ATOM     24  H   UNL     1      16.290   3.588  26.349  0.00  0.00    +0.210 HD
ENDBRANCH  22  23
BRANCH  22  25
ATOM     25  C   UNL     1      18.268   2.449  26.987  0.00  0.00    +0.141 C 
BRANCH  25  28
ATOM     26  C   UNL     1      18.755   4.730  27.804  0.00  0.00    +0.401 C 
ATOM     27  O   UNL     1      19.262   4.345  28.860  0.00  0.00    -0.226 OA
ATOM     28  N   UNL     1      18.259   3.913  26.874  0.00  0.00    -0.279 N 
ATOM     29  H   UNL     1      17.855   4.324  26.044  0.00  0.00    +0.152 HD
BRANCH  26  30
ATOM     30  O   UNL     1      18.680   6.133  27.541  0.00  0.00    -0.444 OA
BRANCH  30  31
ATOM     31  C   UNL     1      19.639   6.823  28.347  0.00  0.00    +0.292 C 
BRANCH  31  33
ATOM     32  N   UNL     1      18.671   9.012  28.970  0.00  0.00    -0.131 NA
ATOM     33  C   UNL     1      18.959   7.716  29.304  0.00  0.00    +0.120 A 
ATOM     34  C   UNL     1      18.526   7.474  30.589  0.00  0.00    +0.137 A 
ATOM     35  N   UNL     1      17.990   8.665  30.984  0.00  0.00    -0.248 N 
ATOM     36  N   UNL     1      18.076   9.584  30.007  0.00  0.00    -0.065 NA
BRANCH  35  37
ATOM     37  C   UNL     1      17.409   8.989  32.264  0.00  0.00    +0.109 C 
ATOM     38  C   UNL     1      17.000  10.457  32.404  0.00  0.00    +0.027 C 
ATOM     39  C   UNL     1      16.055  10.433  33.594  0.00  0.00    +0.002 C 
ATOM     40  C   UNL     1      15.248   9.155  33.405  0.00  0.00    +0.002 C 
ATOM     41  C   UNL     1      16.139   8.199  32.607  0.00  0.00    +0.027 C 
ENDBRANCH  35  37
ENDBRANCH  31  33
ENDBRANCH  30  31
ENDBRANCH  26  30
ENDBRANCH  25  28
ENDBRANCH  22  25
ENDBRANCH   1  22
TORSDOF 14
