REMARK VINA RESULT:    -6.569      1.653      3.837
REMARK INTER + INTRA:         -13.566
REMARK INTER:                 -11.555
REMARK INTRA:                  -2.011
REMARK UNBOUND:                -1.813
REMARK  Name = lig_assembled_41.pdb
REMARK  18 active torsions:
REMARK  status: ('A' for Active; 'I' for Inactive)
REMARK    1  A    between atoms: _2  and  _9
REMARK    2  A    between atoms: _4  and  _21
REMARK    3  A    between atoms: _6  and  _7
REMARK    4  A    between atoms: _6  and  _21
REMARK    5  A    between atoms: _10  and  _11
REMARK    6  A    between atoms: _11  and  _12
REMARK    7  A    between atoms: _17  and  _37
REMARK    8  A    between atoms: _19  and  _25
REMARK    9  A    between atoms: _20  and  _24
REMARK   10  A    between atoms: _24  and  _25
REMARK   11  A    between atoms: _27  and  _28
REMARK   12  A    between atoms: _29  and  _30
REMARK   13  A    between atoms: _31  and  _33
REMARK   14  A    between atoms: _33  and  _34
REMARK   15  A    between atoms: _33  and  _35
REMARK   16  A    between atoms: _35  and  _36
REMARK   17  A    between atoms: _35  and  _37
REMARK   18  A    between atoms: _38  and  _40
REMARK                            x       y       z     vdW  Elec       q    Type
REMARK                         _______ _______ _______ _____ _____    ______ ____
ROOT
ATOM      1  C   UNL     1       3.346   2.926  32.588  0.00  0.00    +0.163 C 
ENDROOT
BRANCH   1   2
ATOM      2  O   UNL     1       4.150   2.071  31.760  0.00  0.00    -0.388 OA
ATOM      3  H   UNL     1       5.060   2.091  32.065  0.00  0.00    +0.210 HD
ENDBRANCH   1   2
BRANCH   1   4
ATOM      4  C   UNL     1       2.309   3.652  31.737  0.00  0.00    +0.141 C 
BRANCH   4   7
ATOM      5  C   UNL     1       1.427   2.612  29.677  0.00  0.00    +0.401 C 
ATOM      6  O   UNL     1       0.368   2.254  30.199  0.00  0.00    -0.226 OA
ATOM      7  N   UNL     1       2.393   3.265  30.324  0.00  0.00    -0.279 N 
ATOM      8  H   UNL     1       3.230   3.507  29.812  0.00  0.00    +0.152 HD
BRANCH   5   9
ATOM      9  O   UNL     1       1.656   2.315  28.298  0.00  0.00    -0.444 OA
BRANCH   9  10
ATOM     10  C   UNL     1       2.159   3.478  27.636  0.00  0.00    +0.292 C 
BRANCH  10  12
ATOM     11  N   UNL     1       0.422   3.816  25.918  0.00  0.00    -0.131 NA
ATOM     12  C   UNL     1       1.710   3.505  26.232  0.00  0.00    +0.121 A 
ATOM     13  C   UNL     1       2.412   3.273  25.069  0.00  0.00    +0.143 A 
ATOM     14  N   UNL     1       1.476   3.348  24.063  0.00  0.00    -0.219 N 
ATOM     15  N   UNL     1       0.298   3.773  24.600  0.00  0.00    -0.060 NA
BRANCH  14  16
ATOM     16  C   UNL     1       1.606   3.169  22.656  0.00  0.00    +0.077 A 
ATOM     17  C   UNL     1       1.680   1.918  22.008  0.00  0.00    +0.043 A 
ATOM     18  C   UNL     1       1.859   1.889  20.609  0.00  0.00    +0.013 A 
ATOM     19  C   UNL     1       1.971   3.066  19.866  0.00  0.00    +0.001 A 
ATOM     20  C   UNL     1       1.873   4.296  20.500  0.00  0.00    +0.002 A 
ATOM     21  C   UNL     1       1.681   4.348  21.879  0.00  0.00    +0.028 A 
BRANCH  17  22
ATOM     22  C   UNL     1       1.373   0.616  22.674  0.00  0.00    +0.162 C 
ATOM     23  O   UNL     1       2.189   0.131  23.454  0.00  0.00    -0.292 OA
ATOM     24  C   UNL     1       0.070  -0.094  22.392  0.00  0.00    +0.091 C 
ENDBRANCH  17  22
ENDBRANCH  14  16
ENDBRANCH  10  12
ENDBRANCH   9  10
ENDBRANCH   5   9
ENDBRANCH   4   7
ENDBRANCH   1   4
BRANCH   1  25
ATOM     25  C   UNL     1       4.219   3.957  33.325  0.00  0.00    +0.175 C 
BRANCH  25  26
ATOM     26  C   UNL     1       5.635   3.426  33.597  0.00  0.00    +0.176 C 
ATOM     27  O   UNL     1       5.514   2.062  34.084  0.00  0.00    -0.332 OA
ATOM     28  C   UNL     1       6.779   1.352  34.299  0.00  0.00    +0.277 C 
ATOM     29  C   UNL     1       7.703   2.164  35.239  0.00  0.00    +0.110 C 
ATOM     30  C   UNL     1       7.836   3.631  34.779  0.00  0.00    +0.143 C 
ATOM     31  C   UNL     1       6.461   4.272  34.583  0.00  0.00    +0.133 C 
BRANCH  31  32
ATOM     32  N   UNL     1       6.600   5.640  34.061  0.00  0.00    -0.308 N 
ATOM     33  H   UNL     1       6.918   5.752  33.109  0.00  0.00    +0.149 HD
ATOM     34  C   UNL     1       6.333   6.744  34.764  0.00  0.00    +0.210 C 
ATOM     35  C   UNL     1       5.875   6.541  36.221  0.00  0.00    +0.109 C 
ATOM     36  O   UNL     1       6.444   7.878  34.296  0.00  0.00    -0.276 OA
ENDBRANCH  31  32
BRANCH  28  37
ATOM     37  C   UNL     1       7.500   1.101  32.958  0.00  0.00    +0.414 C 
ATOM     38  O   UNL     1       6.900   0.577  32.020  0.00  0.00    -0.240 OA
ATOM     39  O   UNL     1       8.680   1.422  32.815  0.00  0.00    -0.240 OA
ENDBRANCH  28  37
BRANCH  30  40
ATOM     40  O   UNL     1       8.568   4.377  35.752  0.00  0.00    -0.390 OA
ATOM     41  H   UNL     1       8.262   4.145  36.631  0.00  0.00    +0.210 HD
ENDBRANCH  30  40
BRANCH  28  42
ATOM     42  O   UNL     1       6.479   0.083  34.937  0.00  0.00    -0.343 OA
ATOM     43  C   UNL     1       7.623  -0.602  35.506  0.00  0.00    +0.198 C 
ENDBRANCH  28  42
ENDBRANCH  25  26
BRANCH  25  44
ATOM     44  O   UNL     1       3.589   4.348  34.561  0.00  0.00    -0.387 OA
ATOM     45  H   UNL     1       2.666   4.084  34.548  0.00  0.00    +0.210 HD
ENDBRANCH  25  44
ENDBRANCH   1  25
TORSDOF 15
