REMARK VINA RESULT:    -5.669      7.302     12.001
REMARK INTER + INTRA:         -13.456
REMARK INTER:                 -11.165
REMARK INTRA:                  -2.291
REMARK UNBOUND:                -3.313
REMARK  Name = lig_assembled_71.pdb
REMARK  17 active torsions:
REMARK  status: ('A' for Active; 'I' for Inactive)
REMARK    1  A    between atoms: _2  and  _12
REMARK    2  A    between atoms: _7  and  _22
REMARK    3  A    between atoms: _9  and  _10
REMARK    4  A    between atoms: _9  and  _22
REMARK    5  A    between atoms: _12  and  _13
REMARK    6  A    between atoms: _18  and  _38
REMARK    7  A    between atoms: _20  and  _26
REMARK    8  A    between atoms: _21  and  _25
REMARK    9  A    between atoms: _25  and  _26
REMARK   10  A    between atoms: _28  and  _29
REMARK   11  A    between atoms: _30  and  _31
REMARK   12  A    between atoms: _32  and  _34
REMARK   13  A    between atoms: _34  and  _35
REMARK   14  A    between atoms: _34  and  _36
REMARK   15  A    between atoms: _36  and  _37
REMARK   16  A    between atoms: _36  and  _38
REMARK   17  A    between atoms: _39  and  _41
REMARK                            x       y       z     vdW  Elec       q    Type
REMARK                         _______ _______ _______ _____ _____    ______ ____
ROOT
ATOM      1  C   UNL     1       9.400   3.077  36.440  0.00  0.00    +0.163 C 
ENDROOT
BRANCH   1   2
ATOM      2  O   UNL     1       9.810   4.065  37.399  0.00  0.00    -0.388 OA
ATOM      3  H   UNL     1       9.871   4.922  36.970  0.00  0.00    +0.210 HD
ENDBRANCH   1   2
BRANCH   1   4
ATOM      4  C   UNL     1      10.527   2.076  36.207  0.00  0.00    +0.141 C 
BRANCH   4   7
ATOM      5  C   UNL     1      12.689   3.068  35.538  0.00  0.00    +0.401 C 
ATOM      6  O   UNL     1      13.099   3.187  36.694  0.00  0.00    -0.226 OA
ATOM      7  N   UNL     1      11.496   2.565  35.218  0.00  0.00    -0.279 N 
ATOM      8  H   UNL     1      11.245   2.516  34.241  0.00  0.00    +0.152 HD
BRANCH   5   9
ATOM      9  O   UNL     1      13.524   3.493  34.457  0.00  0.00    -0.444 OA
BRANCH   9  10
ATOM     10  C   UNL     1      14.792   3.911  34.969  0.00  0.00    +0.292 C 
BRANCH  10  12
ATOM     11  N   UNL     1      14.992   5.555  33.119  0.00  0.00    -0.131 NA
ATOM     12  C   UNL     1      15.142   5.246  34.446  0.00  0.00    +0.120 A 
ATOM     13  C   UNL     1      15.634   6.345  35.108  0.00  0.00    +0.137 A 
ATOM     14  N   UNL     1      15.779   7.287  34.132  0.00  0.00    -0.242 N 
ATOM     15  N   UNL     1      15.378   6.812  32.939  0.00  0.00    -0.065 NA
BRANCH  14  16
ATOM     16  C   UNL     1      16.175   8.675  34.264  0.00  0.00    +0.241 C 
BRANCH  16  17
ATOM     17  C   UNL     1      16.482   9.298  32.927  0.00  0.00    +0.241 C 
ATOM     18  O   UNL     1      15.791  10.224  32.506  0.00  0.00    -0.273 OA
ATOM     19  N   UNL     1      17.512   8.694  32.237  0.00  0.00    -0.253 N 
ATOM     20  H   UNL     1      17.913   7.817  32.530  0.00  0.00    +0.158 HD
ATOM     21  C   UNL     1      17.972   9.125  30.998  0.00  0.00    +0.221 A 
ATOM     22  N   UNL     1      18.767   8.261  30.349  0.00  0.00    -0.223 NA
ATOM     23  C   UNL     1      19.162   8.632  29.111  0.00  0.00    +0.116 A 
ATOM     24  C   UNL     1      18.820   9.826  28.524  0.00  0.00    +0.039 A 
ATOM     25  C   UNL     1      18.044  10.653  29.293  0.00  0.00    +0.116 A 
ATOM     26  N   UNL     1      17.615  10.321  30.520  0.00  0.00    -0.223 NA
ENDBRANCH  16  17
ENDBRANCH  14  16
ENDBRANCH  10  12
ENDBRANCH   9  10
ENDBRANCH   5   9
ENDBRANCH   4   7
ENDBRANCH   1   4
BRANCH   1  27
ATOM     27  C   UNL     1       9.011   3.734  35.105  0.00  0.00    +0.175 C 
BRANCH  27  28
ATOM     28  C   UNL     1       7.791   4.656  35.248  0.00  0.00    +0.176 C 
ATOM     29  O   UNL     1       8.197   5.816  36.026  0.00  0.00    -0.332 OA
ATOM     30  C   UNL     1       7.183   6.864  36.176  0.00  0.00    +0.277 C 
ATOM     31  C   UNL     1       5.876   6.273  36.760  0.00  0.00    +0.110 C 
ATOM     32  C   UNL     1       5.423   5.018  35.985  0.00  0.00    +0.143 C 
ATOM     33  C   UNL     1       6.555   3.995  35.886  0.00  0.00    +0.133 C 
BRANCH  33  34
ATOM     34  N   UNL     1       6.139   2.843  35.071  0.00  0.00    -0.308 N 
ATOM     35  H   UNL     1       5.966   2.998  34.088  0.00  0.00    +0.149 HD
ATOM     36  C   UNL     1       5.975   1.605  35.546  0.00  0.00    +0.210 C 
ATOM     37  C   UNL     1       6.221   1.407  37.054  0.00  0.00    +0.109 C 
ATOM     38  O   UNL     1       5.639   0.656  34.838  0.00  0.00    -0.276 OA
ENDBRANCH  33  34
BRANCH  30  39
ATOM     39  C   UNL     1       6.884   7.535  34.820  0.00  0.00    +0.414 C 
ATOM     40  O   UNL     1       5.762   7.451  34.320  0.00  0.00    -0.240 OA
ATOM     41  O   UNL     1       7.763   8.159  34.225  0.00  0.00    -0.240 OA
ENDBRANCH  30  39
BRANCH  30  42
ATOM     42  O   UNL     1       7.694   7.852  37.108  0.00  0.00    -0.343 OA
ATOM     43  C   UNL     1       8.273   7.309  38.321  0.00  0.00    +0.198 C 
ENDBRANCH  30  42
BRANCH  32  44
ATOM     44  O   UNL     1       4.306   4.421  36.646  0.00  0.00    -0.390 OA
ATOM     45  H   UNL     1       4.484   3.490  36.798  0.00  0.00    +0.210 HD
ENDBRANCH  32  44
ENDBRANCH  27  28
BRANCH  27  46
ATOM     46  O   UNL     1       8.755   2.723  34.109  0.00  0.00    -0.387 OA
ATOM     47  H   UNL     1       8.396   3.134  33.320  0.00  0.00    +0.210 HD
ENDBRANCH  27  46
ENDBRANCH   1  27
TORSDOF 15
