REMARK VINA RESULT:    -4.431     14.999     17.699
REMARK INTER + INTRA:         -12.623
REMARK INTER:                  -9.889
REMARK INTRA:                  -2.734
REMARK UNBOUND:                -4.177
REMARK  Name = lig_assembled_50.pdb
REMARK  20 active torsions:
REMARK  status: ('A' for Active; 'I' for Inactive)
REMARK    1  A    between atoms: _2  and  _9
REMARK    2  A    between atoms: _4  and  _17
REMARK    3  A    between atoms: _5  and  _10
REMARK    4  A    between atoms: _5  and  _11
REMARK    5  A    between atoms: _6  and  _7
REMARK    6  A    between atoms: _6  and  _17
REMARK    7  A    between atoms: _9  and  _10
REMARK    8  A    between atoms: _10  and  _12
REMARK    9  A    between atoms: _13  and  _33
REMARK   10  A    between atoms: _15  and  _21
REMARK   11  A    between atoms: _16  and  _20
REMARK   12  A    between atoms: _20  and  _21
REMARK   13  A    between atoms: _23  and  _24
REMARK   14  A    between atoms: _25  and  _26
REMARK   15  A    between atoms: _27  and  _29
REMARK   16  A    between atoms: _29  and  _30
REMARK   17  A    between atoms: _29  and  _31
REMARK   18  A    between atoms: _31  and  _32
REMARK   19  A    between atoms: _31  and  _33
REMARK   20  A    between atoms: _34  and  _36
REMARK                            x       y       z     vdW  Elec       q    Type
REMARK                         _______ _______ _______ _____ _____    ______ ____
ROOT
ATOM      1  C   UNL     1       1.785   0.662  24.450  0.00  0.00    +0.163 C 
ENDROOT
BRANCH   1   2
ATOM      2  O   UNL     1       2.586   0.245  23.333  0.00  0.00    -0.388 OA
ATOM      3  H   UNL     1       2.059  -0.305  22.748  0.00  0.00    +0.210 HD
ENDBRANCH   1   2
BRANCH   1   4
ATOM      4  C   UNL     1       0.368   1.051  23.997  0.00  0.00    +0.175 C 
BRANCH   4   5
ATOM      5  C   UNL     1       0.330   2.446  23.355  0.00  0.00    +0.176 C 
ATOM      6  O   UNL     1       1.031   2.372  22.083  0.00  0.00    -0.332 OA
ATOM      7  C   UNL     1       1.006   3.594  21.273  0.00  0.00    +0.277 C 
ATOM      8  C   UNL     1       1.533   4.798  22.093  0.00  0.00    +0.110 C 
ATOM      9  C   UNL     1       0.838   4.898  23.468  0.00  0.00    +0.143 C 
ATOM     10  C   UNL     1       0.922   3.571  24.223  0.00  0.00    +0.133 C 
BRANCH  10  11
ATOM     11  N   UNL     1       0.182   3.654  25.492  0.00  0.00    -0.308 N 
ATOM     12  H   UNL     1      -0.825   3.723  25.448  0.00  0.00    +0.149 HD
ATOM     13  C   UNL     1       0.755   3.643  26.699  0.00  0.00    +0.210 C 
ATOM     14  C   UNL     1       2.293   3.564  26.732  0.00  0.00    +0.109 C 
ATOM     15  O   UNL     1       0.109   3.699  27.746  0.00  0.00    -0.276 OA
ENDBRANCH  10  11
BRANCH   7  16
ATOM     16  C   UNL     1      -0.425   3.894  20.780  0.00  0.00    +0.414 C 
ATOM     17  O   UNL     1      -1.228   2.976  20.613  0.00  0.00    -0.240 OA
ATOM     18  O   UNL     1      -0.776   5.051  20.548  0.00  0.00    -0.240 OA
ENDBRANCH   7  16
BRANCH   9  19
ATOM     19  O   UNL     1       1.457   5.923  24.246  0.00  0.00    -0.390 OA
ATOM     20  H   UNL     1       1.284   6.778  23.846  0.00  0.00    +0.210 HD
ENDBRANCH   9  19
BRANCH   7  21
ATOM     21  O   UNL     1       1.884   3.397  20.135  0.00  0.00    -0.343 OA
ATOM     22  C   UNL     1       2.002   2.024  19.684  0.00  0.00    +0.198 C 
ENDBRANCH   7  21
ENDBRANCH   4   5
BRANCH   4  23
ATOM     23  O   UNL     1      -0.544   0.992  25.111  0.00  0.00    -0.387 OA
ATOM     24  H   UNL     1      -0.262   0.305  25.720  0.00  0.00    +0.210 HD
ENDBRANCH   4  23
ENDBRANCH   1   4
BRANCH   1  25
ATOM     25  C   UNL     1       1.700  -0.461  25.479  0.00  0.00    +0.141 C 
BRANCH  25  28
ATOM     26  C   UNL     1       1.921   0.220  27.844  0.00  0.00    +0.401 C 
ATOM     27  O   UNL     1       0.708   0.360  28.015  0.00  0.00    -0.226 OA
ATOM     28  N   UNL     1       2.473  -0.154  26.689  0.00  0.00    -0.279 N 
ATOM     29  H   UNL     1       3.479  -0.232  26.645  0.00  0.00    +0.152 HD
BRANCH  26  30
ATOM     30  O   UNL     1       2.810   0.474  28.935  0.00  0.00    -0.444 OA
BRANCH  30  31
ATOM     31  C   UNL     1       2.244   1.472  29.790  0.00  0.00    +0.292 C 
BRANCH  31  33
ATOM     32  N   UNL     1       3.163   3.118  31.400  0.00  0.00    -0.131 NA
ATOM     33  C   UNL     1       3.214   1.870  30.830  0.00  0.00    +0.120 A 
ATOM     34  C   UNL     1       4.250   1.158  31.397  0.00  0.00    +0.137 A 
ATOM     35  N   UNL     1       4.790   2.026  32.292  0.00  0.00    -0.249 N 
ATOM     36  N   UNL     1       4.126   3.197  32.304  0.00  0.00    -0.065 NA
BRANCH  35  37
ATOM     37  C   UNL     1       5.930   1.828  33.158  0.00  0.00    +0.178 C 
BRANCH  37  38
ATOM     38  C   UNL     1       7.051   2.855  32.961  0.00  0.00    +0.161 C 
BRANCH  38  39
ATOM     39  O   UNL     1       7.036   3.443  31.657  0.00  0.00    -0.388 OA
ATOM     40  H   UNL     1       7.926   3.346  31.261  0.00  0.00    +0.210 HD
ENDBRANCH  38  39
BRANCH  38  41
ATOM     41  C   UNL     1       7.067   3.959  34.026  0.00  0.00    +0.189 C 
BRANCH  41  42
ATOM     42  O   UNL     1       6.218   5.047  33.660  0.00  0.00    -0.392 OA
ATOM     43  H   UNL     1       6.517   5.389  32.797  0.00  0.00    +0.210 HD
ENDBRANCH  41  42
ENDBRANCH  38  41
ENDBRANCH  37  38
ENDBRANCH  35  37
ENDBRANCH  31  33
ENDBRANCH  30  31
ENDBRANCH  26  30
ENDBRANCH  25  28
ENDBRANCH   1  25
TORSDOF 18
