REMARK VINA RESULT:    -6.315      1.964      3.318
REMARK INTER + INTRA:         -13.263
REMARK INTER:                 -11.681
REMARK INTRA:                  -1.582
REMARK UNBOUND:                -2.334
REMARK  Name = lig_assembled_15.pdb
REMARK  16 active torsions:
REMARK  status: ('A' for Active; 'I' for Inactive)
REMARK    1  A    between atoms: _2  and  _9
REMARK    2  A    between atoms: _4  and  _18
REMARK    3  A    between atoms: _6  and  _7
REMARK    4  A    between atoms: _6  and  _18
REMARK    5  A    between atoms: _14  and  _34
REMARK    6  A    between atoms: _16  and  _22
REMARK    7  A    between atoms: _17  and  _21
REMARK    8  A    between atoms: _21  and  _22
REMARK    9  A    between atoms: _24  and  _25
REMARK   10  A    between atoms: _26  and  _27
REMARK   11  A    between atoms: _28  and  _30
REMARK   12  A    between atoms: _30  and  _31
REMARK   13  A    between atoms: _30  and  _32
REMARK   14  A    between atoms: _32  and  _33
REMARK   15  A    between atoms: _32  and  _34
REMARK   16  A    between atoms: _35  and  _37
REMARK                            x       y       z     vdW  Elec       q    Type
REMARK                         _______ _______ _______ _____ _____    ______ ____
ROOT
ATOM      1  C   UNL     1       3.729   3.281  33.623  0.00  0.00    +0.163 C 
ENDROOT
BRANCH   1   2
ATOM      2  O   UNL     1       3.977   4.460  32.840  0.00  0.00    -0.388 OA
ATOM      3  H   UNL     1       4.924   4.590  32.748  0.00  0.00    +0.210 HD
ENDBRANCH   1   2
BRANCH   1   4
ATOM      4  C   UNL     1       2.558   2.501  33.034  0.00  0.00    +0.141 C 
BRANCH   4   7
ATOM      5  C   UNL     1       2.069   2.973  30.659  0.00  0.00    +0.401 C 
ATOM      6  O   UNL     1       2.813   2.087  30.232  0.00  0.00    -0.226 OA
ATOM      7  N   UNL     1       1.895   3.241  31.954  0.00  0.00    -0.279 N 
ATOM      8  H   UNL     1       1.271   3.995  32.205  0.00  0.00    +0.152 HD
BRANCH   5   9
ATOM      9  O   UNL     1       1.344   3.780  29.727  0.00  0.00    -0.444 OA
BRANCH   9  10
ATOM     10  C   UNL     1       0.756   2.943  28.727  0.00  0.00    +0.292 C 
BRANCH  10  12
ATOM     11  N   UNL     1       2.500   3.911  27.263  0.00  0.00    -0.131 NA
ATOM     12  C   UNL     1       1.300   3.275  27.397  0.00  0.00    +0.121 A 
ATOM     13  C   UNL     1       0.779   3.034  26.146  0.00  0.00    +0.143 A 
ATOM     14  N   UNL     1       1.720   3.519  25.269  0.00  0.00    -0.220 N 
ATOM     15  N   UNL     1       2.746   4.061  25.969  0.00  0.00    -0.060 NA
BRANCH  14  16
ATOM     16  C   UNL     1       1.718   3.474  23.849  0.00  0.00    +0.067 A 
ATOM     17  C   UNL     1       1.764   2.250  23.168  0.00  0.00    +0.029 A 
ATOM     18  C   UNL     1       1.802   2.228  21.770  0.00  0.00    +0.017 A 
ATOM     19  C   UNL     1       1.790   3.423  21.054  0.00  0.00    +0.018 A 
ATOM     20 BR   UNL     1       1.869   3.384  19.165  0.00  0.00    -0.050 Br
ATOM     21  C   UNL     1       1.729   4.645  21.721  0.00  0.00    +0.017 A 
ATOM     22  C   UNL     1       1.690   4.672  23.117  0.00  0.00    +0.029 A 
ENDBRANCH  14  16
ENDBRANCH  10  12
ENDBRANCH   9  10
ENDBRANCH   5   9
ENDBRANCH   4   7
ENDBRANCH   1   4
BRANCH   1  23
ATOM     23  C   UNL     1       3.419   3.647  35.085  0.00  0.00    +0.175 C 
BRANCH  23  24
ATOM     24  C   UNL     1       4.245   4.849  35.568  0.00  0.00    +0.176 C 
ATOM     25  O   UNL     1       5.604   4.681  35.080  0.00  0.00    -0.332 OA
ATOM     26  C   UNL     1       6.518   5.794  35.357  0.00  0.00    +0.277 C 
ATOM     27  C   UNL     1       6.541   6.111  36.872  0.00  0.00    +0.110 C 
ATOM     28  C   UNL     1       5.116   6.266  37.443  0.00  0.00    +0.143 C 
ATOM     29  C   UNL     1       4.250   5.055  37.094  0.00  0.00    +0.133 C 
BRANCH  29  30
ATOM     30  N   UNL     1       2.871   5.254  37.568  0.00  0.00    -0.308 N 
ATOM     31  H   UNL     1       2.317   5.969  37.119  0.00  0.00    +0.149 HD
ATOM     32  C   UNL     1       2.305   4.550  38.552  0.00  0.00    +0.210 C 
ATOM     33  C   UNL     1       3.185   3.485  39.233  0.00  0.00    +0.109 C 
ATOM     34  O   UNL     1       1.143   4.729  38.919  0.00  0.00    -0.276 OA
ENDBRANCH  29  30
BRANCH  26  35
ATOM     35  C   UNL     1       6.099   7.054  34.572  0.00  0.00    +0.414 C 
ATOM     36  O   UNL     1       6.788   8.073  34.621  0.00  0.00    -0.240 OA
ATOM     37  O   UNL     1       5.073   7.053  33.891  0.00  0.00    -0.240 OA
ENDBRANCH  26  35
BRANCH  28  38
ATOM     38  O   UNL     1       5.178   6.407  38.863  0.00  0.00    -0.390 OA
ATOM     39  H   UNL     1       4.309   6.636  39.201  0.00  0.00    +0.210 HD
ENDBRANCH  28  38
BRANCH  26  40
ATOM     40  O   UNL     1       7.852   5.389  34.954  0.00  0.00    -0.343 OA
ATOM     41  C   UNL     1       8.003   3.976  34.667  0.00  0.00    +0.198 C 
ENDBRANCH  26  40
ENDBRANCH  23  24
BRANCH  23  42
ATOM     42  O   UNL     1       3.648   2.510  35.941  0.00  0.00    -0.387 OA
ATOM     43  H   UNL     1       4.161   2.783  36.706  0.00  0.00    +0.210 HD
ENDBRANCH  23  42
ENDBRANCH   1  23
TORSDOF 14
