REMARK VINA RESULT:    -6.182      8.689     14.335
REMARK INTER + INTRA:         -13.658
REMARK INTER:                 -12.466
REMARK INTRA:                  -1.192
REMARK UNBOUND:                -2.597
REMARK  Name = lig_assembled_89.pdb
REMARK  19 active torsions:
REMARK  status: ('A' for Active; 'I' for Inactive)
REMARK    1  A    between atoms: _2  and  _12
REMARK    2  A    between atoms: _5  and  _20
REMARK    3  A    between atoms: _7  and  _29
REMARK    4  A    between atoms: _9  and  _10
REMARK    5  A    between atoms: _9  and  _29
REMARK    6  A    between atoms: _20  and  _21
REMARK    7  A    between atoms: _20  and  _22
REMARK    8  A    between atoms: _25  and  _45
REMARK    9  A    between atoms: _27  and  _33
REMARK   10  A    between atoms: _28  and  _32
REMARK   11  A    between atoms: _32  and  _33
REMARK   12  A    between atoms: _35  and  _36
REMARK   13  A    between atoms: _37  and  _38
REMARK   14  A    between atoms: _39  and  _41
REMARK   15  A    between atoms: _41  and  _42
REMARK   16  A    between atoms: _41  and  _43
REMARK   17  A    between atoms: _43  and  _44
REMARK   18  A    between atoms: _43  and  _45
REMARK   19  A    between atoms: _46  and  _48
REMARK                            x       y       z     vdW  Elec       q    Type
REMARK                         _______ _______ _______ _____ _____    ______ ____
ROOT
ATOM      1  C   UNL     1      13.725   4.234  35.210  0.00  0.00    +0.401 C 
ATOM      2  O   UNL     1      13.766   3.614  34.145  0.00  0.00    -0.226 OA
ATOM      3  N   UNL     1      12.874   3.960  36.200  0.00  0.00    -0.279 N 
ATOM      4  H   UNL     1      12.924   4.519  37.040  0.00  0.00    +0.152 HD
ENDROOT
BRANCH   3   5
ATOM      5  C   UNL     1      11.869   2.892  36.137  0.00  0.00    +0.141 C 
BRANCH   5   6
ATOM      6  C   UNL     1      10.676   3.284  35.272  0.00  0.00    +0.163 C 
BRANCH   6   7
ATOM      7  O   UNL     1      10.490   2.319  34.224  0.00  0.00    -0.388 OA
ATOM      8  H   UNL     1      10.122   1.512  34.592  0.00  0.00    +0.210 HD
ENDBRANCH   6   7
BRANCH   6   9
ATOM      9  C   UNL     1       9.417   3.390  36.150  0.00  0.00    +0.175 C 
BRANCH   9  10
ATOM     10  C   UNL     1       8.411   4.410  35.597  0.00  0.00    +0.176 C 
ATOM     11  O   UNL     1       7.880   5.168  36.719  0.00  0.00    -0.332 OA
ATOM     12  C   UNL     1       6.975   6.267  36.370  0.00  0.00    +0.277 C 
ATOM     13  C   UNL     1       5.811   5.751  35.489  0.00  0.00    +0.110 C 
ATOM     14  C   UNL     1       6.325   4.913  34.300  0.00  0.00    +0.143 C 
ATOM     15  C   UNL     1       7.260   3.800  34.776  0.00  0.00    +0.133 C 
BRANCH  15  16
ATOM     16  N   UNL     1       7.811   3.063  33.628  0.00  0.00    -0.308 N 
ATOM     17  H   UNL     1       8.378   3.576  32.967  0.00  0.00    +0.149 HD
ATOM     18  C   UNL     1       7.612   1.762  33.403  0.00  0.00    +0.210 C 
ATOM     19  C   UNL     1       6.722   1.015  34.414  0.00  0.00    +0.109 C 
ATOM     20  O   UNL     1       8.099   1.168  32.440  0.00  0.00    -0.276 OA
ENDBRANCH  15  16
BRANCH  12  21
ATOM     21  C   UNL     1       7.733   7.383  35.621  0.00  0.00    +0.414 C 
ATOM     22  O   UNL     1       7.173   8.026  34.734  0.00  0.00    -0.240 OA
ATOM     23  O   UNL     1       8.904   7.640  35.904  0.00  0.00    -0.240 OA
ENDBRANCH  12  21
BRANCH  14  24
ATOM     24  O   UNL     1       5.220   4.334  33.604  0.00  0.00    -0.390 OA
ATOM     25  H   UNL     1       5.414   3.416  33.403  0.00  0.00    +0.210 HD
ENDBRANCH  14  24
BRANCH  12  26
ATOM     26  O   UNL     1       6.417   6.797  37.600  0.00  0.00    -0.343 OA
ATOM     27  C   UNL     1       7.120   6.410  38.808  0.00  0.00    +0.198 C 
ENDBRANCH  12  26
ENDBRANCH   9  10
BRANCH   9  28
ATOM     28  O   UNL     1       9.782   3.735  37.501  0.00  0.00    -0.387 OA
ATOM     29  H   UNL     1      10.608   4.224  37.495  0.00  0.00    +0.210 HD
ENDBRANCH   9  28
ENDBRANCH   6   9
ENDBRANCH   5   6
ENDBRANCH   3   5
BRANCH   1  30
ATOM     30  O   UNL     1      14.639   5.313  35.420  0.00  0.00    -0.444 OA
BRANCH  30  31
ATOM     31  C   UNL     1      15.808   5.112  34.622  0.00  0.00    +0.292 C 
BRANCH  31  33
ATOM     32  N   UNL     1      14.947   6.969  33.249  0.00  0.00    -0.131 NA
ATOM     33  C   UNL     1      16.011   6.256  33.718  0.00  0.00    +0.121 A 
ATOM     34  C   UNL     1      17.170   6.806  33.227  0.00  0.00    +0.145 A 
ATOM     35  N   UNL     1      16.766   7.889  32.469  0.00  0.00    -0.199 N 
ATOM     36  N   UNL     1      15.415   7.959  32.501  0.00  0.00    -0.059 NA
BRANCH  35  37
ATOM     37  C   UNL     1      17.628   8.835  31.842  0.00  0.00    +0.186 A 
ATOM     38  C   UNL     1      18.399   8.707  30.704  0.00  0.00    +0.158 A 
ATOM     39  C   UNL     1      18.709   7.603  29.849  0.00  0.00    +0.280 A 
ATOM     40  O   UNL     1      18.581   6.440  30.208  0.00  0.00    -0.265 OA
ATOM     41  N   UNL     1      19.204   7.949  28.575  0.00  0.00    -0.302 N 
ATOM     42  C   UNL     1      19.781   9.255  28.351  0.00  0.00    +0.069 A 
ATOM     43  C   UNL     1      20.532   9.566  27.208  0.00  0.00    +0.028 A 
ATOM     44  C   UNL     1      21.120  10.828  27.047  0.00  0.00    +0.002 A 
ATOM     45  C   UNL     1      20.963  11.811  28.018  0.00  0.00    +0.002 A 
ATOM     46  C   UNL     1      20.213  11.541  29.158  0.00  0.00    +0.028 A 
ATOM     47  C   UNL     1      19.638  10.272  29.321  0.00  0.00    +0.072 A 
ATOM     48  N   UNL     1      18.883   9.965  30.464  0.00  0.00    -0.291 N 
ATOM     49  C   UNL     1      18.488  10.762  31.508  0.00  0.00    +0.207 A 
ATOM     50  N   UNL     1      17.717  10.115  32.356  0.00  0.00    -0.216 NA
BRANCH  41  51
ATOM     51  C   UNL     1      19.303   6.878  27.556  0.00  0.00    +0.085 C 
ATOM     52  C   UNL     1      20.732   6.332  27.367  0.00  0.00    +0.030 C 
ATOM     53  C   UNL     1      18.716   7.315  26.214  0.00  0.00    +0.030 C 
ENDBRANCH  41  51
ENDBRANCH  35  37
ENDBRANCH  31  33
ENDBRANCH  30  31
ENDBRANCH   1  30
TORSDOF 15
