REMARK VINA RESULT:    -5.371     14.292     18.894
REMARK INTER + INTRA:         -13.680
REMARK INTER:                 -11.283
REMARK INTRA:                  -2.397
REMARK UNBOUND:                -3.914
REMARK  Name = lig_assembled_73.pdb
REMARK  18 active torsions:
REMARK  status: ('A' for Active; 'I' for Inactive)
REMARK    1  A    between atoms: _2  and  _10
REMARK    2  A    between atoms: _3  and  _14
REMARK    3  A    between atoms: _5  and  _22
REMARK    4  A    between atoms: _7  and  _8
REMARK    5  A    between atoms: _7  and  _22
REMARK    6  A    between atoms: _13  and  _16
REMARK    7  A    between atoms: _18  and  _38
REMARK    8  A    between atoms: _20  and  _26
REMARK    9  A    between atoms: _21  and  _25
REMARK   10  A    between atoms: _25  and  _26
REMARK   11  A    between atoms: _28  and  _29
REMARK   12  A    between atoms: _30  and  _31
REMARK   13  A    between atoms: _32  and  _34
REMARK   14  A    between atoms: _34  and  _35
REMARK   15  A    between atoms: _34  and  _36
REMARK   16  A    between atoms: _36  and  _37
REMARK   17  A    between atoms: _36  and  _38
REMARK   18  A    between atoms: _39  and  _41
REMARK                            x       y       z     vdW  Elec       q    Type
REMARK                         _______ _______ _______ _____ _____    ______ ____
ROOT
ATOM      1  C   UNL     1      20.697   4.669  24.091  0.00  0.00    +0.163 C 
ENDROOT
BRANCH   1   2
ATOM      2  O   UNL     1      21.511   3.639  23.506  0.00  0.00    -0.388 OA
ATOM      3  H   UNL     1      21.974   3.164  24.201  0.00  0.00    +0.210 HD
ENDBRANCH   1   2
BRANCH   1   4
ATOM      4  C   UNL     1      19.507   4.063  24.855  0.00  0.00    +0.175 C 
BRANCH   4   5
ATOM      5  C   UNL     1      19.164   2.649  24.362  0.00  0.00    +0.176 C 
ATOM      6  O   UNL     1      18.568   2.768  23.041  0.00  0.00    -0.332 OA
ATOM      7  C   UNL     1      18.270   1.503  22.364  0.00  0.00    +0.277 C 
ATOM      8  C   UNL     1      17.381   0.606  23.260  0.00  0.00    +0.110 C 
ATOM      9  C   UNL     1      17.958   0.475  24.686  0.00  0.00    +0.143 C 
ATOM     10  C   UNL     1      18.234   1.850  25.294  0.00  0.00    +0.133 C 
BRANCH  10  11
ATOM     11  N   UNL     1      18.864   1.712  26.617  0.00  0.00    -0.308 N 
ATOM     12  H   UNL     1      19.703   1.154  26.683  0.00  0.00    +0.149 HD
ATOM     13  C   UNL     1      18.399   2.276  27.735  0.00  0.00    +0.210 C 
ATOM     14  C   UNL     1      17.103   3.099  27.605  0.00  0.00    +0.109 C 
ATOM     15  O   UNL     1      18.956   2.155  28.826  0.00  0.00    -0.276 OA
ENDBRANCH  10  11
BRANCH   7  16
ATOM     16  C   UNL     1      19.570   0.752  22.011  0.00  0.00    +0.414 C 
ATOM     17  O   UNL     1      19.616  -0.476  22.081  0.00  0.00    -0.240 OA
ATOM     18  O   UNL     1      20.573   1.373  21.656  0.00  0.00    -0.240 OA
ENDBRANCH   7  16
BRANCH   9  19
ATOM     19  O   UNL     1      17.036  -0.231  25.516  0.00  0.00    -0.390 OA
ATOM     20  H   UNL     1      16.294   0.341  25.730  0.00  0.00    +0.210 HD
ENDBRANCH   9  19
BRANCH   7  21
ATOM     21  O   UNL     1      17.536   1.806  21.150  0.00  0.00    -0.343 OA
ATOM     22  C   UNL     1      16.561   2.872  21.274  0.00  0.00    +0.198 C 
ENDBRANCH   7  21
ENDBRANCH   4   5
BRANCH   4  23
ATOM     23  O   UNL     1      18.355   4.922  24.742  0.00  0.00    -0.387 OA
ATOM     24  H   UNL     1      18.493   5.551  24.030  0.00  0.00    +0.210 HD
ENDBRANCH   4  23
ENDBRANCH   1   4
BRANCH   1  25
ATOM     25  C   UNL     1      21.534   5.519  25.042  0.00  0.00    +0.141 C 
BRANCH  25  28
ATOM     26  C   UNL     1      20.493   7.700  25.556  0.00  0.00    +0.401 C 
ATOM     27  O   UNL     1      20.987   8.272  24.582  0.00  0.00    -0.226 OA
ATOM     28  N   UNL     1      20.700   6.416  25.851  0.00  0.00    -0.279 N 
ATOM     29  H   UNL     1      20.259   6.039  26.678  0.00  0.00    +0.152 HD
BRANCH  26  30
ATOM     30  O   UNL     1      19.647   8.440  26.440  0.00  0.00    -0.444 OA
BRANCH  30  31
ATOM     31  C   UNL     1      20.187   8.399  27.764  0.00  0.00    +0.292 C 
BRANCH  31  33
ATOM     32  N   UNL     1      18.460  10.095  28.282  0.00  0.00    -0.131 NA
ATOM     33  C   UNL     1      19.292   9.099  28.705  0.00  0.00    +0.121 A 
ATOM     34  C   UNL     1      19.122   8.918  30.057  0.00  0.00    +0.143 A 
ATOM     35  N   UNL     1      18.159   9.830  30.421  0.00  0.00    -0.220 N 
ATOM     36  N   UNL     1      17.776  10.533  29.329  0.00  0.00    -0.060 NA
BRANCH  35  37
ATOM     37  C   UNL     1      17.602  10.073  31.703  0.00  0.00    +0.074 A 
ATOM     38  C   UNL     1      17.674  11.361  32.262  0.00  0.00    +0.032 A 
ATOM     39  C   UNL     1      17.139  11.622  33.531  0.00  0.00    +0.054 A 
ATOM     40  C   UNL     1      16.529  10.599  34.254  0.00  0.00    +0.195 A 
ATOM     41  C   UNL     1      16.460   9.324  33.694  0.00  0.00    +0.316 A 
ATOM     42  C   UNL     1      16.983   9.045  32.424  0.00  0.00    +0.116 A 
BRANCH  41  43
ATOM     43  N   UNL     1      15.842   8.237  34.426  0.00  0.00    +0.083 N 
ATOM     44  O   UNL     1      14.857   7.688  33.912  0.00  0.00    +0.042 OA
ATOM     45  O   UNL     1      16.292   8.000  35.555  0.00  0.00    -0.576 OA
ENDBRANCH  41  43
BRANCH  40  46
ATOM     46  O   UNL     1      15.991  10.859  35.478  0.00  0.00    -0.501 OA
ATOM     47  H   UNL     1      16.689  11.122  36.102  0.00  0.00    +0.292 HD
ENDBRANCH  40  46
ENDBRANCH  35  37
ENDBRANCH  31  33
ENDBRANCH  30  31
ENDBRANCH  26  30
ENDBRANCH  25  28
ENDBRANCH   1  25
TORSDOF 16
