REMARK VINA RESULT:    -6.688      0.296      2.760
REMARK INTER + INTRA:         -14.664
REMARK INTER:                 -13.026
REMARK INTRA:                  -1.637
REMARK UNBOUND:                -3.089
REMARK  Name = lig_assembled_91.pdb
REMARK  16 active torsions:
REMARK  status: ('A' for Active; 'I' for Inactive)
REMARK    1  A    between atoms: _2  and  _10
REMARK    2  A    between atoms: _5  and  _26
REMARK    3  A    between atoms: _7  and  _8
REMARK    4  A    between atoms: _7  and  _26
REMARK    5  A    between atoms: _22  and  _42
REMARK    6  A    between atoms: _24  and  _30
REMARK    7  A    between atoms: _25  and  _29
REMARK    8  A    between atoms: _29  and  _30
REMARK    9  A    between atoms: _32  and  _33
REMARK   10  A    between atoms: _34  and  _35
REMARK   11  A    between atoms: _36  and  _38
REMARK   12  A    between atoms: _38  and  _39
REMARK   13  A    between atoms: _38  and  _40
REMARK   14  A    between atoms: _40  and  _41
REMARK   15  A    between atoms: _40  and  _42
REMARK   16  A    between atoms: _43  and  _45
REMARK                            x       y       z     vdW  Elec       q    Type
REMARK                         _______ _______ _______ _____ _____    ______ ____
ROOT
ATOM      1  C   UNL     1       2.779   3.304  32.652  0.00  0.00    +0.401 C 
ATOM      2  O   UNL     1       2.313   3.787  33.686  0.00  0.00    -0.226 OA
ATOM      3  N   UNL     1       4.084   3.238  32.383  0.00  0.00    -0.279 N 
ATOM      4  H   UNL     1       4.370   2.814  31.511  0.00  0.00    +0.152 HD
ENDROOT
BRANCH   3   5
ATOM      5  C   UNL     1       5.128   3.747  33.281  0.00  0.00    +0.141 C 
BRANCH   5   6
ATOM      6  C   UNL     1       6.340   2.823  33.325  0.00  0.00    +0.163 C 
BRANCH   6   7
ATOM      7  O   UNL     1       6.451   2.099  32.088  0.00  0.00    -0.388 OA
ATOM      8  H   UNL     1       5.974   1.269  32.159  0.00  0.00    +0.210 HD
ENDBRANCH   6   7
BRANCH   6   9
ATOM      9  C   UNL     1       7.608   3.651  33.593  0.00  0.00    +0.175 C 
BRANCH   9  10
ATOM     10  C   UNL     1       7.608   4.269  34.999  0.00  0.00    +0.176 C 
ATOM     11  O   UNL     1       7.573   5.715  34.853  0.00  0.00    -0.332 OA
ATOM     12  C   UNL     1       7.461   6.476  36.100  0.00  0.00    +0.277 C 
ATOM     13  C   UNL     1       8.591   6.077  37.081  0.00  0.00    +0.110 C 
ATOM     14  C   UNL     1       8.688   4.546  37.245  0.00  0.00    +0.143 C 
ATOM     15  C   UNL     1       8.798   3.854  35.885  0.00  0.00    +0.133 C 
BRANCH  15  16
ATOM     16  N   UNL     1       8.802   2.392  36.050  0.00  0.00    -0.308 N 
ATOM     17  H   UNL     1       7.980   1.960  36.448  0.00  0.00    +0.149 HD
ATOM     18  C   UNL     1       9.820   1.599  35.707  0.00  0.00    +0.210 C 
ATOM     19  C   UNL     1      11.068   2.291  35.127  0.00  0.00    +0.109 C 
ATOM     20  O   UNL     1       9.790   0.375  35.843  0.00  0.00    -0.276 OA
ENDBRANCH  15  16
BRANCH  12  21
ATOM     21  C   UNL     1       6.091   6.236  36.767  0.00  0.00    +0.414 C 
ATOM     22  O   UNL     1       5.984   6.266  37.993  0.00  0.00    -0.240 OA
ATOM     23  O   UNL     1       5.094   6.011  36.081  0.00  0.00    -0.240 OA
ENDBRANCH  12  21
BRANCH  14  24
ATOM     24  O   UNL     1       9.833   4.217  38.033  0.00  0.00    -0.390 OA
ATOM     25  H   UNL     1       9.895   3.264  38.127  0.00  0.00    +0.210 HD
ENDBRANCH  14  24
BRANCH  12  26
ATOM     26  O   UNL     1       7.609   7.884  35.782  0.00  0.00    -0.343 OA
ATOM     27  C   UNL     1       7.547   8.202  34.368  0.00  0.00    +0.198 C 
ENDBRANCH  12  26
ENDBRANCH   9  10
BRANCH   9  28
ATOM     28  O   UNL     1       7.747   4.684  32.597  0.00  0.00    -0.387 OA
ATOM     29  H   UNL     1       8.389   4.410  31.938  0.00  0.00    +0.210 HD
ENDBRANCH   9  28
ENDBRANCH   6   9
ENDBRANCH   5   6
ENDBRANCH   3   5
BRANCH   1  30
ATOM     30  O   UNL     1       1.887   2.772  31.669  0.00  0.00    -0.444 OA
BRANCH  30  31
ATOM     31  C   UNL     1       1.449   3.822  30.804  0.00  0.00    +0.292 C 
BRANCH  31  33
ATOM     32  N   UNL     1      -0.011   2.895  29.041  0.00  0.00    -0.131 NA
ATOM     33  C   UNL     1       1.223   3.308  29.438  0.00  0.00    +0.121 A 
ATOM     34  C   UNL     1       2.099   3.170  28.385  0.00  0.00    +0.143 A 
ATOM     35  N   UNL     1       1.360   2.616  27.360  0.00  0.00    -0.218 N 
ATOM     36  N   UNL     1       0.078   2.482  27.785  0.00  0.00    -0.060 NA
BRANCH  35  37
ATOM     37  C   UNL     1       1.774   2.212  26.053  0.00  0.00    +0.085 A 
ATOM     38  C   UNL     1       2.344   0.905  25.844  0.00  0.00    +0.026 A 
ATOM     39  C   UNL     1       2.742   0.618  24.524  0.00  0.00    +0.074 A 
ATOM     40  C   UNL     1       3.305  -0.608  24.201  0.00  0.00    +0.028 A 
ATOM     41  C   UNL     1       3.499  -1.608  25.148  0.00  0.00    +0.002 A 
ATOM     42  C   UNL     1       3.091  -1.384  26.448  0.00  0.00    +0.001 A 
ATOM     43  N   UNL     1       2.594   1.462  23.505  0.00  0.00    -0.247 NA
ATOM     44  C   UNL     1       2.041   2.658  23.696  0.00  0.00    +0.074 A 
ATOM     45  C   UNL     1       1.938   3.460  22.564  0.00  0.00    +0.028 A 
ATOM     46  C   UNL     1       1.417   4.748  22.610  0.00  0.00    +0.002 A 
ATOM     47  C   UNL     1       0.997   5.257  23.823  0.00  0.00    +0.001 A 
ATOM     48  C   UNL     1       1.100   4.466  24.973  0.00  0.00    +0.012 A 
ATOM     49  C   UNL     1       2.505  -0.160  26.787  0.00  0.00    +0.012 A 
ATOM     50  C   UNL     1       1.608   3.127  24.947  0.00  0.00    +0.026 A 
ENDBRANCH  35  37
ENDBRANCH  31  33
ENDBRANCH  30  31
ENDBRANCH   1  30
TORSDOF 14
