REMARK VINA RESULT:    -5.799     11.934     13.680
REMARK INTER + INTRA:         -12.605
REMARK INTER:                 -11.087
REMARK INTRA:                  -1.518
REMARK UNBOUND:                -2.568
REMARK  Name = lig_assembled_27.pdb
REMARK  16 active torsions:
REMARK  status: ('A' for Active; 'I' for Inactive)
REMARK    1  A    between atoms: _2  and  _9
REMARK    2  A    between atoms: _4  and  _18
REMARK    3  A    between atoms: _6  and  _7
REMARK    4  A    between atoms: _6  and  _18
REMARK    5  A    between atoms: _14  and  _34
REMARK    6  A    between atoms: _16  and  _22
REMARK    7  A    between atoms: _17  and  _21
REMARK    8  A    between atoms: _21  and  _22
REMARK    9  A    between atoms: _24  and  _25
REMARK   10  A    between atoms: _26  and  _27
REMARK   11  A    between atoms: _28  and  _30
REMARK   12  A    between atoms: _30  and  _31
REMARK   13  A    between atoms: _30  and  _32
REMARK   14  A    between atoms: _32  and  _33
REMARK   15  A    between atoms: _32  and  _34
REMARK   16  A    between atoms: _35  and  _37
REMARK                            x       y       z     vdW  Elec       q    Type
REMARK                         _______ _______ _______ _____ _____    ______ ____
ROOT
ATOM      1  C   UNL     1      18.898   7.313  29.826  0.00  0.00    +0.163 C 
ENDROOT
BRANCH   1   2
ATOM      2  O   UNL     1      18.493   5.948  29.633  0.00  0.00    -0.388 OA
ATOM      3  H   UNL     1      19.269   5.401  29.487  0.00  0.00    +0.210 HD
ENDBRANCH   1   2
BRANCH   1   4
ATOM      4  C   UNL     1      19.972   7.687  28.809  0.00  0.00    +0.141 C 
BRANCH   4   7
ATOM      5  C   UNL     1      19.593   7.282  26.402  0.00  0.00    +0.401 C 
ATOM      6  O   UNL     1      19.295   8.453  26.155  0.00  0.00    -0.226 OA
ATOM      7  N   UNL     1      19.916   6.835  27.615  0.00  0.00    -0.279 N 
ATOM      8  H   UNL     1      20.136   5.854  27.719  0.00  0.00    +0.152 HD
BRANCH   5   9
ATOM      9  O   UNL     1      19.593   6.327  25.337  0.00  0.00    -0.444 OA
BRANCH   9  10
ATOM     10  C   UNL     1      18.586   6.675  24.383  0.00  0.00    +0.292 C 
BRANCH  10  12
ATOM     11  N   UNL     1      17.149   5.552  22.710  0.00  0.00    -0.131 NA
ATOM     12  C   UNL     1      18.133   5.477  23.654  0.00  0.00    +0.121 A 
ATOM     13  C   UNL     1      18.559   4.173  23.754  0.00  0.00    +0.143 A 
ATOM     14  N   UNL     1      17.805   3.478  22.836  0.00  0.00    -0.220 N 
ATOM     15  N   UNL     1      16.954   4.335  22.220  0.00  0.00    -0.060 NA
BRANCH  14  16
ATOM     16  C   UNL     1      17.842   2.097  22.518  0.00  0.00    +0.068 A 
ATOM     17  C   UNL     1      18.274   1.686  21.247  0.00  0.00    +0.028 A 
ATOM     18  C   UNL     1      18.312   0.328  20.922  0.00  0.00    +0.003 A 
ATOM     19  C   UNL     1      17.919  -0.626  21.858  0.00  0.00    +0.020 A 
ATOM     20  C   UNL     1      17.492  -0.221  23.120  0.00  0.00    +0.043 A 
ATOM     21 CL   UNL     1      17.009  -1.400  24.278  0.00  0.00    -0.083 Cl
ATOM     22  C   UNL     1      17.451   1.133  23.459  0.00  0.00    +0.047 A 
ENDBRANCH  14  16
ENDBRANCH  10  12
ENDBRANCH   9  10
ENDBRANCH   5   9
ENDBRANCH   4   7
ENDBRANCH   1   4
BRANCH   1  23
ATOM     23  C   UNL     1      19.439   7.531  31.249  0.00  0.00    +0.175 C 
BRANCH  23  24
ATOM     24  C   UNL     1      18.448   8.305  32.132  0.00  0.00    +0.176 C 
ATOM     25  O   UNL     1      17.367   7.400  32.488  0.00  0.00    -0.332 OA
ATOM     26  C   UNL     1      16.372   7.937  33.422  0.00  0.00    +0.277 C 
ATOM     27  C   UNL     1      15.787   9.266  32.883  0.00  0.00    +0.110 C 
ATOM     28  C   UNL     1      16.900  10.249  32.461  0.00  0.00    +0.143 C 
ATOM     29  C   UNL     1      17.879   9.585  31.493  0.00  0.00    +0.133 C 
BRANCH  29  30
ATOM     30  N   UNL     1      18.982  10.503  31.166  0.00  0.00    -0.308 N 
ATOM     31  H   UNL     1      19.651  10.715  31.893  0.00  0.00    +0.149 HD
ATOM     32  C   UNL     1      19.157  11.074  29.971  0.00  0.00    +0.210 C 
ATOM     33  C   UNL     1      18.107  10.751  28.892  0.00  0.00    +0.109 C 
ATOM     34  O   UNL     1      20.099  11.827  29.722  0.00  0.00    -0.276 OA
ENDBRANCH  29  30
BRANCH  26  35
ATOM     35  C   UNL     1      16.999   8.176  34.811  0.00  0.00    +0.414 C 
ATOM     36  O   UNL     1      18.050   7.615  35.122  0.00  0.00    -0.240 OA
ATOM     37  O   UNL     1      16.455   8.928  35.621  0.00  0.00    -0.240 OA
ENDBRANCH  26  35
BRANCH  28  38
ATOM     38  O   UNL     1      16.319  11.393  31.833  0.00  0.00    -0.390 OA
ATOM     39  H   UNL     1      15.672  11.108  31.184  0.00  0.00    +0.210 HD
ENDBRANCH  28  38
BRANCH  26  40
ATOM     40  O   UNL     1      15.293   6.974  33.532  0.00  0.00    -0.343 OA
ATOM     41  C   UNL     1      15.716   5.592  33.651  0.00  0.00    +0.198 C 
ENDBRANCH  26  40
ENDBRANCH  23  24
BRANCH  23  42
ATOM     42  O   UNL     1      20.703   8.222  31.199  0.00  0.00    -0.387 OA
ATOM     43  H   UNL     1      21.243   7.852  30.497  0.00  0.00    +0.210 HD
ENDBRANCH  23  42
ENDBRANCH   1  23
TORSDOF 14
