REMARK VINA RESULT:    -5.986      7.256     11.994
REMARK INTER + INTRA:         -12.552
REMARK INTER:                 -10.408
REMARK INTRA:                  -2.143
REMARK UNBOUND:                -2.191
REMARK  Name = lig_assembled_48.pdb
REMARK  16 active torsions:
REMARK  status: ('A' for Active; 'I' for Inactive)
REMARK    1  A    between atoms: _2  and  _9
REMARK    2  A    between atoms: _4  and  _18
REMARK    3  A    between atoms: _6  and  _7
REMARK    4  A    between atoms: _6  and  _18
REMARK    5  A    between atoms: _14  and  _34
REMARK    6  A    between atoms: _16  and  _22
REMARK    7  A    between atoms: _17  and  _21
REMARK    8  A    between atoms: _21  and  _22
REMARK    9  A    between atoms: _24  and  _25
REMARK   10  A    between atoms: _26  and  _27
REMARK   11  A    between atoms: _28  and  _30
REMARK   12  A    between atoms: _30  and  _31
REMARK   13  A    between atoms: _30  and  _32
REMARK   14  A    between atoms: _32  and  _33
REMARK   15  A    between atoms: _32  and  _34
REMARK   16  A    between atoms: _35  and  _37
REMARK                            x       y       z     vdW  Elec       q    Type
REMARK                         _______ _______ _______ _____ _____    ______ ____
ROOT
ATOM      1  C   UNL     1       8.575   2.721  35.764  0.00  0.00    +0.163 C 
ENDROOT
BRANCH   1   2
ATOM      2  O   UNL     1       8.869   3.470  36.955  0.00  0.00    -0.388 OA
ATOM      3  H   UNL     1       8.061   3.603  37.457  0.00  0.00    +0.210 HD
ENDBRANCH   1   2
BRANCH   1   4
ATOM      4  C   UNL     1       9.655   1.671  35.529  0.00  0.00    +0.141 C 
BRANCH   4   7
ATOM      5  C   UNL     1      11.833   2.811  35.283  0.00  0.00    +0.401 C 
ATOM      6  O   UNL     1      11.977   3.000  36.493  0.00  0.00    -0.226 OA
ATOM      7  N   UNL     1      10.776   2.203  34.744  0.00  0.00    -0.279 N 
ATOM      8  H   UNL     1      10.744   2.104  33.739  0.00  0.00    +0.152 HD
BRANCH   5   9
ATOM      9  O   UNL     1      12.847   3.267  34.383  0.00  0.00    -0.444 OA
BRANCH   9  10
ATOM     10  C   UNL     1      14.119   3.225  35.036  0.00  0.00    +0.292 C 
BRANCH  10  12
ATOM     11  N   UNL     1      14.107   5.647  35.525  0.00  0.00    -0.131 NA
ATOM     12  C   UNL     1      14.748   4.559  35.006  0.00  0.00    +0.120 A 
ATOM     13  C   UNL     1      15.980   4.946  34.528  0.00  0.00    +0.137 A 
ATOM     14  N   UNL     1      16.073   6.263  34.871  0.00  0.00    -0.248 N 
ATOM     15  N   UNL     1      14.909   6.694  35.404  0.00  0.00    -0.065 NA
BRANCH  14  16
ATOM     16  C   UNL     1      17.198   7.188  34.800  0.00  0.00    +0.109 C 
ATOM     17  C   UNL     1      17.895   7.106  33.428  0.00  0.00    +0.027 C 
ATOM     18  C   UNL     1      17.043   7.736  32.329  0.00  0.00    +0.002 C 
ATOM     19  C   UNL     1      16.765   9.203  32.632  0.00  0.00    +0.000 C 
ATOM     20  C   UNL     1      16.140   9.408  34.009  0.00  0.00    +0.002 C 
ATOM     21  C   UNL     1      16.877   8.660  35.126  0.00  0.00    +0.027 C 
ENDBRANCH  14  16
ENDBRANCH  10  12
ENDBRANCH   9  10
ENDBRANCH   5   9
ENDBRANCH   4   7
ENDBRANCH   1   4
BRANCH   1  22
ATOM     22  C   UNL     1       8.485   3.648  34.539  0.00  0.00    +0.175 C 
BRANCH  22  23
ATOM     23  C   UNL     1       7.367   4.692  34.685  0.00  0.00    +0.176 C 
ATOM     24  O   UNL     1       7.772   5.640  35.710  0.00  0.00    -0.332 OA
ATOM     25  C   UNL     1       6.869   6.777  35.915  0.00  0.00    +0.277 C 
ATOM     26  C   UNL     1       5.431   6.281  36.200  0.00  0.00    +0.110 C 
ATOM     27  C   UNL     1       4.967   5.246  35.153  0.00  0.00    +0.143 C 
ATOM     28  C   UNL     1       5.981   4.109  35.020  0.00  0.00    +0.133 C 
BRANCH  28  29
ATOM     29  N   UNL     1       5.572   3.175  33.959  0.00  0.00    -0.308 N 
ATOM     30  H   UNL     1       5.599   3.505  33.004  0.00  0.00    +0.149 HD
ATOM     31  C   UNL     1       5.167   1.921  34.175  0.00  0.00    +0.210 C 
ATOM     32  C   UNL     1       5.112   1.457  35.643  0.00  0.00    +0.109 C 
ATOM     33  O   UNL     1       4.844   1.156  33.265  0.00  0.00    -0.276 OA
ENDBRANCH  28  29
BRANCH  25  34
ATOM     34  C   UNL     1       6.861   7.698  34.677  0.00  0.00    +0.414 C 
ATOM     35  O   UNL     1       5.795   8.070  34.188  0.00  0.00    -0.240 OA
ATOM     36  O   UNL     1       7.920   8.069  34.168  0.00  0.00    -0.240 OA
ENDBRANCH  25  34
BRANCH  27  37
ATOM     37  O   UNL     1       3.703   4.705  35.538  0.00  0.00    -0.390 OA
ATOM     38  H   UNL     1       3.776   4.306  36.408  0.00  0.00    +0.210 HD
ENDBRANCH  27  37
BRANCH  25  39
ATOM     39  O   UNL     1       7.335   7.518  37.072  0.00  0.00    -0.343 OA
ATOM     40  C   UNL     1       8.518   6.976  37.711  0.00  0.00    +0.198 C 
ENDBRANCH  25  39
ENDBRANCH  22  23
BRANCH  22  41
ATOM     41  O   UNL     1       8.285   2.871  33.342  0.00  0.00    -0.387 OA
ATOM     42  H   UNL     1       7.474   2.364  33.420  0.00  0.00    +0.210 HD
ENDBRANCH  22  41
ENDBRANCH   1  22
TORSDOF 14
