REMARK VINA RESULT:    -6.039      7.337     12.540
REMARK INTER + INTRA:         -14.208
REMARK INTER:                 -12.409
REMARK INTRA:                  -1.799
REMARK UNBOUND:                -1.813
REMARK  Name = lig_assembled_33.pdb
REMARK  22 active torsions:
REMARK  status: ('A' for Active; 'I' for Inactive)
REMARK    1  A    between atoms: _2  and  _9
REMARK    2  A    between atoms: _4  and  _20
REMARK    3  A    between atoms: _5  and  _13
REMARK    4  A    between atoms: _5  and  _14
REMARK    5  A    between atoms: _6  and  _7
REMARK    6  A    between atoms: _6  and  _20
REMARK    7  A    between atoms: _9  and  _10
REMARK    8  A    between atoms: _10  and  _11
REMARK    9  A    between atoms: _11  and  _12
REMARK   10  A    between atoms: _12  and  _13
REMARK   11  A    between atoms: _16  and  _36
REMARK   12  A    between atoms: _18  and  _24
REMARK   13  A    between atoms: _19  and  _23
REMARK   14  A    between atoms: _23  and  _24
REMARK   15  A    between atoms: _26  and  _27
REMARK   16  A    between atoms: _28  and  _29
REMARK   17  A    between atoms: _30  and  _32
REMARK   18  A    between atoms: _32  and  _33
REMARK   19  A    between atoms: _32  and  _34
REMARK   20  A    between atoms: _34  and  _35
REMARK   21  A    between atoms: _34  and  _36
REMARK   22  A    between atoms: _37  and  _39
REMARK                            x       y       z     vdW  Elec       q    Type
REMARK                         _______ _______ _______ _____ _____    ______ ____
ROOT
ATOM      1  C   UNL     1       7.299   2.333  34.304  0.00  0.00    +0.163 C 
ENDROOT
BRANCH   1   2
ATOM      2  O   UNL     1       7.255   2.467  35.734  0.00  0.00    -0.388 OA
ATOM      3  H   UNL     1       7.997   3.001  36.028  0.00  0.00    +0.210 HD
ENDBRANCH   1   2
BRANCH   1   4
ATOM      4  C   UNL     1       7.717   3.656  33.639  0.00  0.00    +0.175 C 
BRANCH   4   5
ATOM      5  C   UNL     1       7.097   4.875  34.338  0.00  0.00    +0.176 C 
ATOM      6  O   UNL     1       7.837   5.109  35.568  0.00  0.00    -0.332 OA
ATOM      7  C   UNL     1       7.451   6.305  36.322  0.00  0.00    +0.277 C 
ATOM      8  C   UNL     1       5.931   6.291  36.619  0.00  0.00    +0.110 C 
ATOM      9  C   UNL     1       5.104   6.014  35.346  0.00  0.00    +0.143 C 
ATOM     10  C   UNL     1       5.592   4.749  34.639  0.00  0.00    +0.133 C 
BRANCH  10  11
ATOM     11  N   UNL     1       4.855   4.543  33.383  0.00  0.00    -0.308 N 
ATOM     12  H   UNL     1       5.042   5.176  32.617  0.00  0.00    +0.149 HD
ATOM     13  C   UNL     1       3.955   3.576  33.187  0.00  0.00    +0.210 C 
ATOM     14  C   UNL     1       3.674   2.644  34.381  0.00  0.00    +0.109 C 
ATOM     15  O   UNL     1       3.363   3.419  32.119  0.00  0.00    -0.276 OA
ENDBRANCH  10  11
BRANCH   7  16
ATOM     16  C   UNL     1       7.811   7.585  35.538  0.00  0.00    +0.414 C 
ATOM     17  O   UNL     1       8.938   8.071  35.628  0.00  0.00    -0.240 OA
ATOM     18  O   UNL     1       6.975   8.131  34.817  0.00  0.00    -0.240 OA
ENDBRANCH   7  16
BRANCH   9  19
ATOM     19  O   UNL     1       3.727   5.859  35.690  0.00  0.00    -0.390 OA
ATOM     20  H   UNL     1       3.279   5.361  35.003  0.00  0.00    +0.210 HD
ENDBRANCH   9  19
BRANCH   7  21
ATOM     21  O   UNL     1       8.164   6.289  37.585  0.00  0.00    -0.343 OA
ATOM     22  C   UNL     1       7.356   5.952  38.740  0.00  0.00    +0.198 C 
ENDBRANCH   7  21
ENDBRANCH   4   5
BRANCH   4  23
ATOM     23  O   UNL     1       7.356   3.646  32.243  0.00  0.00    -0.387 OA
ATOM     24  H   UNL     1       7.794   4.372  31.794  0.00  0.00    +0.210 HD
ENDBRANCH   4  23
ENDBRANCH   1   4
BRANCH   1  25
ATOM     25  C   UNL     1       8.281   1.233  33.913  0.00  0.00    +0.141 C 
BRANCH  25  28
ATOM     26  C   UNL     1      10.479   1.719  34.932  0.00  0.00    +0.401 C 
ATOM     27  O   UNL     1      10.155   1.315  36.051  0.00  0.00    -0.226 OA
ATOM     28  N   UNL     1       9.664   1.723  33.876  0.00  0.00    -0.279 N 
ATOM     29  H   UNL     1      10.019   2.084  33.002  0.00  0.00    +0.152 HD
BRANCH  26  30
ATOM     30  O   UNL     1      11.803   2.222  34.732  0.00  0.00    -0.444 OA
BRANCH  30  31
ATOM     31  C   UNL     1      12.251   2.874  35.923  0.00  0.00    +0.292 C 
BRANCH  31  33
ATOM     32  N   UNL     1      13.270   5.110  36.203  0.00  0.00    -0.131 NA
ATOM     33  C   UNL     1      13.282   3.878  35.603  0.00  0.00    +0.120 A 
ATOM     34  C   UNL     1      14.350   3.811  34.734  0.00  0.00    +0.137 A 
ATOM     35  N   UNL     1      14.949   5.028  34.859  0.00  0.00    -0.251 N 
ATOM     36  N   UNL     1      14.289   5.812  35.728  0.00  0.00    -0.065 NA
BRANCH  35  37
ATOM     37  C   UNL     1      16.132   5.519  34.183  0.00  0.00    +0.145 C 
BRANCH  37  38
ATOM     38  C   UNL     1      16.625   6.838  34.774  0.00  0.00    +0.023 C 
BRANCH  38  39
ATOM     39  C   UNL     1      17.775   7.450  33.970  0.00  0.00    +0.002 C 
BRANCH  39  40
ATOM     40  C   UNL     1      17.667   8.977  33.987  0.00  0.00    +0.011 C 
BRANCH  40  41
ATOM     41  C   UNL     1      16.278   9.468  34.385  0.00  0.00    +0.120 C 
BRANCH  41  42
ATOM     42  C   UNL     1      15.502   9.956  33.181  0.00  0.00    +0.305 C 
ATOM     43  O   UNL     1      15.707  11.001  32.585  0.00  0.00    -0.251 OA
BRANCH  42  44
ATOM     44  O   UNL     1      14.530   9.092  32.810  0.00  0.00    -0.481 OA
ATOM     45  H   UNL     1      14.262   8.474  33.514  0.00  0.00    +0.295 HD
ENDBRANCH  42  44
ENDBRANCH  41  42
ENDBRANCH  40  41
ENDBRANCH  39  40
ENDBRANCH  38  39
ENDBRANCH  37  38
ENDBRANCH  35  37
ENDBRANCH  31  33
ENDBRANCH  30  31
ENDBRANCH  26  30
ENDBRANCH  25  28
ENDBRANCH   1  25
TORSDOF 20
