REMARK VINA RESULT:    -5.226      2.966      4.886
REMARK INTER + INTRA:         -13.418
REMARK INTER:                 -11.427
REMARK INTRA:                  -1.991
REMARK UNBOUND:                -3.914
REMARK  Name = lig_assembled_73.pdb
REMARK  18 active torsions:
REMARK  status: ('A' for Active; 'I' for Inactive)
REMARK    1  A    between atoms: _2  and  _10
REMARK    2  A    between atoms: _3  and  _14
REMARK    3  A    between atoms: _5  and  _22
REMARK    4  A    between atoms: _7  and  _8
REMARK    5  A    between atoms: _7  and  _22
REMARK    6  A    between atoms: _13  and  _16
REMARK    7  A    between atoms: _18  and  _38
REMARK    8  A    between atoms: _20  and  _26
REMARK    9  A    between atoms: _21  and  _25
REMARK   10  A    between atoms: _25  and  _26
REMARK   11  A    between atoms: _28  and  _29
REMARK   12  A    between atoms: _30  and  _31
REMARK   13  A    between atoms: _32  and  _34
REMARK   14  A    between atoms: _34  and  _35
REMARK   15  A    between atoms: _34  and  _36
REMARK   16  A    between atoms: _36  and  _37
REMARK   17  A    between atoms: _36  and  _38
REMARK   18  A    between atoms: _39  and  _41
REMARK                            x       y       z     vdW  Elec       q    Type
REMARK                         _______ _______ _______ _____ _____    ______ ____
ROOT
ATOM      1  C   UNL     1       6.182   3.194  33.551  0.00  0.00    +0.163 C 
ENDROOT
BRANCH   1   2
ATOM      2  O   UNL     1       6.045   2.118  34.494  0.00  0.00    -0.388 OA
ATOM      3  H   UNL     1       6.693   1.436  34.299  0.00  0.00    +0.210 HD
ENDBRANCH   1   2
BRANCH   1   4
ATOM      4  C   UNL     1       7.662   3.558  33.343  0.00  0.00    +0.175 C 
BRANCH   4   5
ATOM      5  C   UNL     1       8.389   3.804  34.673  0.00  0.00    +0.176 C 
ATOM      6  O   UNL     1       8.643   2.512  35.291  0.00  0.00    -0.332 OA
ATOM      7  C   UNL     1       9.428   2.544  36.528  0.00  0.00    +0.277 C 
ATOM      8  C   UNL     1       8.776   3.498  37.559  0.00  0.00    +0.110 C 
ATOM      9  C   UNL     1       8.458   4.875  36.939  0.00  0.00    +0.143 C 
ATOM     10  C   UNL     1       7.640   4.724  35.656  0.00  0.00    +0.133 C 
BRANCH  10  11
ATOM     11  N   UNL     1       7.418   6.036  35.029  0.00  0.00    -0.308 N 
ATOM     12  H   UNL     1       8.211   6.495  34.602  0.00  0.00    +0.149 HD
ATOM     13  C   UNL     1       6.238   6.661  34.987  0.00  0.00    +0.210 C 
ATOM     14  C   UNL     1       5.056   5.947  35.670  0.00  0.00    +0.109 C 
ATOM     15  O   UNL     1       6.079   7.753  34.442  0.00  0.00    -0.276 OA
ENDBRANCH  10  11
BRANCH   7  16
ATOM     16  C   UNL     1      10.874   3.002  36.246  0.00  0.00    +0.414 C 
ATOM     17  O   UNL     1      11.455   3.745  37.036  0.00  0.00    -0.240 OA
ATOM     18  O   UNL     1      11.460   2.628  35.229  0.00  0.00    -0.240 OA
ENDBRANCH   7  16
BRANCH   9  19
ATOM     19  O   UNL     1       7.724   5.666  37.875  0.00  0.00    -0.390 OA
ATOM     20  H   UNL     1       8.175   6.502  38.012  0.00  0.00    +0.210 HD
ENDBRANCH   9  19
BRANCH   7  21
ATOM     21  O   UNL     1       9.440   1.205  37.087  0.00  0.00    -0.343 OA
ATOM     22  C   UNL     1       9.958   1.110  38.438  0.00  0.00    +0.198 C 
ENDBRANCH   7  21
ENDBRANCH   4   5
BRANCH   4  23
ATOM     23  O   UNL     1       7.774   4.717  32.494  0.00  0.00    -0.387 OA
ATOM     24  H   UNL     1       7.237   5.429  32.851  0.00  0.00    +0.210 HD
ENDBRANCH   4  23
ENDBRANCH   1   4
BRANCH   1  25
ATOM     25  C   UNL     1       5.562   2.798  32.215  0.00  0.00    +0.141 C 
BRANCH  25  28
ATOM     26  C   UNL     1       3.209   3.493  32.513  0.00  0.00    +0.401 C 
ATOM     27  O   UNL     1       2.983   2.675  33.408  0.00  0.00    -0.226 OA
ATOM     28  N   UNL     1       4.385   3.615  31.895  0.00  0.00    -0.279 N 
ATOM     29  H   UNL     1       4.470   4.309  31.166  0.00  0.00    +0.152 HD
BRANCH  26  30
ATOM     30  O   UNL     1       2.161   4.370  32.092  0.00  0.00    -0.444 OA
BRANCH  30  31
ATOM     31  C   UNL     1       1.024   3.599  31.695  0.00  0.00    +0.292 C 
BRANCH  31  33
ATOM     32  N   UNL     1       0.006   4.219  29.526  0.00  0.00    -0.131 NA
ATOM     33  C   UNL     1       0.947   3.519  30.224  0.00  0.00    +0.121 A 
ATOM     34  C   UNL     1       1.721   2.804  29.341  0.00  0.00    +0.143 A 
ATOM     35  N   UNL     1       1.216   3.108  28.098  0.00  0.00    -0.220 N 
ATOM     36  N   UNL     1       0.176   3.964  28.236  0.00  0.00    -0.060 NA
BRANCH  35  37
ATOM     37  C   UNL     1       1.642   2.644  26.826  0.00  0.00    +0.074 A 
ATOM     38  C   UNL     1       1.793   3.556  25.766  0.00  0.00    +0.032 A 
ATOM     39  C   UNL     1       2.203   3.119  24.499  0.00  0.00    +0.054 A 
ATOM     40  C   UNL     1       2.464   1.769  24.278  0.00  0.00    +0.195 A 
ATOM     41  C   UNL     1       2.314   0.870  25.333  0.00  0.00    +0.316 A 
ATOM     42  C   UNL     1       1.912   1.288  26.610  0.00  0.00    +0.116 A 
BRANCH  41  43
ATOM     43  N   UNL     1       2.568  -0.543  25.132  0.00  0.00    +0.083 N 
ATOM     44  O   UNL     1       3.506  -1.051  25.762  0.00  0.00    +0.042 OA
ATOM     45  O   UNL     1       1.882  -1.114  24.273  0.00  0.00    -0.576 OA
ENDBRANCH  41  43
BRANCH  40  46
ATOM     46  O   UNL     1       2.884   1.349  23.052  0.00  0.00    -0.501 OA
ATOM     47  H   UNL     1       3.595   0.692  23.149  0.00  0.00    +0.292 HD
ENDBRANCH  40  46
ENDBRANCH  35  37
ENDBRANCH  31  33
ENDBRANCH  30  31
ENDBRANCH  26  30
ENDBRANCH  25  28
ENDBRANCH   1  25
TORSDOF 16
