REMARK VINA RESULT:    -5.606     24.863     27.915
REMARK INTER + INTRA:         -13.946
REMARK INTER:                 -10.104
REMARK INTRA:                  -3.842
REMARK UNBOUND:                -3.588
REMARK  Name = lig_assembled_58.pdb
REMARK  18 active torsions:
REMARK  status: ('A' for Active; 'I' for Inactive)
REMARK    1  A    between atoms: _2  and  _9
REMARK    2  A    between atoms: _4  and  _25
REMARK    3  A    between atoms: _6  and  _7
REMARK    4  A    between atoms: _6  and  _25
REMARK    5  A    between atoms: _9  and  _10
REMARK    6  A    between atoms: _9  and  _16
REMARK    7  A    between atoms: _21  and  _41
REMARK    8  A    between atoms: _23  and  _29
REMARK    9  A    between atoms: _24  and  _28
REMARK   10  A    between atoms: _28  and  _29
REMARK   11  A    between atoms: _31  and  _32
REMARK   12  A    between atoms: _33  and  _34
REMARK   13  A    between atoms: _35  and  _37
REMARK   14  A    between atoms: _37  and  _38
REMARK   15  A    between atoms: _37  and  _39
REMARK   16  A    between atoms: _39  and  _40
REMARK   17  A    between atoms: _39  and  _41
REMARK   18  A    between atoms: _42  and  _44
REMARK                            x       y       z     vdW  Elec       q    Type
REMARK                         _______ _______ _______ _____ _____    ______ ____
ROOT
ATOM      1  C   UNL     1      -7.111  21.168  28.098  0.00  0.00    +0.141 C 
ENDROOT
BRANCH   1   4
ATOM      2  C   UNL     1      -4.819  20.380  27.616  0.00  0.00    +0.401 C 
ATOM      3  O   UNL     1      -4.807  19.558  28.534  0.00  0.00    -0.226 OA
ATOM      4  N   UNL     1      -5.851  21.179  27.343  0.00  0.00    -0.279 N 
ATOM      5  H   UNL     1      -5.762  21.829  26.575  0.00  0.00    +0.152 HD
BRANCH   2   6
ATOM      6  O   UNL     1      -3.664  20.506  26.782  0.00  0.00    -0.444 OA
BRANCH   6   7
ATOM      7  C   UNL     1      -3.895  21.516  25.796  0.00  0.00    +0.292 C 
BRANCH   7   9
ATOM      8  N   UNL     1      -4.446  21.649  23.376  0.00  0.00    -0.131 NA
ATOM      9  C   UNL     1      -4.130  20.899  24.477  0.00  0.00    +0.120 A 
ATOM     10  C   UNL     1      -4.051  19.576  24.109  0.00  0.00    +0.138 A 
ATOM     11  N   UNL     1      -4.172  19.597  22.746  0.00  0.00    -0.240 N 
ATOM     12  N   UNL     1      -4.491  20.842  22.323  0.00  0.00    -0.064 NA
BRANCH  11  13
ATOM     13  C   UNL     1      -3.970  18.509  21.772  0.00  0.00    +0.169 C 
BRANCH  13  14
ATOM     14  C   UNL     1      -4.811  18.769  20.514  0.00  0.00    -0.019 A 
ATOM     15  C   UNL     1      -4.270  19.497  19.441  0.00  0.00    +0.006 A 
ATOM     16  C   UNL     1      -5.047  19.788  18.316  0.00  0.00    +0.000 A 
ATOM     17  C   UNL     1      -6.367  19.347  18.238  0.00  0.00    +0.000 A 
ATOM     18  C   UNL     1      -6.921  18.628  19.291  0.00  0.00    +0.000 A 
ATOM     19  C   UNL     1      -6.154  18.352  20.422  0.00  0.00    +0.006 A 
ENDBRANCH  13  14
BRANCH  13  20
ATOM     20  C   UNL     1      -2.486  18.217  21.509  0.00  0.00    -0.019 A 
ATOM     21  C   UNL     1      -1.522  19.239  21.562  0.00  0.00    +0.006 A 
ATOM     22  C   UNL     1      -0.172  18.967  21.319  0.00  0.00    +0.000 A 
ATOM     23  C   UNL     1       0.242  17.668  21.042  0.00  0.00    +0.000 A 
ATOM     24  C   UNL     1      -0.685  16.633  21.040  0.00  0.00    +0.000 A 
ATOM     25  C   UNL     1      -2.030  16.902  21.289  0.00  0.00    +0.006 A 
ENDBRANCH  13  20
ENDBRANCH  11  13
ENDBRANCH   7   9
ENDBRANCH   6   7
ENDBRANCH   2   6
ENDBRANCH   1   4
BRANCH   1  26
ATOM     26  C   UNL     1      -8.232  20.485  27.322  0.00  0.00    +0.163 C 
BRANCH  26  27
ATOM     27  O   UNL     1      -7.913  20.455  25.921  0.00  0.00    -0.388 OA
ATOM     28  H   UNL     1      -6.962  20.520  25.807  0.00  0.00    +0.210 HD
ENDBRANCH  26  27
BRANCH  26  29
ATOM     29  C   UNL     1      -8.442  19.062  27.868  0.00  0.00    +0.175 C 
BRANCH  29  30
ATOM     30  C   UNL     1      -7.831  17.994  26.950  0.00  0.00    +0.176 C 
ATOM     31  O   UNL     1      -8.803  17.688  25.912  0.00  0.00    -0.332 OA
ATOM     32  C   UNL     1      -8.349  16.757  24.874  0.00  0.00    +0.277 C 
ATOM     33  C   UNL     1      -7.833  15.444  25.512  0.00  0.00    +0.110 C 
ATOM     34  C   UNL     1      -6.821  15.720  26.643  0.00  0.00    +0.143 C 
ATOM     35  C   UNL     1      -7.394  16.702  27.665  0.00  0.00    +0.133 C 
BRANCH  35  36
ATOM     36  N   UNL     1      -6.389  17.024  28.691  0.00  0.00    -0.308 N 
ATOM     37  H   UNL     1      -5.522  17.444  28.386  0.00  0.00    +0.149 HD
ATOM     38  C   UNL     1      -6.548  16.797  29.997  0.00  0.00    +0.210 C 
ATOM     39  C   UNL     1      -7.870  16.133  30.427  0.00  0.00    +0.109 C 
ATOM     40  O   UNL     1      -5.695  17.091  30.835  0.00  0.00    -0.276 OA
ENDBRANCH  35  36
BRANCH  32  41
ATOM     41  C   UNL     1      -7.230  17.391  24.022  0.00  0.00    +0.414 C 
ATOM     42  O   UNL     1      -7.278  18.584  23.723  0.00  0.00    -0.240 OA
ATOM     43  O   UNL     1      -6.279  16.711  23.635  0.00  0.00    -0.240 OA
ENDBRANCH  32  41
BRANCH  34  44
ATOM     44  O   UNL     1      -6.488  14.497  27.301  0.00  0.00    -0.390 OA
ATOM     45  H   UNL     1      -6.864  13.759  26.815  0.00  0.00    +0.210 HD
ENDBRANCH  34  44
BRANCH  32  46
ATOM     46  O   UNL     1      -9.485  16.440  24.028  0.00  0.00    -0.343 OA
ATOM     47  C   UNL     1      -9.442  15.128  23.412  0.00  0.00    +0.198 C 
ENDBRANCH  32  46
ENDBRANCH  29  30
BRANCH  29  48
ATOM     48  O   UNL     1      -9.848  18.807  28.060  0.00  0.00    -0.387 OA
ATOM     49  H   UNL     1     -10.069  17.945  27.699  0.00  0.00    +0.210 HD
ENDBRANCH  29  48
ENDBRANCH  26  29
ENDBRANCH   1  26
TORSDOF 16
