REMARK VINA RESULT:    -6.407      5.880      7.729
REMARK INTER + INTRA:         -13.368
REMARK INTER:                 -11.438
REMARK INTRA:                  -1.930
REMARK UNBOUND:                -1.905
REMARK  Name = lig_assembled_38.pdb
REMARK  17 active torsions:
REMARK  status: ('A' for Active; 'I' for Inactive)
REMARK    1  A    between atoms: _2  and  _9
REMARK    2  A    between atoms: _4  and  _19
REMARK    3  A    between atoms: _6  and  _7
REMARK    4  A    between atoms: _6  and  _19
REMARK    5  A    between atoms: _9  and  _10
REMARK    6  A    between atoms: _15  and  _35
REMARK    7  A    between atoms: _17  and  _23
REMARK    8  A    between atoms: _18  and  _22
REMARK    9  A    between atoms: _22  and  _23
REMARK   10  A    between atoms: _25  and  _26
REMARK   11  A    between atoms: _27  and  _28
REMARK   12  A    between atoms: _29  and  _31
REMARK   13  A    between atoms: _31  and  _32
REMARK   14  A    between atoms: _31  and  _33
REMARK   15  A    between atoms: _33  and  _34
REMARK   16  A    between atoms: _33  and  _35
REMARK   17  A    between atoms: _36  and  _38
REMARK                            x       y       z     vdW  Elec       q    Type
REMARK                         _______ _______ _______ _____ _____    ______ ____
ROOT
ATOM      1  C   UNL     1       7.530   2.419  34.277  0.00  0.00    +0.163 C 
ENDROOT
BRANCH   1   2
ATOM      2  O   UNL     1       8.104   2.372  35.593  0.00  0.00    -0.388 OA
ATOM      3  H   UNL     1       8.526   1.520  35.729  0.00  0.00    +0.210 HD
ENDBRANCH   1   2
BRANCH   1   4
ATOM      4  C   UNL     1       8.119   1.310  33.410  0.00  0.00    +0.141 C 
BRANCH   4   7
ATOM      5  C   UNL     1       6.155   0.188  32.415  0.00  0.00    +0.401 C 
ATOM      6  O   UNL     1       5.862   1.140  31.689  0.00  0.00    -0.226 OA
ATOM      7  N   UNL     1       7.190   0.184  33.256  0.00  0.00    -0.279 N 
ATOM      8  H   UNL     1       7.345  -0.641  33.819  0.00  0.00    +0.152 HD
BRANCH   5   9
ATOM      9  O   UNL     1       5.348  -0.991  32.375  0.00  0.00    -0.444 OA
BRANCH   9  10
ATOM     10  C   UNL     1       4.999  -1.285  31.019  0.00  0.00    +0.292 C 
BRANCH  10  12
ATOM     11  N   UNL     1       6.442  -3.297  30.927  0.00  0.00    -0.131 NA
ATOM     12  C   UNL     1       6.051  -2.102  30.382  0.00  0.00    +0.120 A 
ATOM     13  C   UNL     1       6.757  -1.885  29.219  0.00  0.00    +0.137 A 
ATOM     14  N   UNL     1       7.518  -3.010  29.081  0.00  0.00    -0.247 N 
ATOM     15  N   UNL     1       7.335  -3.849  30.118  0.00  0.00    -0.065 NA
BRANCH  14  16
ATOM     16  C   UNL     1       8.243  -3.450  27.902  0.00  0.00    +0.180 C 
BRANCH  16  17
ATOM     17  C   UNL     1       7.482  -3.240  26.616  0.00  0.00    -0.025 A 
ATOM     18  C   UNL     1       7.875  -2.252  25.700  0.00  0.00    +0.005 A 
ATOM     19  C   UNL     1       7.222  -2.123  24.469  0.00  0.00    +0.001 A 
ATOM     20  C   UNL     1       6.170  -2.977  24.142  0.00  0.00    +0.015 A 
ATOM     21  C   UNL     1       5.769  -3.952  25.050  0.00  0.00    +0.018 A 
ATOM     22 BR   UNL     1       4.349  -5.119  24.605  0.00  0.00    -0.050 Br
ATOM     23  C   UNL     1       6.415  -4.089  26.280  0.00  0.00    +0.020 A 
ENDBRANCH  16  17
ENDBRANCH  14  16
ENDBRANCH  10  12
ENDBRANCH   9  10
ENDBRANCH   5   9
ENDBRANCH   4   7
ENDBRANCH   1   4
BRANCH   1  24
ATOM     24  C   UNL     1       7.787   3.782  33.612  0.00  0.00    +0.175 C 
BRANCH  24  25
ATOM     25  C   UNL     1       7.145   4.937  34.395  0.00  0.00    +0.176 C 
ATOM     26  O   UNL     1       7.888   5.105  35.634  0.00  0.00    -0.332 OA
ATOM     27  C   UNL     1       7.481   6.239  36.469  0.00  0.00    +0.277 C 
ATOM     28  C   UNL     1       5.964   6.170  36.773  0.00  0.00    +0.110 C 
ATOM     29  C   UNL     1       5.135   5.960  35.489  0.00  0.00    +0.143 C 
ATOM     30  C   UNL     1       5.646   4.757  34.696  0.00  0.00    +0.133 C 
BRANCH  30  31
ATOM     31  N   UNL     1       4.904   4.619  33.432  0.00  0.00    -0.308 N 
ATOM     32  H   UNL     1       5.054   5.319  32.719  0.00  0.00    +0.149 HD
ATOM     33  C   UNL     1       4.046   3.631  33.167  0.00  0.00    +0.210 C 
ATOM     34  C   UNL     1       3.819   2.595  34.285  0.00  0.00    +0.109 C 
ATOM     35  O   UNL     1       3.450   3.533  32.094  0.00  0.00    -0.276 OA
ENDBRANCH  30  31
BRANCH  27  36
ATOM     36  C   UNL     1       7.806   7.576  35.771  0.00  0.00    +0.414 C 
ATOM     37  O   UNL     1       7.785   7.656  34.544  0.00  0.00    -0.240 OA
ATOM     38  O   UNL     1       8.090   8.574  36.436  0.00  0.00    -0.240 OA
ENDBRANCH  27  36
BRANCH  27  39
ATOM     39  O   UNL     1       8.204   6.154  37.724  0.00  0.00    -0.343 OA
ATOM     40  C   UNL     1       9.516   5.544  37.635  0.00  0.00    +0.198 C 
ENDBRANCH  27  39
BRANCH  29  41
ATOM     41  O   UNL     1       3.764   5.751  35.830  0.00  0.00    -0.390 OA
ATOM     42  H   UNL     1       3.457   6.473  36.383  0.00  0.00    +0.210 HD
ENDBRANCH  29  41
ENDBRANCH  24  25
BRANCH  24  43
ATOM     43  O   UNL     1       7.302   3.772  32.255  0.00  0.00    -0.387 OA
ATOM     44  H   UNL     1       6.481   3.277  32.211  0.00  0.00    +0.210 HD
ENDBRANCH  24  43
ENDBRANCH   1  24
TORSDOF 15
