REMARK VINA RESULT:    -5.145     14.650     16.397
REMARK INTER + INTRA:         -12.404
REMARK INTER:                 -10.216
REMARK INTRA:                  -2.188
REMARK UNBOUND:                -3.800
REMARK  Name = lig_assembled_65.pdb
REMARK  16 active torsions:
REMARK  status: ('A' for Active; 'I' for Inactive)
REMARK    1  A    between atoms: _8  and  _20
REMARK    2  A    between atoms: _9  and  _15
REMARK    3  A    between atoms: _10  and  _11
REMARK    4  A    between atoms: _10  and  _20
REMARK    5  A    between atoms: _16  and  _36
REMARK    6  A    between atoms: _18  and  _24
REMARK    7  A    between atoms: _19  and  _23
REMARK    8  A    between atoms: _23  and  _24
REMARK    9  A    between atoms: _26  and  _27
REMARK   10  A    between atoms: _28  and  _29
REMARK   11  A    between atoms: _30  and  _32
REMARK   12  A    between atoms: _32  and  _33
REMARK   13  A    between atoms: _32  and  _34
REMARK   14  A    between atoms: _34  and  _35
REMARK   15  A    between atoms: _34  and  _36
REMARK   16  A    between atoms: _37  and  _39
REMARK                            x       y       z     vdW  Elec       q    Type
REMARK                         _______ _______ _______ _____ _____    ______ ____
ROOT
ATOM      1  C   UNL     1       2.031   0.513  24.497  0.00  0.00    +0.163 C 
ENDROOT
BRANCH   1   2
ATOM      2  O   UNL     1       2.892  -0.039  23.487  0.00  0.00    -0.388 OA
ATOM      3  H   UNL     1       3.629  -0.490  23.905  0.00  0.00    +0.210 HD
ENDBRANCH   1   2
BRANCH   1   4
ATOM      4  C   UNL     1       1.921  -0.453  25.672  0.00  0.00    +0.141 C 
BRANCH   4   7
ATOM      5  C   UNL     1       1.733   0.657  27.872  0.00  0.00    +0.401 C 
ATOM      6  O   UNL     1       0.503   0.742  27.829  0.00  0.00    -0.226 OA
ATOM      7  N   UNL     1       2.477   0.118  26.905  0.00  0.00    -0.279 N 
ATOM      8  H   UNL     1       3.480   0.102  27.027  0.00  0.00    +0.152 HD
BRANCH   5   9
ATOM      9  O   UNL     1       2.425   1.163  29.016  0.00  0.00    -0.444 OA
BRANCH   9  10
ATOM     10  C   UNL     1       1.484   1.736  29.929  0.00  0.00    +0.292 C 
BRANCH  10  12
ATOM     11  N   UNL     1       1.534   3.598  31.560  0.00  0.00    -0.131 NA
ATOM     12  C   UNL     1       2.178   2.570  30.928  0.00  0.00    +0.121 A 
ATOM     13  C   UNL     1       3.472   2.502  31.386  0.00  0.00    +0.149 A 
ATOM     14  N   UNL     1       3.579   3.527  32.302  0.00  0.00    -0.155 N 
ATOM     15  C   UNL     1       4.735   3.893  33.052  0.00  0.00    +0.416 C 
ATOM     16  N   UNL     1       4.647   4.923  33.902  0.00  0.00    +0.041 NA
ATOM     17  C   UNL     1       5.771   5.216  34.552  0.00  0.00    +0.339 C 
ATOM     18  C   UNL     1       5.739   6.366  35.509  0.00  0.00    +0.149 C 
ATOM     19  N   UNL     1       6.923   4.563  34.401  0.00  0.00    +0.007 NA
ATOM     20  C   UNL     1       6.907   3.570  33.526  0.00  0.00    +0.386 C 
ATOM     21  N   UNL     1       8.082   2.876  33.331  0.00  0.00    -0.296 N 
ATOM     22  H   UNL     1       8.695   2.980  34.128  0.00  0.00    +0.148 HD
ATOM     23  H   UNL     1       7.905   1.940  32.997  0.00  0.00    +0.148 HD
ATOM     24  N   UNL     1       5.849   3.176  32.841  0.00  0.00    -0.290 NA
ATOM     25  N   UNL     1       2.390   4.173  32.397  0.00  0.00    -0.055 NA
ENDBRANCH  10  12
ENDBRANCH   9  10
ENDBRANCH   5   9
ENDBRANCH   4   7
ENDBRANCH   1   4
BRANCH   1  26
ATOM     26  C   UNL     1       0.629   0.796  23.931  0.00  0.00    +0.175 C 
BRANCH  26  27
ATOM     27  C   UNL     1       0.608   2.044  23.037  0.00  0.00    +0.176 C 
ATOM     28  O   UNL     1       1.308   1.723  21.804  0.00  0.00    -0.332 OA
ATOM     29  C   UNL     1       1.298   2.771  20.778  0.00  0.00    +0.277 C 
ATOM     30  C   UNL     1       1.840   4.101  21.357  0.00  0.00    +0.110 C 
ATOM     31  C   UNL     1       1.147   4.467  22.686  0.00  0.00    +0.143 C 
ATOM     32  C   UNL     1       1.214   3.306  23.679  0.00  0.00    +0.133 C 
BRANCH  32  33
ATOM     33  N   UNL     1       0.476   3.636  24.908  0.00  0.00    -0.308 N 
ATOM     34  H   UNL     1      -0.528   3.730  24.845  0.00  0.00    +0.149 HD
ATOM     35  C   UNL     1       1.046   3.819  26.102  0.00  0.00    +0.210 C 
ATOM     36  C   UNL     1       2.580   3.694  26.161  0.00  0.00    +0.109 C 
ATOM     37  O   UNL     1       0.401   4.079  27.118  0.00  0.00    -0.276 OA
ENDBRANCH  32  33
BRANCH  29  38
ATOM     38  C   UNL     1      -0.129   2.989  20.234  0.00  0.00    +0.414 C 
ATOM     39  O   UNL     1      -0.560   4.129  20.064  0.00  0.00    -0.240 OA
ATOM     40  O   UNL     1      -0.849   2.026  19.965  0.00  0.00    -0.240 OA
ENDBRANCH  29  38
BRANCH  29  41
ATOM     41  O   UNL     1       2.173   2.351  19.700  0.00  0.00    -0.343 OA
ATOM     42  C   UNL     1       2.359   3.330  18.646  0.00  0.00    +0.198 C 
ENDBRANCH  29  41
BRANCH  31  43
ATOM     43  O   UNL     1       1.779   5.613  23.259  0.00  0.00    -0.390 OA
ATOM     44  H   UNL     1       1.770   5.539  24.216  0.00  0.00    +0.210 HD
ENDBRANCH  31  43
ENDBRANCH  26  27
BRANCH  26  45
ATOM     45  O   UNL     1      -0.321   0.938  25.006  0.00  0.00    -0.387 OA
ATOM     46  H   UNL     1      -0.601   1.854  25.067  0.00  0.00    +0.210 HD
ENDBRANCH  26  45
ENDBRANCH   1  26
TORSDOF 13
