REMARK VINA RESULT:    -5.671      7.456     11.247
REMARK INTER + INTRA:         -12.227
REMARK INTER:                 -10.727
REMARK INTRA:                  -1.501
REMARK UNBOUND:                -2.413
REMARK  Name = lig_assembled_8.pdb
REMARK  16 active torsions:
REMARK  status: ('A' for Active; 'I' for Inactive)
REMARK    1  A    between atoms: _2  and  _9
REMARK    2  A    between atoms: _4  and  _18
REMARK    3  A    between atoms: _6  and  _7
REMARK    4  A    between atoms: _6  and  _18
REMARK    5  A    between atoms: _14  and  _34
REMARK    6  A    between atoms: _16  and  _22
REMARK    7  A    between atoms: _17  and  _21
REMARK    8  A    between atoms: _21  and  _22
REMARK    9  A    between atoms: _24  and  _25
REMARK   10  A    between atoms: _26  and  _27
REMARK   11  A    between atoms: _28  and  _30
REMARK   12  A    between atoms: _30  and  _31
REMARK   13  A    between atoms: _30  and  _32
REMARK   14  A    between atoms: _32  and  _33
REMARK   15  A    between atoms: _32  and  _34
REMARK   16  A    between atoms: _35  and  _37
REMARK                            x       y       z     vdW  Elec       q    Type
REMARK                         _______ _______ _______ _____ _____    ______ ____
ROOT
ATOM      1  C   UNL     1       7.567   3.805  33.546  0.00  0.00    +0.163 C 
ENDROOT
BRANCH   1   2
ATOM      2  O   UNL     1       7.411   3.649  32.126  0.00  0.00    -0.388 OA
ATOM      3  H   UNL     1       7.210   4.500  31.730  0.00  0.00    +0.210 HD
ENDBRANCH   1   2
BRANCH   1   4
ATOM      4  C   UNL     1       8.095   2.512  34.158  0.00  0.00    +0.141 C 
BRANCH   4   7
ATOM      5  C   UNL     1      10.402   2.466  35.043  0.00  0.00    +0.401 C 
ATOM      6  O   UNL     1      10.057   2.647  36.213  0.00  0.00    -0.226 OA
ATOM      7  N   UNL     1       9.552   2.395  34.018  0.00  0.00    -0.279 N 
ATOM      8  H   UNL     1       9.932   2.254  33.092  0.00  0.00    +0.152 HD
BRANCH   5   9
ATOM      9  O   UNL     1      11.793   2.323  34.743  0.00  0.00    -0.444 OA
BRANCH   9  10
ATOM     10  C   UNL     1      12.569   2.713  35.879  0.00  0.00    +0.292 C 
BRANCH  10  12
ATOM     11  N   UNL     1      13.372   5.022  36.213  0.00  0.00    -0.131 NA
ATOM     12  C   UNL     1      13.445   3.847  35.535  0.00  0.00    +0.121 A 
ATOM     13  C   UNL     1      14.421   3.951  34.570  0.00  0.00    +0.143 A 
ATOM     14  N   UNL     1      14.946   5.224  34.710  0.00  0.00    -0.219 N 
ATOM     15  N   UNL     1      14.276   5.847  35.705  0.00  0.00    -0.060 NA
BRANCH  14  16
ATOM     16  C   UNL     1      16.016   5.822  33.975  0.00  0.00    +0.081 A 
ATOM     17  C   UNL     1      15.733   6.973  33.205  0.00  0.00    +0.029 A 
ATOM     18  C   UNL     1      16.718   7.603  32.441  0.00  0.00    +0.002 A 
ATOM     19  C   UNL     1      18.011   7.102  32.427  0.00  0.00    +0.001 A 
ATOM     20  C   UNL     1      18.317   5.974  33.183  0.00  0.00    +0.017 A 
ATOM     21  C   UNL     1      17.336   5.328  33.960  0.00  0.00    +0.043 A 
ATOM     22 BR   UNL     1      17.996   3.813  34.910  0.00  0.00    -0.048 Br
ENDBRANCH  14  16
ENDBRANCH  10  12
ENDBRANCH   9  10
ENDBRANCH   5   9
ENDBRANCH   4   7
ENDBRANCH   1   4
BRANCH   1  23
ATOM     23  C   UNL     1       6.230   4.179  34.208  0.00  0.00    +0.175 C 
BRANCH  23  24
ATOM     24  C   UNL     1       6.396   5.282  35.264  0.00  0.00    +0.176 C 
ATOM     25  O   UNL     1       7.770   5.244  35.738  0.00  0.00    -0.332 OA
ATOM     26  C   UNL     1       8.144   6.301  36.681  0.00  0.00    +0.277 C 
ATOM     27  C   UNL     1       7.175   6.318  37.888  0.00  0.00    +0.110 C 
ATOM     28  C   UNL     1       5.700   6.326  37.434  0.00  0.00    +0.143 C 
ATOM     29  C   UNL     1       5.421   5.187  36.453  0.00  0.00    +0.133 C 
BRANCH  29  30
ATOM     30  N   UNL     1       4.037   5.258  35.960  0.00  0.00    -0.308 N 
ATOM     31  H   UNL     1       3.806   5.991  35.304  0.00  0.00    +0.149 HD
ATOM     32  C   UNL     1       3.065   4.417  36.324  0.00  0.00    +0.210 C 
ATOM     33  C   UNL     1       3.441   3.327  37.345  0.00  0.00    +0.109 C 
ATOM     34  O   UNL     1       1.917   4.492  35.884  0.00  0.00    -0.276 OA
ENDBRANCH  29  30
BRANCH  26  35
ATOM     35  C   UNL     1       8.131   7.681  35.990  0.00  0.00    +0.414 C 
ATOM     36  O   UNL     1       8.143   8.711  36.662  0.00  0.00    -0.240 OA
ATOM     37  O   UNL     1       8.108   7.763  34.761  0.00  0.00    -0.240 OA
ENDBRANCH  26  35
BRANCH  28  38
ATOM     38  O   UNL     1       4.845   6.189  38.569  0.00  0.00    -0.390 OA
ATOM     39  H   UNL     1       3.999   5.830  38.292  0.00  0.00    +0.210 HD
ENDBRANCH  28  38
BRANCH  26  40
ATOM     40  O   UNL     1       9.479   6.013  37.171  0.00  0.00    -0.343 OA
ATOM     41  C   UNL     1       9.587   5.878  38.611  0.00  0.00    +0.198 C 
ENDBRANCH  26  40
ENDBRANCH  23  24
BRANCH  23  42
ATOM     42  O   UNL     1       5.625   3.011  34.800  0.00  0.00    -0.387 OA
ATOM     43  H   UNL     1       5.998   2.865  35.672  0.00  0.00    +0.210 HD
ENDBRANCH  23  42
ENDBRANCH   1  23
TORSDOF 14
