REMARK VINA RESULT:    -6.209     13.628     18.162
REMARK INTER + INTRA:         -14.064
REMARK INTER:                 -11.274
REMARK INTRA:                  -2.790
REMARK UNBOUND:                -2.230
REMARK  Name = lig_assembled_9.pdb
REMARK  20 active torsions:
REMARK  status: ('A' for Active; 'I' for Inactive)
REMARK    1  A    between atoms: _2  and  _9
REMARK    2  A    between atoms: _4  and  _23
REMARK    3  A    between atoms: _6  and  _7
REMARK    4  A    between atoms: _6  and  _23
REMARK    5  A    between atoms: _11  and  _12
REMARK    6  A    between atoms: _12  and  _17
REMARK    7  A    between atoms: _13  and  _14
REMARK    8  A    between atoms: _13  and  _17
REMARK    9  A    between atoms: _19  and  _39
REMARK   10  A    between atoms: _21  and  _27
REMARK   11  A    between atoms: _22  and  _26
REMARK   12  A    between atoms: _26  and  _27
REMARK   13  A    between atoms: _29  and  _30
REMARK   14  A    between atoms: _31  and  _32
REMARK   15  A    between atoms: _33  and  _35
REMARK   16  A    between atoms: _35  and  _36
REMARK   17  A    between atoms: _35  and  _37
REMARK   18  A    between atoms: _37  and  _38
REMARK   19  A    between atoms: _37  and  _39
REMARK   20  A    between atoms: _40  and  _42
REMARK                            x       y       z     vdW  Elec       q    Type
REMARK                         _______ _______ _______ _____ _____    ______ ____
ROOT
ATOM      1  C   UNL     1      19.038   6.242  23.940  0.00  0.00    +0.163 C 
ENDROOT
BRANCH   1   2
ATOM      2  O   UNL     1      17.980   6.260  22.968  0.00  0.00    -0.388 OA
ATOM      3  H   UNL     1      18.346   6.438  22.099  0.00  0.00    +0.210 HD
ENDBRANCH   1   2
BRANCH   1   4
ATOM      4  C   UNL     1      19.656   4.837  24.055  0.00  0.00    +0.175 C 
BRANCH   4   5
ATOM      5  C   UNL     1      18.899   3.953  25.057  0.00  0.00    +0.176 C 
ATOM      6  O   UNL     1      19.844   3.521  26.074  0.00  0.00    -0.332 OA
ATOM      7  C   UNL     1      19.273   2.748  27.182  0.00  0.00    +0.277 C 
ATOM      8  C   UNL     1      18.490   1.526  26.642  0.00  0.00    +0.110 C 
ATOM      9  C   UNL     1      17.494   1.932  25.535  0.00  0.00    +0.143 C 
ATOM     10  C   UNL     1      18.193   2.734  24.436  0.00  0.00    +0.133 C 
BRANCH  10  11
ATOM     11  N   UNL     1      17.219   3.189  23.432  0.00  0.00    -0.308 N 
ATOM     12  H   UNL     1      16.513   3.850  23.725  0.00  0.00    +0.149 HD
ATOM     13  C   UNL     1      17.206   2.786  22.158  0.00  0.00    +0.210 C 
ATOM     14  C   UNL     1      18.279   1.759  21.749  0.00  0.00    +0.109 C 
ATOM     15  O   UNL     1      16.387   3.196  21.335  0.00  0.00    -0.276 OA
ENDBRANCH  10  11
BRANCH   7  16
ATOM     16  C   UNL     1      18.335   3.626  28.036  0.00  0.00    +0.414 C 
ATOM     17  O   UNL     1      18.702   4.737  28.417  0.00  0.00    -0.240 OA
ATOM     18  O   UNL     1      17.212   3.224  28.343  0.00  0.00    -0.240 OA
ENDBRANCH   7  16
BRANCH   7  19
ATOM     19  O   UNL     1      20.368   2.263  28.001  0.00  0.00    -0.343 OA
ATOM     20  C   UNL     1      20.392   0.828  28.205  0.00  0.00    +0.198 C 
ENDBRANCH   7  19
BRANCH   9  21
ATOM     21  O   UNL     1      16.906   0.763  24.963  0.00  0.00    -0.390 OA
ATOM     22  H   UNL     1      15.969   0.743  25.168  0.00  0.00    +0.210 HD
ENDBRANCH   9  21
ENDBRANCH   4   5
BRANCH   4  23
ATOM     23  O   UNL     1      21.045   4.935  24.429  0.00  0.00    -0.387 OA
ATOM     24  H   UNL     1      21.590   4.556  23.736  0.00  0.00    +0.210 HD
ENDBRANCH   4  23
ENDBRANCH   1   4
BRANCH   1  25
ATOM     25  C   UNL     1      20.120   7.244  23.552  0.00  0.00    +0.141 C 
BRANCH  25  28
ATOM     26  C   UNL     1      21.306   8.225  25.485  0.00  0.00    +0.401 C 
ATOM     27  O   UNL     1      22.147   7.326  25.545  0.00  0.00    -0.226 OA
ATOM     28  N   UNL     1      20.319   8.264  24.589  0.00  0.00    -0.279 N 
ATOM     29  H   UNL     1      19.671   9.039  24.626  0.00  0.00    +0.152 HD
BRANCH  26  30
ATOM     30  O   UNL     1      21.370   9.300  26.426  0.00  0.00    -0.444 OA
BRANCH  30  31
ATOM     31  C   UNL     1      20.130  10.013  26.422  0.00  0.00    +0.292 C 
BRANCH  31  33
ATOM     32  N   UNL     1      18.502  10.706  28.154  0.00  0.00    -0.131 NA
ATOM     33  C   UNL     1      19.415   9.801  27.695  0.00  0.00    +0.121 A 
ATOM     34  C   UNL     1      19.501   8.757  28.586  0.00  0.00    +0.143 A 
ATOM     35  N   UNL     1      18.580   9.052  29.567  0.00  0.00    -0.220 N 
ATOM     36  N   UNL     1      18.005  10.247  29.295  0.00  0.00    -0.060 NA
BRANCH  35  37
ATOM     37  C   UNL     1      18.207   8.275  30.694  0.00  0.00    +0.068 A 
ATOM     38  C   UNL     1      17.155   8.685  31.524  0.00  0.00    +0.042 A 
ATOM     39  C   UNL     1      16.811   7.931  32.656  0.00  0.00    +0.061 A 
ATOM     40  C   UNL     1      17.520   6.761  32.952  0.00  0.00    +0.015 A 
ATOM     41  C   UNL     1      18.561   6.343  32.119  0.00  0.00    +0.003 A 
ATOM     42  C   UNL     1      18.904   7.094  30.993  0.00  0.00    +0.028 A 
BRANCH  39  43
ATOM     43  C   UNL     1      15.664   8.298  33.528  0.00  0.00    +0.339 C 
ATOM     44  O   UNL     1      14.901   7.485  34.023  0.00  0.00    -0.245 OA
BRANCH  43  45
ATOM     45  O   UNL     1      15.552   9.648  33.593  0.00  0.00    -0.461 OA
BRANCH  45  46
ATOM     46  C   UNL     1      16.254  10.275  34.674  0.00  0.00    +0.229 C 
ATOM     47  C   UNL     1      17.093  11.400  34.098  0.00  0.00    +0.048 C 
ENDBRANCH  45  46
ENDBRANCH  43  45
ENDBRANCH  39  43
ENDBRANCH  35  37
ENDBRANCH  31  33
ENDBRANCH  30  31
ENDBRANCH  26  30
ENDBRANCH  25  28
ENDBRANCH   1  25
TORSDOF 17
