REMARK VINA RESULT:    -7.083     14.942     17.005
REMARK INTER + INTRA:         -16.753
REMARK INTER:                 -14.410
REMARK INTRA:                  -2.343
REMARK UNBOUND:                -2.424
REMARK  Name = lig_assembled_81.pdb
REMARK  22 active torsions:
REMARK  status: ('A' for Active; 'I' for Inactive)
REMARK    1  A    between atoms: _2  and  _12
REMARK    2  A    between atoms: _7  and  _30
REMARK    3  A    between atoms: _8  and  _24
REMARK    4  A    between atoms: _9  and  _10
REMARK    5  A    between atoms: _9  and  _30
REMARK    6  A    between atoms: _14  and  _15
REMARK    7  A    between atoms: _21  and  _22
REMARK    8  A    between atoms: _22  and  _23
REMARK    9  A    between atoms: _23  and  _25
REMARK   10  A    between atoms: _24  and  _25
REMARK   11  A    between atoms: _26  and  _46
REMARK   12  A    between atoms: _28  and  _34
REMARK   13  A    between atoms: _29  and  _33
REMARK   14  A    between atoms: _33  and  _34
REMARK   15  A    between atoms: _36  and  _37
REMARK   16  A    between atoms: _38  and  _39
REMARK   17  A    between atoms: _40  and  _42
REMARK   18  A    between atoms: _42  and  _43
REMARK   19  A    between atoms: _42  and  _44
REMARK   20  A    between atoms: _44  and  _45
REMARK   21  A    between atoms: _44  and  _46
REMARK   22  A    between atoms: _47  and  _49
REMARK                            x       y       z     vdW  Elec       q    Type
REMARK                         _______ _______ _______ _____ _____    ______ ____
ROOT
ATOM      1  C   UNL     1       1.462   2.298  32.331  0.00  0.00    +0.401 C 
ATOM      2  O   UNL     1       1.248   3.348  32.942  0.00  0.00    -0.226 OA
ATOM      3  N   UNL     1       2.608   1.619  32.395  0.00  0.00    -0.279 N 
ATOM      4  H   UNL     1       2.684   0.762  31.865  0.00  0.00    +0.152 HD
ENDROOT
BRANCH   1   5
ATOM      5  O   UNL     1       0.432   1.755  31.501  0.00  0.00    -0.444 OA
BRANCH   5   6
ATOM      6  C   UNL     1      -0.117   2.791  30.681  0.00  0.00    +0.289 C 
BRANCH   6   8
ATOM      7  N   UNL     1       1.646   3.757  29.276  0.00  0.00    -0.130 NA
ATOM      8  C   UNL     1       0.616   2.874  29.402  0.00  0.00    +0.100 C 
ATOM      9  C   UNL     1       0.449   2.217  28.197  0.00  0.00    +0.124 C 
ATOM     10  N   UNL     1       1.510   2.646  27.412  0.00  0.00    -0.187 N 
ATOM     11  N   UNL     1       2.081   3.700  28.030  0.00  0.00    -0.010 NA
BRANCH  10  12
ATOM     12  C   UNL     1       1.848   2.235  26.079  0.00  0.00    +0.150 A 
ATOM     13  C   UNL     1       1.589   2.973  24.897  0.00  0.00    +0.022 A 
ATOM     14  C   UNL     1       1.960   2.283  23.713  0.00  0.00    +0.081 A 
ATOM     15  N   UNL     1       2.442   1.010  23.748  0.00  0.00    -0.214 NA
ATOM     16  C   UNL     1       2.614   0.413  24.915  0.00  0.00    +0.215 A 
ATOM     17  N   UNL     1       3.016  -0.901  24.924  0.00  0.00    -0.327 N 
ATOM     18  H   UNL     1       3.475  -1.149  24.061  0.00  0.00    +0.145 HD
ATOM     19  H   UNL     1       3.448  -1.155  25.799  0.00  0.00    +0.145 HD
ATOM     20  N   UNL     1       2.428   1.003  26.080  0.00  0.00    -0.198 NA
BRANCH  14  21
ATOM     21  C   UNL     1       1.876   2.772  22.284  0.00  0.00    +0.001 A 
ATOM     22  C   UNL     1       1.855   4.124  21.893  0.00  0.00    +0.010 A 
ATOM     23  C   UNL     1       1.789   4.517  20.546  0.00  0.00    +0.001 A 
ATOM     24  C   UNL     1       1.802   3.574  19.535  0.00  0.00    +0.000 A 
ATOM     25  C   UNL     1       1.879   2.224  19.870  0.00  0.00    +0.001 A 
ATOM     26  C   UNL     1       1.902   1.840  21.219  0.00  0.00    +0.010 A 
ENDBRANCH  14  21
BRANCH  13  27
ATOM     27  C   UNL     1       1.081   4.411  24.760  0.00  0.00    +0.069 C 
BRANCH  27  28
ATOM     28  C   UNL     1      -0.274   4.821  25.305  0.00  0.00    +0.164 C 
BRANCH  28  29
ATOM     29  O   UNL     1      -1.415   4.198  24.704  0.00  0.00    -0.380 OA
BRANCH  29  30
ATOM     30  C   UNL     1      -1.416   4.604  23.321  0.00  0.00    +0.156 C 
ATOM     31  C   UNL     1      -2.664   5.379  22.967  0.00  0.00    +0.034 C 
ENDBRANCH  29  30
ENDBRANCH  28  29
ENDBRANCH  27  28
ENDBRANCH  13  27
ENDBRANCH  10  12
ENDBRANCH   6   8
ENDBRANCH   5   6
ENDBRANCH   1   5
BRANCH   3  32
ATOM     32  C   UNL     1       3.764   2.046  33.192  0.00  0.00    +0.141 C 
BRANCH  32  33
ATOM     33  C   UNL     1       4.619   3.068  32.452  0.00  0.00    +0.163 C 
BRANCH  33  34
ATOM     34  O   UNL     1       4.058   4.382  32.606  0.00  0.00    -0.388 OA
ATOM     35  H   UNL     1       4.395   4.782  33.411  0.00  0.00    +0.210 HD
ENDBRANCH  33  34
BRANCH  33  36
ATOM     36  C   UNL     1       6.060   3.019  32.989  0.00  0.00    +0.175 C 
BRANCH  36  37
ATOM     37  C   UNL     1       6.210   3.785  34.312  0.00  0.00    +0.176 C 
ATOM     38  O   UNL     1       6.119   5.206  34.018  0.00  0.00    -0.332 OA
ATOM     39  C   UNL     1       6.136   6.096  35.183  0.00  0.00    +0.277 C 
ATOM     40  C   UNL     1       7.385   5.821  36.056  0.00  0.00    +0.110 C 
ATOM     41  C   UNL     1       7.541   4.318  36.368  0.00  0.00    +0.143 C 
ATOM     42  C   UNL     1       7.507   3.485  35.086  0.00  0.00    +0.133 C 
BRANCH  42  43
ATOM     43  N   UNL     1       7.570   2.049  35.402  0.00  0.00    -0.308 N 
ATOM     44  H   UNL     1       6.780   1.636  35.878  0.00  0.00    +0.149 HD
ATOM     45  C   UNL     1       8.603   1.257  35.102  0.00  0.00    +0.210 C 
ATOM     46  C   UNL     1       9.802   1.922  34.400  0.00  0.00    +0.109 C 
ATOM     47  O   UNL     1       8.621   0.054  35.366  0.00  0.00    -0.276 OA
ENDBRANCH  42  43
BRANCH  39  48
ATOM     48  C   UNL     1       4.861   5.909  36.033  0.00  0.00    +0.414 C 
ATOM     49  O   UNL     1       3.831   5.477  35.518  0.00  0.00    -0.240 OA
ATOM     50  O   UNL     1       4.864   6.190  37.232  0.00  0.00    -0.240 OA
ENDBRANCH  39  48
BRANCH  39  51
ATOM     51  O   UNL     1       6.206   7.463  34.702  0.00  0.00    -0.343 OA
ATOM     52  C   UNL     1       7.525   8.064  34.756  0.00  0.00    +0.198 C 
ENDBRANCH  39  51
BRANCH  41  53
ATOM     53  O   UNL     1       8.780   4.092  37.043  0.00  0.00    -0.390 OA
ATOM     54  H   UNL     1       8.614   3.942  37.976  0.00  0.00    +0.210 HD
ENDBRANCH  41  53
ENDBRANCH  36  37
BRANCH  36  55
ATOM     55  O   UNL     1       6.975   3.542  32.005  0.00  0.00    -0.387 OA
ATOM     56  H   UNL     1       6.525   3.625  31.161  0.00  0.00    +0.210 HD
ENDBRANCH  36  55
ENDBRANCH  33  36
ENDBRANCH  32  33
ENDBRANCH   3  32
TORSDOF 19
