REMARK VINA RESULT:    -7.016      1.999      3.132
REMARK INTER + INTRA:         -14.919
REMARK INTER:                 -13.061
REMARK INTRA:                  -1.859
REMARK UNBOUND:                -1.955
REMARK  Name = lig_assembled_78.pdb
REMARK  18 active torsions:
REMARK  status: ('A' for Active; 'I' for Inactive)
REMARK    1  A    between atoms: _2  and  _9
REMARK    2  A    between atoms: _4  and  _21
REMARK    3  A    between atoms: _6  and  _7
REMARK    4  A    between atoms: _6  and  _21
REMARK    5  A    between atoms: _9  and  _41
REMARK    6  A    between atoms: _10  and  _41
REMARK    7  A    between atoms: _17  and  _37
REMARK    8  A    between atoms: _19  and  _25
REMARK    9  A    between atoms: _20  and  _24
REMARK   10  A    between atoms: _24  and  _25
REMARK   11  A    between atoms: _27  and  _28
REMARK   12  A    between atoms: _29  and  _30
REMARK   13  A    between atoms: _31  and  _33
REMARK   14  A    between atoms: _33  and  _34
REMARK   15  A    between atoms: _33  and  _35
REMARK   16  A    between atoms: _35  and  _36
REMARK   17  A    between atoms: _35  and  _37
REMARK   18  A    between atoms: _38  and  _40
REMARK                            x       y       z     vdW  Elec       q    Type
REMARK                         _______ _______ _______ _____ _____    ______ ____
ROOT
ATOM      1  C   UNL     1       6.915   3.865  33.533  0.00  0.00    +0.163 C 
ENDROOT
BRANCH   1   2
ATOM      2  O   UNL     1       7.640   4.891  32.836  0.00  0.00    -0.388 OA
ATOM      3  H   UNL     1       8.258   4.487  32.222  0.00  0.00    +0.210 HD
ENDBRANCH   1   2
BRANCH   1   4
ATOM      4  C   UNL     1       5.677   4.446  34.236  0.00  0.00    +0.175 C 
BRANCH   4   5
ATOM      5  C   UNL     1       6.054   5.460  35.326  0.00  0.00    +0.176 C 
ATOM      6  O   UNL     1       7.455   5.259  35.659  0.00  0.00    -0.332 OA
ATOM      7  C   UNL     1       8.023   6.214  36.615  0.00  0.00    +0.277 C 
ATOM      8  C   UNL     1       7.177   6.251  37.911  0.00  0.00    +0.110 C 
ATOM      9  C   UNL     1       5.675   6.432  37.606  0.00  0.00    +0.143 C 
ATOM     10  C   UNL     1       5.190   5.388  36.600  0.00  0.00    +0.133 C 
BRANCH  10  11
ATOM     11  N   UNL     1       3.780   5.625  36.251  0.00  0.00    -0.308 N 
ATOM     12  H   UNL     1       3.570   6.395  35.632  0.00  0.00    +0.149 HD
ATOM     13  C   UNL     1       2.760   4.888  36.699  0.00  0.00    +0.210 C 
ATOM     14  C   UNL     1       3.111   3.737  37.661  0.00  0.00    +0.109 C 
ATOM     15  O   UNL     1       1.590   5.100  36.379  0.00  0.00    -0.276 OA
ENDBRANCH  10  11
BRANCH   7  16
ATOM     16  C   UNL     1       8.088   7.628  36.001  0.00  0.00    +0.414 C 
ATOM     17  O   UNL     1       8.182   8.616  36.729  0.00  0.00    -0.240 OA
ATOM     18  O   UNL     1       8.047   7.781  34.780  0.00  0.00    -0.240 OA
ENDBRANCH   7  16
BRANCH   7  19
ATOM     19  O   UNL     1       9.361   5.767  36.955  0.00  0.00    -0.343 OA
ATOM     20  C   UNL     1       9.417   4.606  37.822  0.00  0.00    +0.198 C 
ENDBRANCH   7  19
BRANCH   9  21
ATOM     21  O   UNL     1       4.920   6.309  38.812  0.00  0.00    -0.390 OA
ATOM     22  H   UNL     1       5.471   5.922  39.497  0.00  0.00    +0.210 HD
ENDBRANCH   9  21
ENDBRANCH   4   5
BRANCH   4  23
ATOM     23  O   UNL     1       4.881   3.384  34.799  0.00  0.00    -0.387 OA
ATOM     24  H   UNL     1       4.136   3.760  35.275  0.00  0.00    +0.210 HD
ENDBRANCH   4  23
ENDBRANCH   1   4
BRANCH   1  25
ATOM     25  C   UNL     1       6.483   2.776  32.557  0.00  0.00    +0.141 C 
BRANCH  25  28
ATOM     26  C   UNL     1       4.364   2.292  31.382  0.00  0.00    +0.401 C 
ATOM     27  O   UNL     1       4.430   1.074  31.567  0.00  0.00    -0.226 OA
ATOM     28  N   UNL     1       5.283   3.161  31.804  0.00  0.00    -0.279 N 
ATOM     29  H   UNL     1       5.145   4.140  31.595  0.00  0.00    +0.152 HD
BRANCH  26  30
ATOM     30  O   UNL     1       3.246   2.826  30.668  0.00  0.00    -0.444 OA
BRANCH  30  31
ATOM     31  C   UNL     1       2.354   1.765  30.314  0.00  0.00    +0.292 C 
BRANCH  31  33
ATOM     32  N   UNL     1       2.257   0.862  28.008  0.00  0.00    -0.131 NA
ATOM     33  C   UNL     1       1.974   1.868  28.893  0.00  0.00    +0.120 A 
ATOM     34  C   UNL     1       1.324   2.883  28.226  0.00  0.00    +0.139 A 
ATOM     35  N   UNL     1       1.189   2.407  26.956  0.00  0.00    -0.230 N 
ATOM     36  N   UNL     1       1.791   1.213  26.817  0.00  0.00    -0.064 NA
BRANCH  35  37
ATOM     37  C   UNL     1       0.585   3.046  25.813  0.00  0.00    +0.316 C 
BRANCH  37  38
ATOM     38  S   UNL     1       1.678   4.152  24.958  0.00  0.00    +0.017 S 
ATOM     39  O   UNL     1       1.054   5.453  24.817  0.00  0.00    -0.168 OA
ATOM     40  O   UNL     1       2.999   4.019  25.548  0.00  0.00    -0.168 OA
BRANCH  38  41
ATOM     41  C   UNL     1       1.775   3.480  23.312  0.00  0.00    +0.090 A 
ATOM     42  C   UNL     1       1.897   2.096  23.145  0.00  0.00    +0.027 A 
ATOM     43  C   UNL     1       1.948   1.564  21.858  0.00  0.00    +0.002 A 
ATOM     44  C   UNL     1       1.858   2.406  20.748  0.00  0.00    +0.000 A 
ATOM     45  C   UNL     1       1.716   3.784  20.921  0.00  0.00    +0.002 A 
ATOM     46  C   UNL     1       1.674   4.328  22.205  0.00  0.00    +0.027 A 
ENDBRANCH  38  41
ENDBRANCH  37  38
ENDBRANCH  35  37
ENDBRANCH  31  33
ENDBRANCH  30  31
ENDBRANCH  26  30
ENDBRANCH  25  28
ENDBRANCH   1  25
TORSDOF 16
