REMARK VINA RESULT:    -7.030      9.515     18.077
REMARK INTER + INTRA:         -15.056
REMARK INTER:                 -12.782
REMARK INTRA:                  -2.274
REMARK UNBOUND:                -2.067
REMARK  Name = lig_assembled_79.pdb
REMARK  20 active torsions:
REMARK  status: ('A' for Active; 'I' for Inactive)
REMARK    1  A    between atoms: _2  and  _10
REMARK    2  A    between atoms: _5  and  _26
REMARK    3  A    between atoms: _7  and  _8
REMARK    4  A    between atoms: _7  and  _26
REMARK    5  A    between atoms: _10  and  _11
REMARK    6  A    between atoms: _10  and  _12
REMARK    7  A    between atoms: _10  and  _13
REMARK    8  A    between atoms: _13  and  _14
REMARK    9  A    between atoms: _22  and  _42
REMARK   10  A    between atoms: _24  and  _30
REMARK   11  A    between atoms: _25  and  _29
REMARK   12  A    between atoms: _29  and  _30
REMARK   13  A    between atoms: _32  and  _33
REMARK   14  A    between atoms: _34  and  _35
REMARK   15  A    between atoms: _36  and  _38
REMARK   16  A    between atoms: _38  and  _39
REMARK   17  A    between atoms: _38  and  _40
REMARK   18  A    between atoms: _40  and  _41
REMARK   19  A    between atoms: _40  and  _42
REMARK   20  A    between atoms: _43  and  _45
REMARK                            x       y       z     vdW  Elec       q    Type
REMARK                         _______ _______ _______ _____ _____    ______ ____
ROOT
ATOM      1  C   UNL     1       1.202   3.424  30.233  0.00  0.00    +0.401 C 
ATOM      2  O   UNL     1       1.003   4.640  30.292  0.00  0.00    -0.226 OA
ATOM      3  N   UNL     1       1.591   2.682  31.271  0.00  0.00    -0.279 N 
ATOM      4  H   UNL     1       1.718   1.690  31.126  0.00  0.00    +0.152 HD
ENDROOT
BRANCH   3   5
ATOM      5  C   UNL     1       1.844   3.224  32.611  0.00  0.00    +0.141 C 
BRANCH   5   6
ATOM      6  C   UNL     1       3.129   2.669  33.216  0.00  0.00    +0.163 C 
BRANCH   6   7
ATOM      7  O   UNL     1       3.799   1.830  32.261  0.00  0.00    -0.388 OA
ATOM      8  H   UNL     1       3.152   1.300  31.790  0.00  0.00    +0.210 HD
ENDBRANCH   6   7
BRANCH   6   9
ATOM      9  C   UNL     1       4.034   3.833  33.656  0.00  0.00    +0.175 C 
BRANCH   9  10
ATOM     10  C   UNL     1       5.502   3.402  33.797  0.00  0.00    +0.176 C 
ATOM     11  O   UNL     1       5.522   2.048  34.326  0.00  0.00    -0.332 OA
ATOM     12  C   UNL     1       6.846   1.428  34.429  0.00  0.00    +0.277 C 
ATOM     13  C   UNL     1       7.802   2.326  35.252  0.00  0.00    +0.110 C 
ATOM     14  C   UNL     1       7.790   3.783  34.746  0.00  0.00    +0.143 C 
ATOM     15  C   UNL     1       6.364   4.328  34.675  0.00  0.00    +0.133 C 
BRANCH  15  16
ATOM     16  N   UNL     1       6.359   5.687  34.110  0.00  0.00    -0.308 N 
ATOM     17  H   UNL     1       6.529   5.786  33.119  0.00  0.00    +0.149 HD
ATOM     18  C   UNL     1       6.143   6.797  34.820  0.00  0.00    +0.210 C 
ATOM     19  C   UNL     1       5.912   6.614  36.332  0.00  0.00    +0.109 C 
ATOM     20  O   UNL     1       6.130   7.921  34.317  0.00  0.00    -0.276 OA
ENDBRANCH  15  16
BRANCH  12  21
ATOM     21  C   UNL     1       7.446   1.183  33.029  0.00  0.00    +0.414 C 
ATOM     22  O   UNL     1       8.656   1.307  32.843  0.00  0.00    -0.240 OA
ATOM     23  O   UNL     1       6.721   0.862  32.087  0.00  0.00    -0.240 OA
ENDBRANCH  12  21
BRANCH  14  24
ATOM     24  O   UNL     1       8.564   4.604  35.623  0.00  0.00    -0.390 OA
ATOM     25  H   UNL     1       8.222   5.500  35.608  0.00  0.00    +0.210 HD
ENDBRANCH  14  24
BRANCH  12  26
ATOM     26  O   UNL     1       6.696   0.163  35.124  0.00  0.00    -0.343 OA
ATOM     27  C   UNL     1       5.639  -0.692  34.618  0.00  0.00    +0.198 C 
ENDBRANCH  12  26
ENDBRANCH   9  10
BRANCH   9  28
ATOM     28  O   UNL     1       3.559   4.390  34.898  0.00  0.00    -0.387 OA
ATOM     29  H   UNL     1       3.205   5.268  34.740  0.00  0.00    +0.210 HD
ENDBRANCH   9  28
ENDBRANCH   6   9
ENDBRANCH   5   6
ENDBRANCH   3   5
BRANCH   1  30
ATOM     30  O   UNL     1       1.006   2.747  28.989  0.00  0.00    -0.444 OA
BRANCH  30  31
ATOM     31  C   UNL     1      -0.019   3.408  28.242  0.00  0.00    +0.292 C 
BRANCH  31  33
ATOM     32  N   UNL     1       1.769   3.910  26.619  0.00  0.00    -0.131 NA
ATOM     33  C   UNL     1       0.448   3.682  26.871  0.00  0.00    +0.120 A 
ATOM     34  C   UNL     1      -0.257   3.766  25.692  0.00  0.00    +0.138 A 
ATOM     35  N   UNL     1       0.698   3.959  24.733  0.00  0.00    -0.238 N 
ATOM     36  N   UNL     1       1.909   4.124  25.321  0.00  0.00    -0.064 NA
BRANCH  35  37
ATOM     37  C   UNL     1       0.575   4.201  23.266  0.00  0.00    +0.122 C 
ATOM     38  C   UNL     1       1.725   5.161  22.881  0.00  0.00    +0.044 C 
ATOM     39  C   UNL     1      -0.841   4.781  23.076  0.00  0.00    +0.044 C 
BRANCH  37  40
ATOM     40  C   UNL     1       0.737   2.924  22.415  0.00  0.00    +0.192 C 
ATOM     41  O   UNL     1       0.571   1.811  22.924  0.00  0.00    -0.289 OA
BRANCH  40  42
ATOM     42  C   UNL     1       1.117   2.961  20.973  0.00  0.00    +0.045 A 
ATOM     43  C   UNL     1       2.203   2.219  20.524  0.00  0.00    +0.095 A 
ATOM     44  N   UNL     1       2.381   2.425  19.190  0.00  0.00    -0.360 N 
ATOM     45  H   UNL     1       3.110   2.009  18.626  0.00  0.00    +0.165 HD
ATOM     46  C   UNL     1       1.431   3.294  18.719  0.00  0.00    +0.047 A 
ATOM     47  C   UNL     1       1.256   3.782  17.416  0.00  0.00    +0.026 A 
ATOM     48  C   UNL     1       0.208   4.672  17.181  0.00  0.00    +0.002 A 
ATOM     49  C   UNL     1      -0.634   5.054  18.212  0.00  0.00    +0.001 A 
ATOM     50  C   UNL     1      -0.443   4.554  19.506  0.00  0.00    +0.011 A 
ATOM     51  C   UNL     1       0.611   3.651  19.799  0.00  0.00    +0.010 A 
ENDBRANCH  40  42
ENDBRANCH  37  40
ENDBRANCH  35  37
ENDBRANCH  31  33
ENDBRANCH  30  31
ENDBRANCH   1  30
TORSDOF 16
