REMARK VINA RESULT:    -6.815      2.245      4.333
REMARK INTER + INTRA:         -14.007
REMARK INTER:                 -11.965
REMARK INTRA:                  -2.042
REMARK UNBOUND:                -1.813
REMARK  Name = lig_assembled_41.pdb
REMARK  18 active torsions:
REMARK  status: ('A' for Active; 'I' for Inactive)
REMARK    1  A    between atoms: _2  and  _9
REMARK    2  A    between atoms: _4  and  _21
REMARK    3  A    between atoms: _6  and  _7
REMARK    4  A    between atoms: _6  and  _21
REMARK    5  A    between atoms: _10  and  _11
REMARK    6  A    between atoms: _11  and  _12
REMARK    7  A    between atoms: _17  and  _37
REMARK    8  A    between atoms: _19  and  _25
REMARK    9  A    between atoms: _20  and  _24
REMARK   10  A    between atoms: _24  and  _25
REMARK   11  A    between atoms: _27  and  _28
REMARK   12  A    between atoms: _29  and  _30
REMARK   13  A    between atoms: _31  and  _33
REMARK   14  A    between atoms: _33  and  _34
REMARK   15  A    between atoms: _33  and  _35
REMARK   16  A    between atoms: _35  and  _36
REMARK   17  A    between atoms: _35  and  _37
REMARK   18  A    between atoms: _38  and  _40
REMARK                            x       y       z     vdW  Elec       q    Type
REMARK                         _______ _______ _______ _____ _____    ______ ____
ROOT
ATOM      1  C   UNL     1       3.093   2.701  32.239  0.00  0.00    +0.163 C 
ENDROOT
BRANCH   1   2
ATOM      2  O   UNL     1       3.936   1.882  31.413  0.00  0.00    -0.388 OA
ATOM      3  H   UNL     1       4.809   1.820  31.807  0.00  0.00    +0.210 HD
ENDBRANCH   1   2
BRANCH   1   4
ATOM      4  C   UNL     1       2.055   3.414  31.379  0.00  0.00    +0.141 C 
BRANCH   4   7
ATOM      5  C   UNL     1       1.591   3.612  28.960  0.00  0.00    +0.401 C 
ATOM      6  O   UNL     1       0.371   3.715  29.107  0.00  0.00    -0.226 OA
ATOM      7  N   UNL     1       2.453   3.462  29.967  0.00  0.00    -0.279 N 
ATOM      8  H   UNL     1       3.435   3.376  29.745  0.00  0.00    +0.152 HD
BRANCH   5   9
ATOM      9  O   UNL     1       2.137   3.648  27.639  0.00  0.00    -0.444 OA
BRANCH   9  10
ATOM     10  C   UNL     1       1.302   2.895  26.756  0.00  0.00    +0.292 C 
BRANCH  10  12
ATOM     11  N   UNL     1       1.701   4.788  25.227  0.00  0.00    -0.131 NA
ATOM     12  C   UNL     1       1.296   3.501  25.413  0.00  0.00    +0.121 A 
ATOM     13  C   UNL     1       0.944   2.961  24.195  0.00  0.00    +0.143 A 
ATOM     14  N   UNL     1       1.049   3.999  23.297  0.00  0.00    -0.219 N 
ATOM     15  N   UNL     1       1.601   5.067  23.936  0.00  0.00    -0.060 NA
BRANCH  14  16
ATOM     16  C   UNL     1       0.788   4.049  21.898  0.00  0.00    +0.077 A 
ATOM     17  C   UNL     1      -0.476   4.306  21.325  0.00  0.00    +0.043 A 
ATOM     18  C   UNL     1      -0.602   4.276  19.920  0.00  0.00    +0.013 A 
ATOM     19  C   UNL     1       0.491   3.990  19.099  0.00  0.00    +0.001 A 
ATOM     20  C   UNL     1       1.738   3.762  19.661  0.00  0.00    +0.002 A 
ATOM     21  C   UNL     1       1.888   3.802  21.046  0.00  0.00    +0.028 A 
BRANCH  17  22
ATOM     22  C   UNL     1      -1.651   4.817  22.094  0.00  0.00    +0.162 C 
ATOM     23  O   UNL     1      -1.779   6.027  22.265  0.00  0.00    -0.292 OA
ATOM     24  C   UNL     1      -2.672   3.855  22.651  0.00  0.00    +0.091 C 
ENDBRANCH  17  22
ENDBRANCH  14  16
ENDBRANCH  10  12
ENDBRANCH   9  10
ENDBRANCH   5   9
ENDBRANCH   4   7
ENDBRANCH   1   4
BRANCH   1  25
ATOM     25  C   UNL     1       3.923   3.740  33.012  0.00  0.00    +0.175 C 
BRANCH  25  26
ATOM     26  C   UNL     1       5.310   3.204  33.395  0.00  0.00    +0.176 C 
ATOM     27  O   UNL     1       5.151   1.826  33.831  0.00  0.00    -0.332 OA
ATOM     28  C   UNL     1       6.394   1.111  34.138  0.00  0.00    +0.277 C 
ATOM     29  C   UNL     1       7.226   1.897  35.181  0.00  0.00    +0.110 C 
ATOM     30  C   UNL     1       7.395   3.377  34.776  0.00  0.00    +0.143 C 
ATOM     31  C   UNL     1       6.041   4.021  34.476  0.00  0.00    +0.133 C 
BRANCH  31  32
ATOM     32  N   UNL     1       6.221   5.405  34.008  0.00  0.00    -0.308 N 
ATOM     33  H   UNL     1       6.610   5.544  33.086  0.00  0.00    +0.149 HD
ATOM     34  C   UNL     1       5.904   6.488  34.722  0.00  0.00    +0.210 C 
ATOM     35  C   UNL     1       5.337   6.242  36.134  0.00  0.00    +0.109 C 
ATOM     36  O   UNL     1       6.052   7.635  34.299  0.00  0.00    -0.276 OA
ENDBRANCH  31  32
BRANCH  28  37
ATOM     37  C   UNL     1       7.234   0.900  32.861  0.00  0.00    +0.414 C 
ATOM     38  O   UNL     1       6.715   0.433  31.848  0.00  0.00    -0.240 OA
ATOM     39  O   UNL     1       8.429   1.197  32.844  0.00  0.00    -0.240 OA
ENDBRANCH  28  37
BRANCH  30  40
ATOM     40  O   UNL     1       8.034   4.095  35.832  0.00  0.00    -0.390 OA
ATOM     41  H   UNL     1       7.453   4.795  36.142  0.00  0.00    +0.210 HD
ENDBRANCH  30  40
BRANCH  28  42
ATOM     42  O   UNL     1       6.042  -0.175  34.710  0.00  0.00    -0.343 OA
ATOM     43  C   UNL     1       4.630  -0.500  34.664  0.00  0.00    +0.198 C 
ENDBRANCH  28  42
ENDBRANCH  25  26
BRANCH  25  44
ATOM     44  O   UNL     1       3.212   4.166  34.191  0.00  0.00    -0.387 OA
ATOM     45  H   UNL     1       3.841   4.430  34.867  0.00  0.00    +0.210 HD
ENDBRANCH  25  44
ENDBRANCH   1  25
TORSDOF 15
