REMARK VINA RESULT:    -6.677      2.200      4.122
REMARK INTER + INTRA:         -15.129
REMARK INTER:                 -12.034
REMARK INTRA:                  -3.095
REMARK UNBOUND:                -2.597
REMARK  Name = lig_assembled_77.pdb
REMARK  19 active torsions:
REMARK  status: ('A' for Active; 'I' for Inactive)
REMARK    1  A    between atoms: _2  and  _10
REMARK    2  A    between atoms: _3  and  _17
REMARK    3  A    between atoms: _5  and  _27
REMARK    4  A    between atoms: _7  and  _8
REMARK    5  A    between atoms: _7  and  _27
REMARK    6  A    between atoms: _13  and  _47
REMARK    7  A    between atoms: _14  and  _47
REMARK    8  A    between atoms: _23  and  _43
REMARK    9  A    between atoms: _25  and  _31
REMARK   10  A    between atoms: _26  and  _30
REMARK   11  A    between atoms: _30  and  _31
REMARK   12  A    between atoms: _33  and  _34
REMARK   13  A    between atoms: _35  and  _36
REMARK   14  A    between atoms: _37  and  _39
REMARK   15  A    between atoms: _39  and  _40
REMARK   16  A    between atoms: _39  and  _41
REMARK   17  A    between atoms: _41  and  _42
REMARK   18  A    between atoms: _41  and  _43
REMARK   19  A    between atoms: _44  and  _46
REMARK                            x       y       z     vdW  Elec       q    Type
REMARK                         _______ _______ _______ _____ _____    ______ ____
ROOT
ATOM      1  C   UNL     1       8.712  -0.532  35.229  0.00  0.00    +0.401 C 
ATOM      2  O   UNL     1       9.911  -0.581  35.514  0.00  0.00    -0.226 OA
ATOM      3  N   UNL     1       8.024   0.602  35.096  0.00  0.00    -0.279 N 
ATOM      4  H   UNL     1       7.046   0.540  34.850  0.00  0.00    +0.152 HD
ENDROOT
BRANCH   3   5
ATOM      5  C   UNL     1       8.607   1.936  35.286  0.00  0.00    +0.141 C 
BRANCH   5   6
ATOM      6  C   UNL     1       8.735   2.694  33.968  0.00  0.00    +0.163 C 
BRANCH   6   7
ATOM      7  O   UNL     1       8.293   1.866  32.880  0.00  0.00    -0.388 OA
ATOM      8  H   UNL     1       9.001   1.777  32.237  0.00  0.00    +0.210 HD
ENDBRANCH   6   7
BRANCH   6   9
ATOM      9  C   UNL     1       7.913   3.992  34.040  0.00  0.00    +0.175 C 
BRANCH   9  10
ATOM     10  C   UNL     1       6.516   3.759  34.633  0.00  0.00    +0.176 C 
ATOM     11  O   UNL     1       5.751   2.970  33.680  0.00  0.00    -0.332 OA
ATOM     12  C   UNL     1       4.417   2.558  34.125  0.00  0.00    +0.277 C 
ATOM     13  C   UNL     1       3.589   3.790  34.567  0.00  0.00    +0.110 C 
ATOM     14  C   UNL     1       4.373   4.677  35.557  0.00  0.00    +0.143 C 
ATOM     15  C   UNL     1       5.747   5.044  34.995  0.00  0.00    +0.133 C 
BRANCH  15  16
ATOM     16  N   UNL     1       6.518   5.816  35.982  0.00  0.00    -0.308 N 
ATOM     17  H   UNL     1       6.664   5.404  36.894  0.00  0.00    +0.149 HD
ATOM     18  C   UNL     1       7.037   7.025  35.753  0.00  0.00    +0.210 C 
ATOM     19  C   UNL     1       6.775   7.636  34.364  0.00  0.00    +0.109 C 
ATOM     20  O   UNL     1       7.691   7.642  36.595  0.00  0.00    -0.276 OA
ENDBRANCH  15  16
BRANCH  12  21
ATOM     21  C   UNL     1       4.515   1.556  35.294  0.00  0.00    +0.414 C 
ATOM     22  O   UNL     1       5.215   0.549  35.191  0.00  0.00    -0.240 OA
ATOM     23  O   UNL     1       3.894   1.754  36.339  0.00  0.00    -0.240 OA
ENDBRANCH  12  21
BRANCH  14  24
ATOM     24  O   UNL     1       3.637   5.872  35.819  0.00  0.00    -0.390 OA
ATOM     25  H   UNL     1       2.770   5.812  35.411  0.00  0.00    +0.210 HD
ENDBRANCH  14  24
BRANCH  12  26
ATOM     26  O   UNL     1       3.743   1.934  33.002  0.00  0.00    -0.343 OA
ATOM     27  C   UNL     1       4.245   2.316  31.696  0.00  0.00    +0.198 C 
ENDBRANCH  12  26
ENDBRANCH   9  10
BRANCH   9  28
ATOM     28  O   UNL     1       7.805   4.584  32.731  0.00  0.00    -0.387 OA
ATOM     29  H   UNL     1       6.998   5.103  32.679  0.00  0.00    +0.210 HD
ENDBRANCH   9  28
ENDBRANCH   6   9
ENDBRANCH   5   6
ENDBRANCH   3   5
BRANCH   1  30
ATOM     30  O   UNL     1       7.998  -1.753  35.020  0.00  0.00    -0.444 OA
BRANCH  30  31
ATOM     31  C   UNL     1       8.483  -2.394  33.837  0.00  0.00    +0.292 C 
BRANCH  31  33
ATOM     32  N   UNL     1       7.113  -0.705  32.661  0.00  0.00    -0.131 NA
ATOM     33  C   UNL     1       7.750  -1.911  32.651  0.00  0.00    +0.121 A 
ATOM     34  C   UNL     1       7.576  -2.502  31.420  0.00  0.00    +0.143 A 
ATOM     35  N   UNL     1       6.824  -1.603  30.698  0.00  0.00    -0.220 N 
ATOM     36  N   UNL     1       6.545  -0.529  31.476  0.00  0.00    -0.060 NA
BRANCH  35  37
ATOM     37  C   UNL     1       6.418  -1.670  29.339  0.00  0.00    +0.067 A 
ATOM     38  C   UNL     1       5.126  -1.280  28.953  0.00  0.00    +0.030 A 
ATOM     39  C   UNL     1       4.703  -1.466  27.633  0.00  0.00    +0.029 A 
ATOM     40  C   UNL     1       5.573  -2.037  26.701  0.00  0.00    +0.094 A 
ATOM     41  C   UNL     1       6.891  -2.343  27.052  0.00  0.00    +0.029 A 
ATOM     42  C   UNL     1       7.309  -2.171  28.375  0.00  0.00    +0.030 A 
BRANCH  40  43
ATOM     43  S   UNL     1       5.010  -2.337  25.038  0.00  0.00    +0.025 S 
ATOM     44  O   UNL     1       6.033  -1.794  24.160  0.00  0.00    -0.164 OA
ATOM     45  O   UNL     1       4.630  -3.735  24.955  0.00  0.00    -0.164 OA
BRANCH  43  46
ATOM     46  C   UNL     1       3.525  -1.397  24.753  0.00  0.00    +0.094 A 
ATOM     47  C   UNL     1       3.579  -0.023  24.512  0.00  0.00    +0.029 A 
ATOM     48  C   UNL     1       2.388   0.696  24.354  0.00  0.00    +0.024 A 
ATOM     49  C   UNL     1       1.145   0.051  24.388  0.00  0.00    +0.025 A 
ATOM     50  C   UNL     1       1.109  -1.320  24.661  0.00  0.00    +0.024 A 
ATOM     51  C   UNL     1       2.290  -2.049  24.822  0.00  0.00    +0.029 A 
BRANCH  49  52
ATOM     52  N   UNL     1      -0.036   0.799  24.401  0.00  0.00    -0.358 N 
ATOM     53  H   UNL     1       0.094   1.795  24.547  0.00  0.00    +0.142 HD
ATOM     54  H   UNL     1      -0.669   0.598  23.634  0.00  0.00    +0.142 HD
ENDBRANCH  49  52
ENDBRANCH  43  46
ENDBRANCH  40  43
ENDBRANCH  35  37
ENDBRANCH  31  33
ENDBRANCH  30  31
ENDBRANCH   1  30
TORSDOF 17
