REMARK VINA RESULT:    -6.107      2.082      4.179
REMARK INTER + INTRA:         -13.841
REMARK INTER:                 -11.810
REMARK INTRA:                  -2.031
REMARK UNBOUND:                -2.378
REMARK  Name = lig_assembled_68.pdb
REMARK  19 active torsions:
REMARK  status: ('A' for Active; 'I' for Inactive)
REMARK    1  A    between atoms: _2  and  _9
REMARK    2  A    between atoms: _4  and  _21
REMARK    3  A    between atoms: _6  and  _7
REMARK    4  A    between atoms: _6  and  _21
REMARK    5  A    between atoms: _9  and  _10
REMARK    6  A    between atoms: _10  and  _11
REMARK    7  A    between atoms: _10  and  _16
REMARK    8  A    between atoms: _17  and  _37
REMARK    9  A    between atoms: _19  and  _25
REMARK   10  A    between atoms: _20  and  _24
REMARK   11  A    between atoms: _24  and  _25
REMARK   12  A    between atoms: _27  and  _28
REMARK   13  A    between atoms: _29  and  _30
REMARK   14  A    between atoms: _31  and  _33
REMARK   15  A    between atoms: _33  and  _34
REMARK   16  A    between atoms: _33  and  _35
REMARK   17  A    between atoms: _35  and  _36
REMARK   18  A    between atoms: _35  and  _37
REMARK   19  A    between atoms: _38  and  _40
REMARK                            x       y       z     vdW  Elec       q    Type
REMARK                         _______ _______ _______ _____ _____    ______ ____
ROOT
ATOM      1  C   UNL     1       5.960   1.966  33.421  0.00  0.00    +0.163 C 
ENDROOT
BRANCH   1   2
ATOM      2  O   UNL     1       6.129   0.869  34.333  0.00  0.00    -0.388 OA
ATOM      3  H   UNL     1       6.328   0.069  33.839  0.00  0.00    +0.210 HD
ENDBRANCH   1   2
BRANCH   1   4
ATOM      4  C   UNL     1       7.320   2.565  33.024  0.00  0.00    +0.175 C 
BRANCH   4   5
ATOM      5  C   UNL     1       8.114   3.056  34.244  0.00  0.00    +0.176 C 
ATOM      6  O   UNL     1       8.662   1.890  34.919  0.00  0.00    -0.332 OA
ATOM      7  C   UNL     1       9.544   2.171  36.056  0.00  0.00    +0.277 C 
ATOM      8  C   UNL     1       8.829   3.083  37.083  0.00  0.00    +0.110 C 
ATOM      9  C   UNL     1       8.202   4.321  36.407  0.00  0.00    +0.143 C 
ATOM     10  C   UNL     1       7.307   3.912  35.237  0.00  0.00    +0.133 C 
BRANCH  10  11
ATOM     11  N   UNL     1       6.785   5.103  34.547  0.00  0.00    -0.308 N 
ATOM     12  H   UNL     1       7.431   5.648  33.993  0.00  0.00    +0.149 HD
ATOM     13  C   UNL     1       5.514   5.510  34.605  0.00  0.00    +0.210 C 
ATOM     14  C   UNL     1       4.561   4.673  35.478  0.00  0.00    +0.109 C 
ATOM     15  O   UNL     1       5.102   6.504  34.005  0.00  0.00    -0.276 OA
ENDBRANCH  10  11
BRANCH   7  16
ATOM     16  C   UNL     1      10.846   2.851  35.582  0.00  0.00    +0.414 C 
ATOM     17  O   UNL     1      11.319   3.794  36.216  0.00  0.00    -0.240 OA
ATOM     18  O   UNL     1      11.423   2.457  34.568  0.00  0.00    -0.240 OA
ENDBRANCH   7  16
BRANCH   7  19
ATOM     19  O   UNL     1       9.858   0.912  36.703  0.00  0.00    -0.343 OA
ATOM     20  C   UNL     1       9.192   0.692  37.972  0.00  0.00    +0.198 C 
ENDBRANCH   7  19
BRANCH   9  21
ATOM     21  O   UNL     1       7.428   5.050  37.360  0.00  0.00    -0.390 OA
ATOM     22  H   UNL     1       6.619   5.360  36.946  0.00  0.00    +0.210 HD
ENDBRANCH   9  21
ENDBRANCH   4   5
BRANCH   4  23
ATOM     23  O   UNL     1       7.133   3.645  32.087  0.00  0.00    -0.387 OA
ATOM     24  H   UNL     1       7.829   3.619  31.426  0.00  0.00    +0.210 HD
ENDBRANCH   4  23
ENDBRANCH   1   4
BRANCH   1  25
ATOM     25  C   UNL     1       5.225   1.497  32.170  0.00  0.00    +0.141 C 
BRANCH  25  28
ATOM     26  C   UNL     1       3.179   2.202  30.977  0.00  0.00    +0.401 C 
ATOM     27  O   UNL     1       2.872   1.058  30.635  0.00  0.00    -0.226 OA
ATOM     28  N   UNL     1       4.266   2.500  31.690  0.00  0.00    -0.279 N 
ATOM     29  H   UNL     1       4.438   3.470  31.914  0.00  0.00    +0.152 HD
BRANCH  26  30
ATOM     30  O   UNL     1       2.337   3.291  30.593  0.00  0.00    -0.444 OA
BRANCH  30  31
ATOM     31  C   UNL     1       1.139   2.783  30.000  0.00  0.00    +0.292 C 
BRANCH  31  33
ATOM     32  N   UNL     1      -0.070   3.913  28.153  0.00  0.00    -0.131 NA
ATOM     33  C   UNL     1       1.030   3.224  28.598  0.00  0.00    +0.120 A 
ATOM     34  C   UNL     1       1.904   3.050  27.551  0.00  0.00    +0.137 A 
ATOM     35  N   UNL     1       1.286   3.662  26.500  0.00  0.00    -0.249 N 
ATOM     36  N   UNL     1       0.095   4.169  26.861  0.00  0.00    -0.065 NA
BRANCH  35  37
ATOM     37  C   UNL     1       1.722   3.709  25.120  0.00  0.00    +0.181 C 
BRANCH  37  38
ATOM     38  C   UNL     1       0.719   4.443  24.221  0.00  0.00    +0.166 C 
BRANCH  38  39
ATOM     39  C   UNL     1       0.777   4.037  22.756  0.00  0.00    -0.017 A 
ATOM     40  C   UNL     1      -0.307   3.329  22.203  0.00  0.00    +0.006 A 
ATOM     41  C   UNL     1      -0.307   2.960  20.856  0.00  0.00    +0.000 A 
ATOM     42  C   UNL     1       0.769   3.296  20.040  0.00  0.00    +0.000 A 
ATOM     43  C   UNL     1       1.840   4.011  20.564  0.00  0.00    +0.000 A 
ATOM     44  C   UNL     1       1.843   4.383  21.912  0.00  0.00    +0.006 A 
ENDBRANCH  38  39
BRANCH  38  45
ATOM     45  O   UNL     1       0.966   5.851  24.299  0.00  0.00    -0.385 OA
ATOM     46  H   UNL     1       1.844   6.027  23.924  0.00  0.00    +0.210 HD
ENDBRANCH  38  45
ENDBRANCH  37  38
ENDBRANCH  35  37
ENDBRANCH  31  33
ENDBRANCH  30  31
ENDBRANCH  26  30
ENDBRANCH  25  28
ENDBRANCH   1  25
TORSDOF 17
