REMARK VINA RESULT:    -6.564      2.939      4.443
REMARK INTER + INTRA:         -15.178
REMARK INTER:                 -12.608
REMARK INTRA:                  -2.570
REMARK UNBOUND:                -2.090
REMARK  Name = lig_assembled_76.pdb
REMARK  21 active torsions:
REMARK  status: ('A' for Active; 'I' for Inactive)
REMARK    1  A    between atoms: _2  and  _9
REMARK    2  A    between atoms: _4  and  _23
REMARK    3  A    between atoms: _6  and  _7
REMARK    4  A    between atoms: _6  and  _23
REMARK    5  A    between atoms: _9  and  _10
REMARK    6  A    between atoms: _10  and  _11
REMARK    7  A    between atoms: _10  and  _18
REMARK    8  A    between atoms: _11  and  _12
REMARK    9  A    between atoms: _12  and  _13
REMARK   10  A    between atoms: _19  and  _39
REMARK   11  A    between atoms: _21  and  _27
REMARK   12  A    between atoms: _22  and  _26
REMARK   13  A    between atoms: _26  and  _27
REMARK   14  A    between atoms: _29  and  _30
REMARK   15  A    between atoms: _31  and  _32
REMARK   16  A    between atoms: _33  and  _35
REMARK   17  A    between atoms: _35  and  _36
REMARK   18  A    between atoms: _35  and  _37
REMARK   19  A    between atoms: _37  and  _38
REMARK   20  A    between atoms: _37  and  _39
REMARK   21  A    between atoms: _40  and  _42
REMARK                            x       y       z     vdW  Elec       q    Type
REMARK                         _______ _______ _______ _____ _____    ______ ____
ROOT
ATOM      1  C   UNL     1       6.481   2.835  32.522  0.00  0.00    +0.141 C 
ENDROOT
BRANCH   1   4
ATOM      2  C   UNL     1       4.306   2.376  31.442  0.00  0.00    +0.401 C 
ATOM      3  O   UNL     1       4.404   1.152  31.550  0.00  0.00    -0.226 OA
ATOM      4  N   UNL     1       5.233   3.239  31.863  0.00  0.00    -0.279 N 
ATOM      5  H   UNL     1       5.066   4.225  31.721  0.00  0.00    +0.152 HD
BRANCH   2   6
ATOM      6  O   UNL     1       3.140   2.928  30.826  0.00  0.00    -0.444 OA
BRANCH   6   7
ATOM      7  C   UNL     1       2.356   1.875  30.258  0.00  0.00    +0.292 C 
BRANCH   7   9
ATOM      8  N   UNL     1       1.825   3.530  28.490  0.00  0.00    -0.131 NA
ATOM      9  C   UNL     1       1.944   2.223  28.888  0.00  0.00    +0.120 A 
ATOM     10  C   UNL     1       1.612   1.399  27.835  0.00  0.00    +0.137 A 
ATOM     11  N   UNL     1       1.308   2.263  26.830  0.00  0.00    -0.249 N 
ATOM     12  N   UNL     1       1.425   3.541  27.224  0.00  0.00    -0.065 NA
BRANCH  11  13
ATOM     13  C   UNL     1       0.774   1.946  25.524  0.00  0.00    +0.176 C 
BRANCH  13  14
ATOM     14  C   UNL     1       1.733   2.308  24.384  0.00  0.00    +0.136 C 
BRANCH  14  15
ATOM     15  O   UNL     1       2.127   3.683  24.487  0.00  0.00    -0.390 OA
ATOM     16  H   UNL     1       1.397   4.196  24.875  0.00  0.00    +0.210 HD
ENDBRANCH  14  15
BRANCH  14  17
ATOM     17  C   UNL     1       3.014   1.459  24.403  0.00  0.00    +0.038 C 
BRANCH  17  18
ATOM     18  C   UNL     1       2.747  -0.046  24.398  0.00  0.00    +0.038 C 
BRANCH  18  19
ATOM     19  C   UNL     1       3.822  -0.815  25.122  0.00  0.00    -0.047 A 
ATOM     20  C   UNL     1       4.896  -1.368  24.410  0.00  0.00    +0.003 A 
ATOM     21  C   UNL     1       5.903  -2.066  25.079  0.00  0.00    +0.000 A 
ATOM     22  C   UNL     1       5.842  -2.221  26.462  0.00  0.00    +0.000 A 
ATOM     23  C   UNL     1       4.772  -1.684  27.176  0.00  0.00    +0.000 A 
ATOM     24  C   UNL     1       3.764  -0.988  26.509  0.00  0.00    +0.003 A 
ENDBRANCH  18  19
ENDBRANCH  17  18
ENDBRANCH  14  17
ENDBRANCH  13  14
ENDBRANCH  11  13
ENDBRANCH   7   9
ENDBRANCH   6   7
ENDBRANCH   2   6
ENDBRANCH   1   4
BRANCH   1  25
ATOM     25  C   UNL     1       6.923   3.849  33.572  0.00  0.00    +0.163 C 
BRANCH  25  26
ATOM     26  O   UNL     1       7.631   4.930  32.944  0.00  0.00    -0.388 OA
ATOM     27  H   UNL     1       7.013   5.477  32.453  0.00  0.00    +0.210 HD
ENDBRANCH  25  26
BRANCH  25  28
ATOM     28  C   UNL     1       5.692   4.368  34.336  0.00  0.00    +0.175 C 
BRANCH  28  29
ATOM     29  C   UNL     1       6.064   5.434  35.377  0.00  0.00    +0.176 C 
ATOM     30  O   UNL     1       7.461   5.242  35.732  0.00  0.00    -0.332 OA
ATOM     31  C   UNL     1       8.026   6.242  36.644  0.00  0.00    +0.277 C 
ATOM     32  C   UNL     1       7.169   6.349  37.929  0.00  0.00    +0.110 C 
ATOM     33  C   UNL     1       5.671   6.522  37.601  0.00  0.00    +0.143 C 
ATOM     34  C   UNL     1       5.189   5.431  36.644  0.00  0.00    +0.133 C 
BRANCH  34  35
ATOM     35  N   UNL     1       3.784   5.656  36.271  0.00  0.00    -0.308 N 
ATOM     36  H   UNL     1       3.580   6.415  35.635  0.00  0.00    +0.149 HD
ATOM     37  C   UNL     1       2.759   4.925  36.718  0.00  0.00    +0.210 C 
ATOM     38  C   UNL     1       3.100   3.793  37.706  0.00  0.00    +0.109 C 
ATOM     39  O   UNL     1       1.594   5.128  36.377  0.00  0.00    -0.276 OA
ENDBRANCH  34  35
BRANCH  31  40
ATOM     40  C   UNL     1       8.105   7.623  35.960  0.00  0.00    +0.414 C 
ATOM     41  O   UNL     1       8.173   8.648  36.638  0.00  0.00    -0.240 OA
ATOM     42  O   UNL     1       8.100   7.713  34.732  0.00  0.00    -0.240 OA
ENDBRANCH  31  40
BRANCH  33  43
ATOM     43  O   UNL     1       4.904   6.463  38.805  0.00  0.00    -0.390 OA
ATOM     44  H   UNL     1       3.998   6.719  38.620  0.00  0.00    +0.210 HD
ENDBRANCH  33  43
BRANCH  31  45
ATOM     45  O   UNL     1       9.359   5.806  37.018  0.00  0.00    -0.343 OA
ATOM     46  C   UNL     1       9.628   4.399  36.794  0.00  0.00    +0.198 C 
ENDBRANCH  31  45
ENDBRANCH  28  29
BRANCH  28  47
ATOM     47  O   UNL     1       5.003   3.273  34.971  0.00  0.00    -0.387 OA
ATOM     48  H   UNL     1       5.491   2.996  35.750  0.00  0.00    +0.210 HD
ENDBRANCH  28  47
ENDBRANCH  25  28
ENDBRANCH   1  25
TORSDOF 19
