REMARK VINA RESULT:    -6.446     13.033     17.661
REMARK INTER + INTRA:         -13.457
REMARK INTER:                 -11.561
REMARK INTRA:                  -1.896
REMARK UNBOUND:                -1.736
REMARK  Name = lig_assembled_59.pdb
REMARK  18 active torsions:
REMARK  status: ('A' for Active; 'I' for Inactive)
REMARK    1  A    between atoms: _2  and  _10
REMARK    2  A    between atoms: _5  and  _20
REMARK    3  A    between atoms: _7  and  _8
REMARK    4  A    between atoms: _7  and  _20
REMARK    5  A    between atoms: _13  and  _14
REMARK    6  A    between atoms: _14  and  _15
REMARK    7  A    between atoms: _16  and  _36
REMARK    8  A    between atoms: _18  and  _24
REMARK    9  A    between atoms: _19  and  _23
REMARK   10  A    between atoms: _23  and  _24
REMARK   11  A    between atoms: _26  and  _27
REMARK   12  A    between atoms: _28  and  _29
REMARK   13  A    between atoms: _30  and  _32
REMARK   14  A    between atoms: _32  and  _33
REMARK   15  A    between atoms: _32  and  _34
REMARK   16  A    between atoms: _34  and  _35
REMARK   17  A    between atoms: _34  and  _36
REMARK   18  A    between atoms: _37  and  _39
REMARK                            x       y       z     vdW  Elec       q    Type
REMARK                         _______ _______ _______ _____ _____    ______ ____
ROOT
ATOM      1  C   UNL     1      17.942   5.186  23.444  0.00  0.00    +0.163 C 
ENDROOT
BRANCH   1   2
ATOM      2  O   UNL     1      17.155   5.134  22.242  0.00  0.00    -0.388 OA
ATOM      3  H   UNL     1      16.681   5.962  22.133  0.00  0.00    +0.210 HD
ENDBRANCH   1   2
BRANCH   1   4
ATOM      4  C   UNL     1      18.823   3.932  23.579  0.00  0.00    +0.175 C 
BRANCH   4   5
ATOM      5  C   UNL     1      18.086   2.781  24.279  0.00  0.00    +0.176 C 
ATOM      6  O   UNL     1      18.804   2.471  25.506  0.00  0.00    -0.332 OA
ATOM      7  C   UNL     1      18.183   1.460  26.365  0.00  0.00    +0.277 C 
ATOM      8  C   UNL     1      17.923   0.158  25.568  0.00  0.00    +0.110 C 
ATOM      9  C   UNL     1      17.190   0.440  24.240  0.00  0.00    +0.143 C 
ATOM     10  C   UNL     1      17.920   1.509  23.427  0.00  0.00    +0.133 C 
BRANCH  10  11
ATOM     11  N   UNL     1      17.166   1.832  22.205  0.00  0.00    -0.308 N 
ATOM     12  H   UNL     1      16.278   2.303  22.309  0.00  0.00    +0.149 HD
ATOM     13  C   UNL     1      17.578   1.543  20.968  0.00  0.00    +0.210 C 
ATOM     14  C   UNL     1      18.922   0.801  20.844  0.00  0.00    +0.109 C 
ATOM     15  O   UNL     1      16.932   1.838  19.962  0.00  0.00    -0.276 OA
ENDBRANCH  10  11
BRANCH   7  16
ATOM     16  C   UNL     1      16.853   1.980  26.950  0.00  0.00    +0.414 C 
ATOM     17  O   UNL     1      16.839   2.986  27.659  0.00  0.00    -0.240 OA
ATOM     18  O   UNL     1      15.795   1.395  26.713  0.00  0.00    -0.240 OA
ENDBRANCH   7  16
BRANCH   7  19
ATOM     19  O   UNL     1      19.106   1.159  27.444  0.00  0.00    -0.343 OA
ATOM     20  C   UNL     1      20.324   1.945  27.444  0.00  0.00    +0.198 C 
ENDBRANCH   7  19
BRANCH   9  21
ATOM     21  O   UNL     1      17.106  -0.761  23.471  0.00  0.00    -0.390 OA
ATOM     22  H   UNL     1      17.832  -0.791  22.844  0.00  0.00    +0.210 HD
ENDBRANCH   9  21
ENDBRANCH   4   5
BRANCH   4  23
ATOM     23  O   UNL     1      20.035   4.252  24.290  0.00  0.00    -0.387 OA
ATOM     24  H   UNL     1      20.503   4.952  23.828  0.00  0.00    +0.210 HD
ENDBRANCH   4  23
ENDBRANCH   1   4
BRANCH   1  25
ATOM     25  C   UNL     1      18.823   6.430  23.436  0.00  0.00    +0.141 C 
BRANCH  25  28
ATOM     26  C   UNL     1      19.328   7.463  25.624  0.00  0.00    +0.401 C 
ATOM     27  O   UNL     1      20.394   6.861  25.768  0.00  0.00    -0.226 OA
ATOM     28  N   UNL     1      18.527   7.318  24.568  0.00  0.00    -0.279 N 
ATOM     29  H   UNL     1      17.667   7.849  24.544  0.00  0.00    +0.152 HD
BRANCH  26  30
ATOM     30  O   UNL     1      18.902   8.375  26.640  0.00  0.00    -0.444 OA
BRANCH  30  31
ATOM     31  C   UNL     1      19.732   8.225  27.795  0.00  0.00    +0.292 C 
BRANCH  31  33
ATOM     32  N   UNL     1      18.499   9.772  29.277  0.00  0.00    -0.131 NA
ATOM     33  C   UNL     1      18.961   8.511  29.019  0.00  0.00    +0.121 A 
ATOM     34  C   UNL     1      18.588   7.676  30.047  0.00  0.00    +0.145 A 
ATOM     35  N   UNL     1      17.890   8.481  30.918  0.00  0.00    -0.202 N 
ATOM     36  N   UNL     1      17.845   9.747  30.430  0.00  0.00    -0.059 NA
BRANCH  35  37
ATOM     37  C   UNL     1      17.301   8.106  32.156  0.00  0.00    +0.156 A 
ATOM     38  C   UNL     1      18.113   7.598  33.168  0.00  0.00    +0.048 A 
ATOM     39  C   UNL     1      17.523   7.193  34.363  0.00  0.00    +0.011 A 
ATOM     40  C   UNL     1      16.141   7.305  34.532  0.00  0.00    -0.004 A 
ATOM     41  C   UNL     1      15.410   7.824  33.467  0.00  0.00    +0.119 A 
ATOM     42  N   UNL     1      15.952   8.233  32.295  0.00  0.00    -0.236 NA
BRANCH  40  43
ATOM     43  C   UNL     1      15.475   6.789  35.774  0.00  0.00    +0.192 C 
BRANCH  43  44
ATOM     44  O   UNL     1      14.296   6.061  35.464  0.00  0.00    -0.390 OA
ATOM     45  H   UNL     1      13.548   6.676  35.566  0.00  0.00    +0.210 HD
ENDBRANCH  43  44
ENDBRANCH  40  43
ENDBRANCH  35  37
ENDBRANCH  31  33
ENDBRANCH  30  31
ENDBRANCH  26  30
ENDBRANCH  25  28
ENDBRANCH   1  25
TORSDOF 16
