REMARK VINA RESULT:    -5.954      2.182      4.364
REMARK INTER + INTRA:         -13.164
REMARK INTER:                 -10.743
REMARK INTRA:                  -2.422
REMARK UNBOUND:                -2.511
REMARK  Name = lig_assembled_6.pdb
REMARK  17 active torsions:
REMARK  status: ('A' for Active; 'I' for Inactive)
REMARK    1  A    between atoms: _2  and  _10
REMARK    2  A    between atoms: _3  and  _13
REMARK    3  A    between atoms: _5  and  _21
REMARK    4  A    between atoms: _7  and  _8
REMARK    5  A    between atoms: _7  and  _21
REMARK    6  A    between atoms: _17  and  _37
REMARK    7  A    between atoms: _19  and  _25
REMARK    8  A    between atoms: _20  and  _24
REMARK    9  A    between atoms: _24  and  _25
REMARK   10  A    between atoms: _27  and  _28
REMARK   11  A    between atoms: _29  and  _30
REMARK   12  A    between atoms: _31  and  _33
REMARK   13  A    between atoms: _33  and  _34
REMARK   14  A    between atoms: _33  and  _35
REMARK   15  A    between atoms: _35  and  _36
REMARK   16  A    between atoms: _35  and  _37
REMARK   17  A    between atoms: _38  and  _40
REMARK                            x       y       z     vdW  Elec       q    Type
REMARK                         _______ _______ _______ _____ _____    ______ ____
ROOT
ATOM      1  C   UNL     1       4.443  -0.440  30.976  0.00  0.00    +0.163 C 
ENDROOT
BRANCH   1   2
ATOM      2  O   UNL     1       5.856  -0.178  31.017  0.00  0.00    -0.388 OA
ATOM      3  H   UNL     1       6.331  -1.004  31.137  0.00  0.00    +0.210 HD
ENDBRANCH   1   2
BRANCH   1   4
ATOM      4  C   UNL     1       4.017  -0.780  29.551  0.00  0.00    +0.141 C 
BRANCH   4   7
ATOM      5  C   UNL     1       1.989  -0.294  28.226  0.00  0.00    +0.401 C 
ATOM      6  O   UNL     1       1.925  -1.424  27.735  0.00  0.00    -0.226 OA
ATOM      7  N   UNL     1       2.937   0.095  29.079  0.00  0.00    -0.279 N 
ATOM      8  H   UNL     1       2.911   1.046  29.420  0.00  0.00    +0.152 HD
BRANCH   5   9
ATOM      9  O   UNL     1       1.000   0.675  27.870  0.00  0.00    -0.444 OA
BRANCH   9  10
ATOM     10  C   UNL     1       1.557   1.988  27.977  0.00  0.00    +0.292 C 
BRANCH  10  12
ATOM     11  N   UNL     1       2.103   3.893  26.493  0.00  0.00    -0.131 NA
ATOM     12  C   UNL     1       1.681   2.603  26.643  0.00  0.00    +0.121 A 
ATOM     13  C   UNL     1       1.439   2.064  25.400  0.00  0.00    +0.143 A 
ATOM     14  N   UNL     1       1.760   3.062  24.510  0.00  0.00    -0.220 N 
ATOM     15  N   UNL     1       2.140   4.167  25.196  0.00  0.00    -0.060 NA
BRANCH  14  16
ATOM     16  C   UNL     1       1.764   3.019  23.090  0.00  0.00    +0.067 A 
ATOM     17  C   UNL     1       1.819   1.792  22.412  0.00  0.00    +0.034 A 
ATOM     18  C   UNL     1       1.885   1.765  21.015  0.00  0.00    +0.086 A 
ATOM     19  C   UNL     1       1.894   2.965  20.294  0.00  0.00    +0.273 A 
ATOM     20  C   UNL     1       1.813   4.194  20.960  0.00  0.00    +0.086 A 
ATOM     21  C   UNL     1       1.746   4.218  22.358  0.00  0.00    +0.034 A 
BRANCH  19  22
ATOM     22  N   UNL     1       2.007   2.930  18.830  0.00  0.00    +0.080 N 
ATOM     23  O   UNL     1       2.260   3.995  18.247  0.00  0.00    +0.041 OA
ATOM     24  O   UNL     1       1.836   1.842  18.264  0.00  0.00    -0.576 OA
ENDBRANCH  19  22
ENDBRANCH  14  16
ENDBRANCH  10  12
ENDBRANCH   9  10
ENDBRANCH   5   9
ENDBRANCH   4   7
ENDBRANCH   1   4
BRANCH   1  25
ATOM     25  C   UNL     1       3.644   0.776  31.475  0.00  0.00    +0.175 C 
BRANCH  25  26
ATOM     26  C   UNL     1       4.504   1.725  32.321  0.00  0.00    +0.176 C 
ATOM     27  O   UNL     1       5.130   0.942  33.374  0.00  0.00    -0.332 OA
ATOM     28  C   UNL     1       6.079   1.668  34.225  0.00  0.00    +0.277 C 
ATOM     29  C   UNL     1       5.409   2.924  34.834  0.00  0.00    +0.110 C 
ATOM     30  C   UNL     1       4.702   3.772  33.756  0.00  0.00    +0.143 C 
ATOM     31  C   UNL     1       3.741   2.918  32.928  0.00  0.00    +0.133 C 
BRANCH  31  32
ATOM     32  N   UNL     1       3.140   3.717  31.849  0.00  0.00    -0.308 N 
ATOM     33  H   UNL     1       3.756   4.097  31.144  0.00  0.00    +0.149 HD
ATOM     34  C   UNL     1       1.833   3.974  31.741  0.00  0.00    +0.210 C 
ATOM     35  C   UNL     1       0.925   3.402  32.846  0.00  0.00    +0.109 C 
ATOM     36  O   UNL     1       1.356   4.634  30.818  0.00  0.00    -0.276 OA
ENDBRANCH  31  32
BRANCH  28  37
ATOM     37  C   UNL     1       7.325   2.088  33.419  0.00  0.00    +0.414 C 
ATOM     38  O   UNL     1       7.789   1.340  32.558  0.00  0.00    -0.240 OA
ATOM     39  O   UNL     1       7.867   3.174  33.628  0.00  0.00    -0.240 OA
ENDBRANCH  28  37
BRANCH  30  40
ATOM     40  O   UNL     1       3.974   4.832  34.377  0.00  0.00    -0.390 OA
ATOM     41  H   UNL     1       3.345   5.198  33.751  0.00  0.00    +0.210 HD
ENDBRANCH  30  40
BRANCH  28  42
ATOM     42  O   UNL     1       6.473   0.788  35.309  0.00  0.00    -0.343 OA
ATOM     43  C   UNL     1       6.758   1.454  36.565  0.00  0.00    +0.198 C 
ENDBRANCH  28  42
ENDBRANCH  25  26
BRANCH  25  44
ATOM     44  O   UNL     1       2.496   0.339  32.230  0.00  0.00    -0.387 OA
ATOM     45  H   UNL     1       2.761   0.144  33.131  0.00  0.00    +0.210 HD
ENDBRANCH  25  44
ENDBRANCH   1  25
TORSDOF 15
