REMARK VINA RESULT:    -5.926     17.559     21.440
REMARK INTER + INTRA:         -12.171
REMARK INTER:                 -10.546
REMARK INTRA:                  -1.624
REMARK UNBOUND:                -1.914
REMARK  Name = lig_assembled_56.pdb
REMARK  16 active torsions:
REMARK  status: ('A' for Active; 'I' for Inactive)
REMARK    1  A    between atoms: _2  and  _10
REMARK    2  A    between atoms: _5  and  _18
REMARK    3  A    between atoms: _7  and  _8
REMARK    4  A    between atoms: _7  and  _18
REMARK    5  A    between atoms: _14  and  _34
REMARK    6  A    between atoms: _16  and  _22
REMARK    7  A    between atoms: _17  and  _21
REMARK    8  A    between atoms: _21  and  _22
REMARK    9  A    between atoms: _24  and  _25
REMARK   10  A    between atoms: _26  and  _27
REMARK   11  A    between atoms: _28  and  _30
REMARK   12  A    between atoms: _30  and  _31
REMARK   13  A    between atoms: _30  and  _32
REMARK   14  A    between atoms: _32  and  _33
REMARK   15  A    between atoms: _32  and  _34
REMARK   16  A    between atoms: _35  and  _37
REMARK                            x       y       z     vdW  Elec       q    Type
REMARK                         _______ _______ _______ _____ _____    ______ ____
ROOT
ATOM      1  C   UNL     1       7.942   2.101  35.821  0.00  0.00    +0.163 C 
ENDROOT
BRANCH   1   2
ATOM      2  O   UNL     1       7.879   2.142  37.256  0.00  0.00    -0.388 OA
ATOM      3  H   UNL     1       7.350   2.894  37.533  0.00  0.00    +0.210 HD
ENDBRANCH   1   2
BRANCH   1   4
ATOM      4  C   UNL     1       8.631   0.819  35.366  0.00  0.00    +0.141 C 
BRANCH   4   7
ATOM      5  C   UNL     1       7.962  -0.498  33.385  0.00  0.00    +0.401 C 
ATOM      6  O   UNL     1       7.552  -1.457  34.044  0.00  0.00    -0.226 OA
ATOM      7  N   UNL     1       8.487   0.604  33.920  0.00  0.00    -0.279 N 
ATOM      8  H   UNL     1       8.804   1.333  33.297  0.00  0.00    +0.152 HD
BRANCH   5   9
ATOM      9  O   UNL     1       7.882  -0.552  31.958  0.00  0.00    -0.444 OA
BRANCH   9  10
ATOM     10  C   UNL     1       7.500  -1.868  31.550  0.00  0.00    +0.292 C 
BRANCH  10  12
ATOM     11  N   UNL     1       5.761  -1.257  29.900  0.00  0.00    -0.131 NA
ATOM     12  C   UNL     1       6.961  -1.843  30.177  0.00  0.00    +0.121 A 
ATOM     13  C   UNL     1       7.495  -2.344  29.012  0.00  0.00    +0.143 A 
ATOM     14  N   UNL     1       6.582  -2.021  28.034  0.00  0.00    -0.220 N 
ATOM     15  N   UNL     1       5.535  -1.371  28.599  0.00  0.00    -0.060 NA
BRANCH  14  16
ATOM     16  C   UNL     1       6.645  -2.272  26.642  0.00  0.00    +0.070 A 
ATOM     17  C   UNL     1       7.802  -2.792  26.056  0.00  0.00    +0.047 A 
ATOM     18  C   UNL     1       7.799  -2.998  24.685  0.00  0.00    +0.113 A 
ATOM     19  N   UNL     1       6.747  -2.728  23.885  0.00  0.00    -0.263 NA
ATOM     20  C   UNL     1       5.641  -2.229  24.477  0.00  0.00    +0.113 A 
ATOM     21  C   UNL     1       5.539  -1.987  25.836  0.00  0.00    +0.047 A 
ENDBRANCH  14  16
ENDBRANCH  10  12
ENDBRANCH   9  10
ENDBRANCH   5   9
ENDBRANCH   4   7
ENDBRANCH   1   4
BRANCH   1  22
ATOM     22  C   UNL     1       8.705   3.318  35.269  0.00  0.00    +0.175 C 
BRANCH  22  23
ATOM     23  C   UNL     1       7.799   4.549  35.120  0.00  0.00    +0.176 C 
ATOM     24  O   UNL     1       7.691   5.185  36.424  0.00  0.00    -0.332 OA
ATOM     25  C   UNL     1       6.944   6.446  36.454  0.00  0.00    +0.277 C 
ATOM     26  C   UNL     1       5.532   6.253  35.847  0.00  0.00    +0.110 C 
ATOM     27  C   UNL     1       5.594   5.552  34.474  0.00  0.00    +0.143 C 
ATOM     28  C   UNL     1       6.397   4.253  34.557  0.00  0.00    +0.133 C 
BRANCH  28  29
ATOM     29  N   UNL     1       6.521   3.638  33.226  0.00  0.00    -0.308 N 
ATOM     30  H   UNL     1       7.154   4.068  32.565  0.00  0.00    +0.149 HD
ATOM     31  C   UNL     1       5.854   2.550  32.833  0.00  0.00    +0.210 C 
ATOM     32  C   UNL     1       4.879   1.934  33.854  0.00  0.00    +0.109 C 
ATOM     33  O   UNL     1       5.990   2.049  31.717  0.00  0.00    -0.276 OA
ENDBRANCH  28  29
BRANCH  25  34
ATOM     34  C   UNL     1       7.695   7.545  35.674  0.00  0.00    +0.414 C 
ATOM     35  O   UNL     1       8.875   7.786  35.924  0.00  0.00    -0.240 OA
ATOM     36  O   UNL     1       7.120   8.191  34.797  0.00  0.00    -0.240 OA
ENDBRANCH  25  34
BRANCH  27  37
ATOM     37  O   UNL     1       4.271   5.259  34.023  0.00  0.00    -0.390 OA
ATOM     38  H   UNL     1       3.637   5.529  34.692  0.00  0.00    +0.210 HD
ENDBRANCH  27  37
BRANCH  25  39
ATOM     39  O   UNL     1       6.795   6.846  37.841  0.00  0.00    -0.343 OA
ATOM     40  C   UNL     1       7.380   5.936  38.807  0.00  0.00    +0.198 C 
ENDBRANCH  25  39
ENDBRANCH  22  23
BRANCH  22  41
ATOM     41  O   UNL     1       9.311   2.991  34.003  0.00  0.00    -0.387 OA
ATOM     42  H   UNL     1       8.909   2.193  33.652  0.00  0.00    +0.210 HD
ENDBRANCH  22  41
ENDBRANCH   1  22
TORSDOF 14
