REMARK VINA RESULT:    -5.313      6.857     11.583
REMARK INTER + INTRA:         -13.672
REMARK INTER:                 -11.428
REMARK INTRA:                  -2.243
REMARK UNBOUND:                -3.545
REMARK  Name = lig_assembled_55.pdb
REMARK  20 active torsions:
REMARK  status: ('A' for Active; 'I' for Inactive)
REMARK    1  A    between atoms: _2  and  _10
REMARK    2  A    between atoms: _3  and  _11
REMARK    3  A    between atoms: _3  and  _38
REMARK    4  A    between atoms: _5  and  _18
REMARK    5  A    between atoms: _6  and  _38
REMARK    6  A    between atoms: _7  and  _8
REMARK    7  A    between atoms: _7  and  _18
REMARK    8  A    between atoms: _10  and  _11
REMARK    9  A    between atoms: _14  and  _34
REMARK   10  A    between atoms: _16  and  _22
REMARK   11  A    between atoms: _17  and  _21
REMARK   12  A    between atoms: _21  and  _22
REMARK   13  A    between atoms: _24  and  _25
REMARK   14  A    between atoms: _26  and  _27
REMARK   15  A    between atoms: _28  and  _30
REMARK   16  A    between atoms: _30  and  _31
REMARK   17  A    between atoms: _30  and  _32
REMARK   18  A    between atoms: _32  and  _33
REMARK   19  A    between atoms: _32  and  _34
REMARK   20  A    between atoms: _35  and  _37
REMARK                            x       y       z     vdW  Elec       q    Type
REMARK                         _______ _______ _______ _____ _____    ______ ____
ROOT
ATOM      1  C   UNL     1       4.123   3.526  32.405  0.00  0.00    +0.163 C 
ENDROOT
BRANCH   1   2
ATOM      2  O   UNL     1       3.169   3.898  33.413  0.00  0.00    -0.388 OA
ATOM      3  H   UNL     1       3.612   4.393  34.106  0.00  0.00    +0.210 HD
ENDBRANCH   1   2
BRANCH   1   4
ATOM      4  C   UNL     1       5.426   3.014  33.042  0.00  0.00    +0.175 C 
BRANCH   4   5
ATOM      5  C   UNL     1       5.763   3.756  34.344  0.00  0.00    +0.176 C 
ATOM      6  O   UNL     1       5.683   5.183  34.078  0.00  0.00    -0.332 OA
ATOM      7  C   UNL     1       5.873   6.056  35.241  0.00  0.00    +0.277 C 
ATOM      8  C   UNL     1       7.210   5.730  35.951  0.00  0.00    +0.110 C 
ATOM      9  C   UNL     1       7.354   4.218  36.225  0.00  0.00    +0.143 C 
ATOM     10  C   UNL     1       7.135   3.405  34.949  0.00  0.00    +0.133 C 
BRANCH  10  11
ATOM     11  N   UNL     1       7.190   1.964  35.241  0.00  0.00    -0.308 N 
ATOM     12  H   UNL     1       6.447   1.567  35.799  0.00  0.00    +0.149 HD
ATOM     13  C   UNL     1       8.156   1.146  34.815  0.00  0.00    +0.210 C 
ATOM     14  C   UNL     1       9.287   1.785  33.988  0.00  0.00    +0.109 C 
ATOM     15  O   UNL     1       8.168  -0.061  35.063  0.00  0.00    -0.276 OA
ENDBRANCH  10  11
BRANCH   7  16
ATOM     16  C   UNL     1       4.707   5.897  36.240  0.00  0.00    +0.414 C 
ATOM     17  O   UNL     1       3.610   5.497  35.853  0.00  0.00    -0.240 OA
ATOM     18  O   UNL     1       4.864   6.170  37.430  0.00  0.00    -0.240 OA
ENDBRANCH   7  16
BRANCH   7  19
ATOM     19  O   UNL     1       5.928   7.427  34.769  0.00  0.00    -0.343 OA
ATOM     20  C   UNL     1       7.251   7.895  34.403  0.00  0.00    +0.198 C 
ENDBRANCH   7  19
BRANCH   9  21
ATOM     21  O   UNL     1       8.659   3.945  36.739  0.00  0.00    -0.390 OA
ATOM     22  H   UNL     1       8.806   4.465  37.532  0.00  0.00    +0.210 HD
ENDBRANCH   9  21
ENDBRANCH   4   5
BRANCH   4  23
ATOM     23  O   UNL     1       6.517   3.132  32.107  0.00  0.00    -0.387 OA
ATOM     24  H   UNL     1       6.819   2.256  31.854  0.00  0.00    +0.210 HD
ENDBRANCH   4  23
ENDBRANCH   1   4
BRANCH   1  25
ATOM     25  C   UNL     1       3.536   2.443  31.505  0.00  0.00    +0.141 C 
BRANCH  25  28
ATOM     26  C   UNL     1       1.610   3.424  30.308  0.00  0.00    +0.401 C 
ATOM     27  O   UNL     1       0.854   3.363  31.281  0.00  0.00    -0.226 OA
ATOM     28  N   UNL     1       2.878   3.012  30.322  0.00  0.00    -0.279 N 
ATOM     29  H   UNL     1       3.416   3.095  29.471  0.00  0.00    +0.152 HD
BRANCH  26  30
ATOM     30  O   UNL     1       1.118   3.964  29.079  0.00  0.00    -0.444 OA
BRANCH  30  31
ATOM     31  C   UNL     1       1.182   2.964  28.059  0.00  0.00    +0.292 C 
BRANCH  31  33
ATOM     32  N   UNL     1       2.569   3.718  26.154  0.00  0.00    -0.131 NA
ATOM     33  C   UNL     1       1.333   3.591  26.732  0.00  0.00    +0.120 A 
ATOM     34  C   UNL     1       0.384   4.125  25.887  0.00  0.00    +0.137 A 
ATOM     35  N   UNL     1       1.107   4.575  24.824  0.00  0.00    -0.250 N 
ATOM     36  N   UNL     1       2.419   4.326  24.987  0.00  0.00    -0.065 NA
BRANCH  35  37
ATOM     37  C   UNL     1       0.624   5.218  23.621  0.00  0.00    +0.162 C 
BRANCH  37  38
ATOM     38  C   UNL     1       1.568   5.078  22.422  0.00  0.00    +0.129 C 
BRANCH  38  39
ATOM     39  N   UNL     1       1.779   3.667  21.987  0.00  0.00    -0.193 NA
ATOM     40  H   UNL     1       1.473   3.014  22.719  0.00  0.00    +0.148 HD
BRANCH  39  41
ATOM     41  S   UNL     1       1.190   3.263  20.461  0.00  0.00    +0.027 S 
ATOM     42  O   UNL     1      -0.207   3.636  20.442  0.00  0.00    -0.158 OA
ATOM     43  O   UNL     1       2.120   3.781  19.482  0.00  0.00    -0.158 OA
ATOM     44  C   UNL     1       1.295   1.489  20.496  0.00  0.00    +0.214 C 
ENDBRANCH  39  41
ENDBRANCH  38  39
ENDBRANCH  37  38
ENDBRANCH  35  37
ENDBRANCH  31  33
ENDBRANCH  30  31
ENDBRANCH  26  30
ENDBRANCH  25  28
ENDBRANCH   1  25
TORSDOF 17
