REMARK VINA RESULT:    -6.479      1.754      3.462
REMARK INTER + INTRA:         -14.302
REMARK INTER:                 -12.268
REMARK INTRA:                  -2.034
REMARK UNBOUND:                -3.089
REMARK  Name = lig_assembled_91.pdb
REMARK  16 active torsions:
REMARK  status: ('A' for Active; 'I' for Inactive)
REMARK    1  A    between atoms: _2  and  _10
REMARK    2  A    between atoms: _5  and  _26
REMARK    3  A    between atoms: _7  and  _8
REMARK    4  A    between atoms: _7  and  _26
REMARK    5  A    between atoms: _22  and  _42
REMARK    6  A    between atoms: _24  and  _30
REMARK    7  A    between atoms: _25  and  _29
REMARK    8  A    between atoms: _29  and  _30
REMARK    9  A    between atoms: _32  and  _33
REMARK   10  A    between atoms: _34  and  _35
REMARK   11  A    between atoms: _36  and  _38
REMARK   12  A    between atoms: _38  and  _39
REMARK   13  A    between atoms: _38  and  _40
REMARK   14  A    between atoms: _40  and  _41
REMARK   15  A    between atoms: _40  and  _42
REMARK   16  A    between atoms: _43  and  _45
REMARK                            x       y       z     vdW  Elec       q    Type
REMARK                         _______ _______ _______ _____ _____    ______ ____
ROOT
ATOM      1  C   UNL     1       0.421   2.285  32.005  0.00  0.00    +0.401 C 
ATOM      2  O   UNL     1       0.155   2.591  33.170  0.00  0.00    -0.226 OA
ATOM      3  N   UNL     1       1.649   2.002  31.571  0.00  0.00    -0.279 N 
ATOM      4  H   UNL     1       1.766   1.752  30.599  0.00  0.00    +0.152 HD
ENDROOT
BRANCH   3   5
ATOM      5  C   UNL     1       2.842   2.033  32.425  0.00  0.00    +0.141 C 
BRANCH   5   6
ATOM      6  C   UNL     1       3.857   3.067  31.948  0.00  0.00    +0.163 C 
BRANCH   6   7
ATOM      7  O   UNL     1       3.439   4.384  32.344  0.00  0.00    -0.388 OA
ATOM      8  H   UNL     1       3.560   4.487  33.291  0.00  0.00    +0.210 HD
ENDBRANCH   6   7
BRANCH   6   9
ATOM      9  C   UNL     1       5.243   2.732  32.526  0.00  0.00    +0.175 C 
BRANCH   9  10
ATOM     10  C   UNL     1       5.381   3.176  33.989  0.00  0.00    +0.176 C 
ATOM     11  O   UNL     1       5.415   4.629  34.015  0.00  0.00    -0.332 OA
ATOM     12  C   UNL     1       5.438   5.240  35.348  0.00  0.00    +0.277 C 
ATOM     13  C   UNL     1       6.615   4.674  36.181  0.00  0.00    +0.110 C 
ATOM     14  C   UNL     1       6.640   3.132  36.157  0.00  0.00    +0.143 C 
ATOM     15  C   UNL     1       6.609   2.604  34.722  0.00  0.00    +0.133 C 
BRANCH  15  16
ATOM     16  N   UNL     1       6.546   1.134  34.715  0.00  0.00    -0.308 N 
ATOM     17  H   UNL     1       5.804   0.692  35.239  0.00  0.00    +0.149 HD
ATOM     18  C   UNL     1       7.404   0.347  34.061  0.00  0.00    +0.210 C 
ATOM     19  C   UNL     1       8.538   1.051  33.293  0.00  0.00    +0.109 C 
ATOM     20  O   UNL     1       7.317  -0.882  34.061  0.00  0.00    -0.276 OA
ENDBRANCH  15  16
BRANCH  12  21
ATOM     21  C   UNL     1       4.111   4.983  36.090  0.00  0.00    +0.414 C 
ATOM     22  O   UNL     1       3.079   4.758  35.458  0.00  0.00    -0.240 OA
ATOM     23  O   UNL     1       4.070   5.000  37.321  0.00  0.00    -0.240 OA
ENDBRANCH  12  21
BRANCH  14  24
ATOM     24  O   UNL     1       7.820   2.659  36.807  0.00  0.00    -0.390 OA
ATOM     25  H   UNL     1       7.660   2.588  37.751  0.00  0.00    +0.210 HD
ENDBRANCH  14  24
BRANCH  12  26
ATOM     26  O   UNL     1       5.638   6.667  35.184  0.00  0.00    -0.343 OA
ATOM     27  C   UNL     1       6.705   7.036  34.274  0.00  0.00    +0.198 C 
ENDBRANCH  12  26
ENDBRANCH   9  10
BRANCH   9  28
ATOM     28  O   UNL     1       6.275   3.339  31.723  0.00  0.00    -0.387 OA
ATOM     29  H   UNL     1       6.488   2.762  30.985  0.00  0.00    +0.210 HD
ENDBRANCH   9  28
ENDBRANCH   6   9
ENDBRANCH   5   6
ENDBRANCH   3   5
BRANCH   1  30
ATOM     30  O   UNL     1      -0.638   2.219  31.046  0.00  0.00    -0.444 OA
BRANCH  30  31
ATOM     31  C   UNL     1      -0.630   3.403  30.243  0.00  0.00    +0.292 C 
BRANCH  31  33
ATOM     32  N   UNL     1       1.502   3.932  29.115  0.00  0.00    -0.131 NA
ATOM     33  C   UNL     1       0.318   3.261  29.120  0.00  0.00    +0.121 A 
ATOM     34  C   UNL     1       0.234   2.498  27.978  0.00  0.00    +0.143 A 
ATOM     35  N   UNL     1       1.386   2.768  27.266  0.00  0.00    -0.218 N 
ATOM     36  N   UNL     1       2.142   3.627  27.996  0.00  0.00    -0.060 NA
BRANCH  35  37
ATOM     37  C   UNL     1       1.798   2.291  25.984  0.00  0.00    +0.085 A 
ATOM     38  C   UNL     1       2.362   0.972  25.848  0.00  0.00    +0.026 A 
ATOM     39  C   UNL     1       2.758   0.610  24.546  0.00  0.00    +0.074 A 
ATOM     40  C   UNL     1       3.316  -0.634  24.292  0.00  0.00    +0.028 A 
ATOM     41  C   UNL     1       3.506  -1.580  25.292  0.00  0.00    +0.002 A 
ATOM     42  C   UNL     1       3.100  -1.283  26.578  0.00  0.00    +0.001 A 
ATOM     43  N   UNL     1       2.613   1.397  23.482  0.00  0.00    -0.247 NA
ATOM     44  C   UNL     1       2.065   2.604  23.606  0.00  0.00    +0.074 A 
ATOM     45  C   UNL     1       1.965   3.342  22.431  0.00  0.00    +0.028 A 
ATOM     46  C   UNL     1       1.449   4.633  22.406  0.00  0.00    +0.002 A 
ATOM     47  C   UNL     1       1.032   5.210  23.589  0.00  0.00    +0.001 A 
ATOM     48  C   UNL     1       1.132   4.484  24.780  0.00  0.00    +0.012 A 
ATOM     49  C   UNL     1       2.519  -0.040  26.848  0.00  0.00    +0.012 A 
ATOM     50  C   UNL     1       1.634   3.143  24.829  0.00  0.00    +0.026 A 
ENDBRANCH  35  37
ENDBRANCH  31  33
ENDBRANCH  30  31
ENDBRANCH   1  30
TORSDOF 14
