REMARK VINA RESULT:    -6.086      1.549      3.836
REMARK INTER + INTRA:         -14.304
REMARK INTER:                 -12.577
REMARK INTRA:                  -1.728
REMARK UNBOUND:                -1.813
REMARK  Name = lig_assembled_33.pdb
REMARK  22 active torsions:
REMARK  status: ('A' for Active; 'I' for Inactive)
REMARK    1  A    between atoms: _2  and  _9
REMARK    2  A    between atoms: _4  and  _20
REMARK    3  A    between atoms: _5  and  _13
REMARK    4  A    between atoms: _5  and  _14
REMARK    5  A    between atoms: _6  and  _7
REMARK    6  A    between atoms: _6  and  _20
REMARK    7  A    between atoms: _9  and  _10
REMARK    8  A    between atoms: _10  and  _11
REMARK    9  A    between atoms: _11  and  _12
REMARK   10  A    between atoms: _12  and  _13
REMARK   11  A    between atoms: _16  and  _36
REMARK   12  A    between atoms: _18  and  _24
REMARK   13  A    between atoms: _19  and  _23
REMARK   14  A    between atoms: _23  and  _24
REMARK   15  A    between atoms: _26  and  _27
REMARK   16  A    between atoms: _28  and  _29
REMARK   17  A    between atoms: _30  and  _32
REMARK   18  A    between atoms: _32  and  _33
REMARK   19  A    between atoms: _32  and  _34
REMARK   20  A    between atoms: _34  and  _35
REMARK   21  A    between atoms: _34  and  _36
REMARK   22  A    between atoms: _37  and  _39
REMARK                            x       y       z     vdW  Elec       q    Type
REMARK                         _______ _______ _______ _____ _____    ______ ____
ROOT
ATOM      1  C   UNL     1       3.012   2.726  32.354  0.00  0.00    +0.163 C 
ENDROOT
BRANCH   1   2
ATOM      2  O   UNL     1       3.828   2.049  31.384  0.00  0.00    -0.388 OA
ATOM      3  H   UNL     1       3.331   1.935  30.570  0.00  0.00    +0.210 HD
ENDBRANCH   1   2
BRANCH   1   4
ATOM      4  C   UNL     1       3.845   3.729  33.170  0.00  0.00    +0.175 C 
BRANCH   4   5
ATOM      5  C   UNL     1       5.255   3.199  33.471  0.00  0.00    +0.176 C 
ATOM      6  O   UNL     1       5.128   1.821  33.918  0.00  0.00    -0.332 OA
ATOM      7  C   UNL     1       6.390   1.112  34.153  0.00  0.00    +0.277 C 
ATOM      8  C   UNL     1       7.279   1.903  35.143  0.00  0.00    +0.110 C 
ATOM      9  C   UNL     1       7.417   3.383  34.727  0.00  0.00    +0.143 C 
ATOM     10  C   UNL     1       6.045   4.021  34.506  0.00  0.00    +0.133 C 
BRANCH  10  11
ATOM     11  N   UNL     1       6.191   5.404  34.026  0.00  0.00    -0.308 N 
ATOM     12  H   UNL     1       6.539   5.544  33.088  0.00  0.00    +0.149 HD
ATOM     13  C   UNL     1       5.895   6.488  34.749  0.00  0.00    +0.210 C 
ATOM     14  C   UNL     1       5.391   6.242  36.184  0.00  0.00    +0.109 C 
ATOM     15  O   UNL     1       6.013   7.634  34.316  0.00  0.00    -0.276 OA
ENDBRANCH  10  11
BRANCH   7  16
ATOM     16  C   UNL     1       7.153   0.902  32.829  0.00  0.00    +0.414 C 
ATOM     17  O   UNL     1       6.551   0.555  31.814  0.00  0.00    -0.240 OA
ATOM     18  O   UNL     1       8.371   1.079  32.776  0.00  0.00    -0.240 OA
ENDBRANCH   7  16
BRANCH   9  19
ATOM     19  O   UNL     1       8.114   4.106  35.742  0.00  0.00    -0.390 OA
ATOM     20  H   UNL     1       8.755   3.529  36.164  0.00  0.00    +0.210 HD
ENDBRANCH   9  19
BRANCH   7  21
ATOM     21  O   UNL     1       6.078  -0.175  34.746  0.00  0.00    -0.343 OA
ATOM     22  C   UNL     1       4.857  -0.792  34.265  0.00  0.00    +0.198 C 
ENDBRANCH   7  21
ENDBRANCH   4   5
BRANCH   4  23
ATOM     23  O   UNL     1       3.165   4.057  34.398  0.00  0.00    -0.387 OA
ATOM     24  H   UNL     1       3.636   4.763  34.846  0.00  0.00    +0.210 HD
ENDBRANCH   4  23
ENDBRANCH   1   4
BRANCH   1  25
ATOM     25  C   UNL     1       1.872   3.460  31.655  0.00  0.00    +0.141 C 
BRANCH  25  28
ATOM     26  C   UNL     1       1.302   3.391  29.252  0.00  0.00    +0.401 C 
ATOM     27  O   UNL     1       0.190   2.889  29.434  0.00  0.00    -0.226 OA
ATOM     28  N   UNL     1       2.156   3.685  30.233  0.00  0.00    -0.279 N 
ATOM     29  H   UNL     1       3.050   4.086  29.983  0.00  0.00    +0.152 HD
BRANCH  26  30
ATOM     30  O   UNL     1       1.724   3.679  27.916  0.00  0.00    -0.444 OA
BRANCH  30  31
ATOM     31  C   UNL     1       0.753   3.182  26.991  0.00  0.00    +0.292 C 
BRANCH  31  33
ATOM     32  N   UNL     1       0.011   5.031  25.525  0.00  0.00    -0.131 NA
ATOM     33  C   UNL     1       0.812   3.939  25.727  0.00  0.00    +0.120 A 
ATOM     34  C   UNL     1       1.587   3.736  24.605  0.00  0.00    +0.137 A 
ATOM     35  N   UNL     1       1.215   4.741  23.766  0.00  0.00    -0.251 N 
ATOM     36  N   UNL     1       0.256   5.507  24.313  0.00  0.00    -0.065 NA
BRANCH  35  37
ATOM     37  C   UNL     1       1.710   5.029  22.435  0.00  0.00    +0.145 C 
BRANCH  37  38
ATOM     38  C   UNL     1       1.669   3.800  21.529  0.00  0.00    +0.023 C 
BRANCH  38  39
ATOM     39  C   UNL     1       1.866   4.150  20.052  0.00  0.00    +0.002 C 
BRANCH  39  40
ATOM     40  C   UNL     1       0.928   3.304  19.187  0.00  0.00    +0.011 C 
BRANCH  40  41
ATOM     41  C   UNL     1       1.536   1.959  18.795  0.00  0.00    +0.120 C 
BRANCH  41  42
ATOM     42  C   UNL     1       2.064   1.988  17.378  0.00  0.00    +0.305 C 
ATOM     43  O   UNL     1       2.861   1.195  16.905  0.00  0.00    -0.251 OA
BRANCH  42  44
ATOM     44  O   UNL     1       1.547   3.010  16.657  0.00  0.00    -0.481 OA
ATOM     45  H   UNL     1       0.573   3.037  16.653  0.00  0.00    +0.295 HD
ENDBRANCH  42  44
ENDBRANCH  41  42
ENDBRANCH  40  41
ENDBRANCH  39  40
ENDBRANCH  38  39
ENDBRANCH  37  38
ENDBRANCH  35  37
ENDBRANCH  31  33
ENDBRANCH  30  31
ENDBRANCH  26  30
ENDBRANCH  25  28
ENDBRANCH   1  25
TORSDOF 20
