REMARK VINA RESULT:    -5.919      7.741     12.534
REMARK INTER + INTRA:         -13.127
REMARK INTER:                 -11.663
REMARK INTRA:                  -1.465
REMARK UNBOUND:                -2.536
REMARK  Name = lig_assembled_44.pdb
REMARK  17 active torsions:
REMARK  status: ('A' for Active; 'I' for Inactive)
REMARK    1  A    between atoms: _2  and  _9
REMARK    2  A    between atoms: _4  and  _19
REMARK    3  A    between atoms: _6  and  _7
REMARK    4  A    between atoms: _6  and  _19
REMARK    5  A    between atoms: _9  and  _10
REMARK    6  A    between atoms: _15  and  _35
REMARK    7  A    between atoms: _17  and  _23
REMARK    8  A    between atoms: _18  and  _22
REMARK    9  A    between atoms: _22  and  _23
REMARK   10  A    between atoms: _25  and  _26
REMARK   11  A    between atoms: _27  and  _28
REMARK   12  A    between atoms: _29  and  _31
REMARK   13  A    between atoms: _31  and  _32
REMARK   14  A    between atoms: _31  and  _33
REMARK   15  A    between atoms: _33  and  _34
REMARK   16  A    between atoms: _33  and  _35
REMARK   17  A    between atoms: _36  and  _38
REMARK                            x       y       z     vdW  Elec       q    Type
REMARK                         _______ _______ _______ _____ _____    ______ ____
ROOT
ATOM      1  C   UNL     1       7.385   2.530  34.262  0.00  0.00    +0.163 C 
ENDROOT
BRANCH   1   2
ATOM      2  O   UNL     1       7.285   2.573  35.695  0.00  0.00    -0.388 OA
ATOM      3  H   UNL     1       6.799   1.806  36.006  0.00  0.00    +0.210 HD
ENDBRANCH   1   2
BRANCH   1   4
ATOM      4  C   UNL     1       8.418   1.490  33.843  0.00  0.00    +0.141 C 
BRANCH   4   7
ATOM      5  C   UNL     1      10.636   1.554  34.930  0.00  0.00    +0.401 C 
ATOM      6  O   UNL     1      10.353   0.697  35.771  0.00  0.00    -0.226 OA
ATOM      7  N   UNL     1       9.790   1.988  33.995  0.00  0.00    -0.279 N 
ATOM      8  H   UNL     1      10.112   2.701  33.356  0.00  0.00    +0.152 HD
BRANCH   5   9
ATOM      9  O   UNL     1      11.943   2.133  34.942  0.00  0.00    -0.444 OA
BRANCH   9  10
ATOM     10  C   UNL     1      12.027   3.102  35.991  0.00  0.00    +0.292 C 
BRANCH  10  12
ATOM     11  N   UNL     1      13.481   4.993  36.664  0.00  0.00    -0.131 NA
ATOM     12  C   UNL     1      13.217   3.955  35.810  0.00  0.00    +0.120 A 
ATOM     13  C   UNL     1      14.213   3.886  34.864  0.00  0.00    +0.137 A 
ATOM     14  N   UNL     1      15.093   4.857  35.243  0.00  0.00    -0.247 N 
ATOM     15  N   UNL     1      14.630   5.547  36.301  0.00  0.00    -0.065 NA
BRANCH  14  16
ATOM     16  C   UNL     1      16.378   5.182  34.655  0.00  0.00    +0.180 C 
BRANCH  16  17
ATOM     17  C   UNL     1      16.445   6.633  34.241  0.00  0.00    -0.026 A 
ATOM     18  C   UNL     1      17.285   7.533  34.917  0.00  0.00    +0.006 A 
ATOM     19  C   UNL     1      17.333   8.877  34.543  0.00  0.00    +0.015 A 
ATOM     20  C   UNL     1      16.541   9.330  33.489  0.00  0.00    +0.018 A 
ATOM     21 BR   UNL     1      16.620  11.147  32.973  0.00  0.00    -0.050 Br
ATOM     22  C   UNL     1      15.692   8.455  32.816  0.00  0.00    +0.015 A 
ATOM     23  C   UNL     1      15.640   7.110  33.194  0.00  0.00    +0.006 A 
ENDBRANCH  16  17
ENDBRANCH  14  16
ENDBRANCH  10  12
ENDBRANCH   9  10
ENDBRANCH   5   9
ENDBRANCH   4   7
ENDBRANCH   1   4
BRANCH   1  24
ATOM     24  C   UNL     1       7.781   3.905  33.696  0.00  0.00    +0.175 C 
BRANCH  24  25
ATOM     25  C   UNL     1       7.150   5.059  34.488  0.00  0.00    +0.176 C 
ATOM     26  O   UNL     1       7.888   5.203  35.733  0.00  0.00    -0.332 OA
ATOM     27  C   UNL     1       7.491   6.333  36.578  0.00  0.00    +0.277 C 
ATOM     28  C   UNL     1       5.972   6.281  36.873  0.00  0.00    +0.110 C 
ATOM     29  C   UNL     1       5.147   6.097  35.582  0.00  0.00    +0.143 C 
ATOM     30  C   UNL     1       5.646   4.895  34.779  0.00  0.00    +0.133 C 
BRANCH  30  31
ATOM     31  N   UNL     1       4.910   4.782  33.510  0.00  0.00    -0.308 N 
ATOM     32  H   UNL     1       5.079   5.484  32.803  0.00  0.00    +0.149 HD
ATOM     33  C   UNL     1       4.034   3.813  33.232  0.00  0.00    +0.210 C 
ATOM     34  C   UNL     1       3.780   2.774  34.340  0.00  0.00    +0.109 C 
ATOM     35  O   UNL     1       3.443   3.735  32.154  0.00  0.00    -0.276 OA
ENDBRANCH  30  31
BRANCH  27  36
ATOM     36  C   UNL     1       7.838   7.674  35.898  0.00  0.00    +0.414 C 
ATOM     37  O   UNL     1       8.147   8.652  36.577  0.00  0.00    -0.240 OA
ATOM     38  O   UNL     1       7.809   7.776  34.671  0.00  0.00    -0.240 OA
ENDBRANCH  27  36
BRANCH  27  39
ATOM     39  O   UNL     1       8.205   6.225  37.837  0.00  0.00    -0.343 OA
ATOM     40  C   UNL     1       9.279   5.251  37.850  0.00  0.00    +0.198 C 
ENDBRANCH  27  39
BRANCH  29  41
ATOM     41  O   UNL     1       3.771   5.902  35.913  0.00  0.00    -0.390 OA
ATOM     42  H   UNL     1       3.464   5.076  35.534  0.00  0.00    +0.210 HD
ENDBRANCH  29  41
ENDBRANCH  24  25
BRANCH  24  43
ATOM     43  O   UNL     1       7.410   3.995  32.306  0.00  0.00    -0.387 OA
ATOM     44  H   UNL     1       8.140   4.363  31.803  0.00  0.00    +0.210 HD
ENDBRANCH  24  43
ENDBRANCH   1  24
TORSDOF 15
