REMARK VINA RESULT:    -6.561     13.941     15.943
REMARK INTER + INTRA:         -13.491
REMARK INTER:                 -10.839
REMARK INTRA:                  -2.653
REMARK UNBOUND:                -2.135
REMARK  Name = lig_assembled_51.pdb
REMARK  16 active torsions:
REMARK  status: ('A' for Active; 'I' for Inactive)
REMARK    1  A    between atoms: _2  and  _9
REMARK    2  A    between atoms: _4  and  _22
REMARK    3  A    between atoms: _6  and  _7
REMARK    4  A    between atoms: _6  and  _22
REMARK    5  A    between atoms: _18  and  _38
REMARK    6  A    between atoms: _20  and  _26
REMARK    7  A    between atoms: _21  and  _25
REMARK    8  A    between atoms: _25  and  _26
REMARK    9  A    between atoms: _28  and  _29
REMARK   10  A    between atoms: _30  and  _31
REMARK   11  A    between atoms: _32  and  _34
REMARK   12  A    between atoms: _34  and  _35
REMARK   13  A    between atoms: _34  and  _36
REMARK   14  A    between atoms: _36  and  _37
REMARK   15  A    between atoms: _36  and  _38
REMARK   16  A    between atoms: _39  and  _41
REMARK                            x       y       z     vdW  Elec       q    Type
REMARK                         _______ _______ _______ _____ _____    ______ ____
ROOT
ATOM      1  C   UNL     1      18.471  10.382  29.956  0.00  0.00    +0.163 C 
ENDROOT
BRANCH   1   2
ATOM      2  O   UNL     1      17.121  10.689  30.342  0.00  0.00    -0.388 OA
ATOM      3  H   UNL     1      16.516  10.095  29.892  0.00  0.00    +0.210 HD
ENDBRANCH   1   2
BRANCH   1   4
ATOM      4  C   UNL     1      18.721  10.840  28.523  0.00  0.00    +0.141 C 
BRANCH   4   7
ATOM      5  C   UNL     1      19.783   9.759  26.571  0.00  0.00    +0.401 C 
ATOM      6  O   UNL     1      20.417  10.763  26.240  0.00  0.00    -0.226 OA
ATOM      7  N   UNL     1      18.962   9.707  27.620  0.00  0.00    -0.279 N 
ATOM      8  H   UNL     1      18.478   8.839  27.805  0.00  0.00    +0.152 HD
BRANCH   5   9
ATOM      9  O   UNL     1      19.917   8.566  25.793  0.00  0.00    -0.444 OA
BRANCH   9  10
ATOM     10  C   UNL     1      19.119   7.528  26.369  0.00  0.00    +0.292 C 
BRANCH  10  12
ATOM     11  N   UNL     1      18.572   6.680  24.108  0.00  0.00    -0.131 NA
ATOM     12  C   UNL     1      18.931   6.429  25.404  0.00  0.00    +0.120 A 
ATOM     13  C   UNL     1      19.061   5.070  25.578  0.00  0.00    +0.137 A 
ATOM     14  N   UNL     1      18.762   4.542  24.352  0.00  0.00    -0.245 N 
ATOM     15  N   UNL     1      18.472   5.519  23.475  0.00  0.00    -0.065 NA
BRANCH  14  16
ATOM     16  C   UNL     1      18.730   3.128  23.970  0.00  0.00    +0.066 C 
ATOM     17  C   UNL     1      18.367   2.251  25.200  0.00  0.00    +0.034 C 
ATOM     18  C   UNL     1      18.283   0.766  24.809  0.00  0.00    -0.008 C 
ATOM     19  C   UNL     1      17.212   0.589  23.719  0.00  0.00    +0.007 C 
ATOM     20  C   UNL     1      17.580   1.416  22.476  0.00  0.00    -0.008 C 
ATOM     21  C   UNL     1      18.945   0.953  21.944  0.00  0.00    +0.007 C 
ATOM     22  C   UNL     1      20.020   1.137  23.026  0.00  0.00    -0.008 C 
ATOM     23  C   UNL     1      19.643   0.306  24.263  0.00  0.00    +0.007 C 
ATOM     24  C   UNL     1      17.663   2.902  22.863  0.00  0.00    +0.034 C 
ATOM     25  C   UNL     1      20.097   2.623  23.417  0.00  0.00    +0.034 C 
ENDBRANCH  14  16
ENDBRANCH  10  12
ENDBRANCH   9  10
ENDBRANCH   5   9
ENDBRANCH   4   7
ENDBRANCH   1   4
BRANCH   1  26
ATOM     26  C   UNL     1      18.745   8.872  30.068  0.00  0.00    +0.175 C 
BRANCH  26  27
ATOM     27  C   UNL     1      17.974   8.230  31.230  0.00  0.00    +0.176 C 
ATOM     28  O   UNL     1      18.031   9.141  32.363  0.00  0.00    -0.332 OA
ATOM     29  C   UNL     1      17.254   8.739  33.539  0.00  0.00    +0.277 C 
ATOM     30  C   UNL     1      17.656   7.314  33.993  0.00  0.00    +0.110 C 
ATOM     31  C   UNL     1      17.641   6.316  32.815  0.00  0.00    +0.143 C 
ATOM     32  C   UNL     1      18.477   6.835  31.645  0.00  0.00    +0.133 C 
BRANCH  32  33
ATOM     33  N   UNL     1      18.384   5.918  30.499  0.00  0.00    -0.308 N 
ATOM     34  H   UNL     1      17.501   5.859  30.012  0.00  0.00    +0.149 HD
ATOM     35  C   UNL     1      19.391   5.158  30.059  0.00  0.00    +0.210 C 
ATOM     36  C   UNL     1      20.716   5.251  30.838  0.00  0.00    +0.109 C 
ATOM     37  O   UNL     1      19.288   4.409  29.087  0.00  0.00    -0.276 OA
ENDBRANCH  32  33
BRANCH  29  38
ATOM     38  C   UNL     1      15.742   8.775  33.235  0.00  0.00    +0.414 C 
ATOM     39  O   UNL     1      15.001   7.891  33.664  0.00  0.00    -0.240 OA
ATOM     40  O   UNL     1      15.263   9.688  32.561  0.00  0.00    -0.240 OA
ENDBRANCH  29  38
BRANCH  31  41
ATOM     41  O   UNL     1      18.161   5.057  33.244  0.00  0.00    -0.390 OA
ATOM     42  H   UNL     1      18.896   5.202  33.844  0.00  0.00    +0.210 HD
ENDBRANCH  31  41
BRANCH  29  43
ATOM     43  O   UNL     1      17.558   9.664  34.615  0.00  0.00    -0.343 OA
ATOM     44  C   UNL     1      18.156  10.916  34.195  0.00  0.00    +0.198 C 
ENDBRANCH  29  43
ENDBRANCH  26  27
BRANCH  26  45
ATOM     45  O   UNL     1      20.159   8.634  30.219  0.00  0.00    -0.387 OA
ATOM     46  H   UNL     1      20.506   8.244  29.413  0.00  0.00    +0.210 HD
ENDBRANCH  26  45
ENDBRANCH   1  26
TORSDOF 14
