REMARK VINA RESULT:    -5.576      6.666     12.565
REMARK INTER + INTRA:         -13.456
REMARK INTER:                 -11.834
REMARK INTRA:                  -1.622
REMARK UNBOUND:                -3.154
REMARK  Name = lig_assembled_67.pdb
REMARK  18 active torsions:
REMARK  status: ('A' for Active; 'I' for Inactive)
REMARK    1  A    between atoms: _2  and  _9
REMARK    2  A    between atoms: _4  and  _19
REMARK    3  A    between atoms: _6  and  _7
REMARK    4  A    between atoms: _6  and  _19
REMARK    5  A    between atoms: _9  and  _10
REMARK    6  A    between atoms: _10  and  _11
REMARK    7  A    between atoms: _15  and  _35
REMARK    8  A    between atoms: _17  and  _23
REMARK    9  A    between atoms: _18  and  _22
REMARK   10  A    between atoms: _22  and  _23
REMARK   11  A    between atoms: _25  and  _26
REMARK   12  A    between atoms: _27  and  _28
REMARK   13  A    between atoms: _29  and  _31
REMARK   14  A    between atoms: _31  and  _32
REMARK   15  A    between atoms: _31  and  _33
REMARK   16  A    between atoms: _33  and  _34
REMARK   17  A    between atoms: _33  and  _35
REMARK   18  A    between atoms: _36  and  _38
REMARK                            x       y       z     vdW  Elec       q    Type
REMARK                         _______ _______ _______ _____ _____    ______ ____
ROOT
ATOM      1  C   UNL     1       7.521   2.525  34.568  0.00  0.00    +0.163 C 
ENDROOT
BRANCH   1   2
ATOM      2  O   UNL     1       7.505   2.636  36.001  0.00  0.00    -0.388 OA
ATOM      3  H   UNL     1       7.095   3.467  36.253  0.00  0.00    +0.210 HD
ENDBRANCH   1   2
BRANCH   1   4
ATOM      4  C   UNL     1       7.892   3.868  33.916  0.00  0.00    +0.175 C 
BRANCH   4   5
ATOM      5  C   UNL     1       7.240   5.059  34.634  0.00  0.00    +0.176 C 
ATOM      6  O   UNL     1       7.931   5.251  35.899  0.00  0.00    -0.332 OA
ATOM      7  C   UNL     1       7.512   6.418  36.680  0.00  0.00    +0.277 C 
ATOM      8  C   UNL     1       5.982   6.388  36.919  0.00  0.00    +0.110 C 
ATOM      9  C   UNL     1       5.205   6.154  35.606  0.00  0.00    +0.143 C 
ATOM     10  C   UNL     1       5.725   4.917  34.873  0.00  0.00    +0.133 C 
BRANCH  10  11
ATOM     11  N   UNL     1       5.037   4.755  33.583  0.00  0.00    -0.308 N 
ATOM     12  H   UNL     1       5.236   5.426  32.855  0.00  0.00    +0.149 HD
ATOM     13  C   UNL     1       4.167   3.778  33.311  0.00  0.00    +0.210 C 
ATOM     14  C   UNL     1       3.866   2.787  34.451  0.00  0.00    +0.109 C 
ATOM     15  O   UNL     1       3.617   3.659  32.216  0.00  0.00    -0.276 OA
ENDBRANCH  10  11
BRANCH   7  16
ATOM     16  C   UNL     1       7.895   7.726  35.958  0.00  0.00    +0.414 C 
ATOM     17  O   UNL     1       7.876   7.784  34.729  0.00  0.00    -0.240 OA
ATOM     18  O   UNL     1       8.223   8.723  36.603  0.00  0.00    -0.240 OA
ENDBRANCH   7  16
BRANCH   9  19
ATOM     19  O   UNL     1       3.817   5.983  35.892  0.00  0.00    -0.390 OA
ATOM     20  H   UNL     1       3.294   6.349  35.175  0.00  0.00    +0.210 HD
ENDBRANCH   9  19
BRANCH   7  21
ATOM     21  O   UNL     1       8.177   6.359  37.968  0.00  0.00    -0.343 OA
ATOM     22  C   UNL     1       9.468   5.700  37.961  0.00  0.00    +0.198 C 
ENDBRANCH   7  21
ENDBRANCH   4   5
BRANCH   4  23
ATOM     23  O   UNL     1       7.519   3.864  32.523  0.00  0.00    -0.387 OA
ATOM     24  H   UNL     1       8.183   3.391  32.015  0.00  0.00    +0.210 HD
ENDBRANCH   4  23
ENDBRANCH   1   4
BRANCH   1  25
ATOM     25  C   UNL     1       8.521   1.457  34.139  0.00  0.00    +0.141 C 
BRANCH  25  28
ATOM     26  C   UNL     1      10.749   2.108  34.985  0.00  0.00    +0.401 C 
ATOM     27  O   UNL     1      10.511   1.768  36.147  0.00  0.00    -0.226 OA
ATOM     28  N   UNL     1       9.874   2.004  33.984  0.00  0.00    -0.279 N 
ATOM     29  H   UNL     1      10.159   2.319  33.067  0.00  0.00    +0.152 HD
BRANCH  26  30
ATOM     30  O   UNL     1      12.032   2.655  34.671  0.00  0.00    -0.444 OA
BRANCH  30  31
ATOM     31  C   UNL     1      12.692   3.049  35.877  0.00  0.00    +0.292 C 
BRANCH  31  33
ATOM     32  N   UNL     1      14.151   4.358  34.366  0.00  0.00    -0.131 NA
ATOM     33  C   UNL     1      13.620   4.165  35.616  0.00  0.00    +0.120 A 
ATOM     34  C   UNL     1      14.099   5.139  36.462  0.00  0.00    +0.137 A 
ATOM     35  N   UNL     1      14.916   5.888  35.671  0.00  0.00    -0.251 N 
ATOM     36  N   UNL     1      14.948   5.416  34.415  0.00  0.00    -0.065 NA
BRANCH  35  37
ATOM     37  C   UNL     1      15.681   7.061  36.032  0.00  0.00    +0.150 C 
BRANCH  37  38
ATOM     38  C   UNL     1      16.476   7.653  34.871  0.00  0.00    +0.084 C 
BRANCH  38  39
ATOM     39  C   UNL     1      16.298   9.160  34.752  0.00  0.00    +0.252 C 
ATOM     40  O   UNL     1      17.567   9.794  34.555  0.00  0.00    -0.349 OA
ATOM     41  C   UNL     1      17.235  10.957  33.800  0.00  0.00    +0.191 C 
ATOM     42  C   UNL     1      16.121  10.483  32.903  0.00  0.00    +0.191 C 
ATOM     43  O   UNL     1      15.439   9.476  33.652  0.00  0.00    -0.349 OA
ENDBRANCH  38  39
ENDBRANCH  37  38
ENDBRANCH  35  37
ENDBRANCH  31  33
ENDBRANCH  30  31
ENDBRANCH  26  30
ENDBRANCH  25  28
ENDBRANCH   1  25
TORSDOF 16
