REMARK VINA RESULT:    -5.729      8.970     12.868
REMARK INTER + INTRA:         -12.499
REMARK INTER:                  -9.286
REMARK INTRA:                  -3.213
REMARK UNBOUND:                -2.248
REMARK  Name = lig_assembled_61.pdb
REMARK  17 active torsions:
REMARK  status: ('A' for Active; 'I' for Inactive)
REMARK    1  A    between atoms: _2  and  _9
REMARK    2  A    between atoms: _4  and  _17
REMARK    3  A    between atoms: _6  and  _7
REMARK    4  A    between atoms: _6  and  _17
REMARK    5  A    between atoms: _9  and  _10
REMARK    6  A    between atoms: _13  and  _33
REMARK    7  A    between atoms: _15  and  _21
REMARK    8  A    between atoms: _16  and  _20
REMARK    9  A    between atoms: _20  and  _21
REMARK   10  A    between atoms: _23  and  _24
REMARK   11  A    between atoms: _25  and  _26
REMARK   12  A    between atoms: _27  and  _29
REMARK   13  A    between atoms: _29  and  _30
REMARK   14  A    between atoms: _29  and  _31
REMARK   15  A    between atoms: _31  and  _32
REMARK   16  A    between atoms: _31  and  _33
REMARK   17  A    between atoms: _34  and  _36
REMARK                            x       y       z     vdW  Elec       q    Type
REMARK                         _______ _______ _______ _____ _____    ______ ____
ROOT
ATOM      1  C   UNL     1       3.582   5.169  37.022  0.00  0.00    +0.163 C 
ENDROOT
BRANCH   1   2
ATOM      2  O   UNL     1       3.601   5.982  35.837  0.00  0.00    -0.388 OA
ATOM      3  H   UNL     1       4.441   6.446  35.780  0.00  0.00    +0.210 HD
ENDBRANCH   1   2
BRANCH   1   4
ATOM      4  C   UNL     1       2.150   5.008  37.521  0.00  0.00    +0.141 C 
BRANCH   4   7
ATOM      5  C   UNL     1       1.319   5.374  39.819  0.00  0.00    +0.401 C 
ATOM      6  O   UNL     1       0.947   4.208  39.971  0.00  0.00    -0.226 OA
ATOM      7  N   UNL     1       1.886   5.836  38.704  0.00  0.00    -0.279 N 
ATOM      8  H   UNL     1       2.149   6.811  38.671  0.00  0.00    +0.152 HD
BRANCH   5   9
ATOM      9  O   UNL     1       1.139   6.305  40.889  0.00  0.00    -0.444 OA
BRANCH   9  10
ATOM     10  C   UNL     1       2.415   6.712  41.389  0.00  0.00    +0.292 C 
BRANCH  10  12
ATOM     11  N   UNL     1       2.630   8.784  40.053  0.00  0.00    -0.131 NA
ATOM     12  C   UNL     1       2.570   8.174  41.279  0.00  0.00    +0.120 A 
ATOM     13  C   UNL     1       2.673   9.131  42.265  0.00  0.00    +0.137 A 
ATOM     14  N   UNL     1       2.853  10.294  41.575  0.00  0.00    -0.247 N 
ATOM     15  N   UNL     1       2.785  10.088  40.247  0.00  0.00    -0.065 NA
BRANCH  14  16
ATOM     16  C   UNL     1       3.055  11.631  42.103  0.00  0.00    +0.180 C 
BRANCH  16  17
ATOM     17  C   UNL     1       4.490  11.871  42.480  0.00  0.00    -0.019 A 
ATOM     18  C   UNL     1       4.917  12.567  43.662  0.00  0.00    +0.013 A 
ATOM     19  C   UNL     1       6.288  12.683  43.749  0.00  0.00    +0.045 A 
ATOM     20  S   UNL     1       7.077  11.950  42.424  0.00  0.00    -0.105 S 
ATOM     21  C   UNL     1       5.588  11.487  41.726  0.00  0.00    +0.050 A 
ENDBRANCH  16  17
ENDBRANCH  14  16
ENDBRANCH  10  12
ENDBRANCH   9  10
ENDBRANCH   5   9
ENDBRANCH   4   7
ENDBRANCH   1   4
BRANCH   1  22
ATOM     22  C   UNL     1       4.446   5.793  38.131  0.00  0.00    +0.175 C 
BRANCH  22  23
ATOM     23  C   UNL     1       5.708   6.465  37.572  0.00  0.00    +0.176 C 
ATOM     24  O   UNL     1       6.209   5.641  36.484  0.00  0.00    -0.332 OA
ATOM     25  C   UNL     1       7.359   6.184  35.754  0.00  0.00    +0.277 C 
ATOM     26  C   UNL     1       8.512   6.516  36.733  0.00  0.00    +0.110 C 
ATOM     27  C   UNL     1       8.022   7.365  37.924  0.00  0.00    +0.143 C 
ATOM     28  C   UNL     1       6.821   6.709  38.608  0.00  0.00    +0.133 C 
BRANCH  28  29
ATOM     29  N   UNL     1       6.309   7.569  39.686  0.00  0.00    -0.308 N 
ATOM     30  H   UNL     1       5.841   8.426  39.424  0.00  0.00    +0.149 HD
ATOM     31  C   UNL     1       6.422   7.292  40.988  0.00  0.00    +0.210 C 
ATOM     32  C   UNL     1       7.163   5.992  41.355  0.00  0.00    +0.109 C 
ATOM     33  O   UNL     1       5.970   8.024  41.869  0.00  0.00    -0.276 OA
ENDBRANCH  28  29
BRANCH  25  34
ATOM     34  C   UNL     1       6.962   7.455  34.975  0.00  0.00    +0.414 C 
ATOM     35  O   UNL     1       7.808   8.306  34.705  0.00  0.00    -0.240 OA
ATOM     36  O   UNL     1       5.797   7.629  34.617  0.00  0.00    -0.240 OA
ENDBRANCH  25  34
BRANCH  25  37
ATOM     37  O   UNL     1       7.823   5.168  34.828  0.00  0.00    -0.343 OA
ATOM     38  C   UNL     1       6.776   4.379  34.210  0.00  0.00    +0.198 C 
ENDBRANCH  25  37
BRANCH  27  39
ATOM     39  O   UNL     1       9.078   7.519  38.873  0.00  0.00    -0.390 OA
ATOM     40  H   UNL     1       9.433   8.408  38.816  0.00  0.00    +0.210 HD
ENDBRANCH  27  39
ENDBRANCH  22  23
BRANCH  22  41
ATOM     41  O   UNL     1       4.806   4.790  39.103  0.00  0.00    -0.387 OA
ATOM     42  H   UNL     1       4.369   4.981  39.936  0.00  0.00    +0.210 HD
ENDBRANCH  22  41
ENDBRANCH   1  22
TORSDOF 15
