REMARK VINA RESULT:    -6.988      0.000      0.000
REMARK INTER + INTRA:         -14.428
REMARK INTER:                 -12.324
REMARK INTRA:                  -2.104
REMARK UNBOUND:                -2.334
REMARK  Name = lig_assembled_15.pdb
REMARK  16 active torsions:
REMARK  status: ('A' for Active; 'I' for Inactive)
REMARK    1  A    between atoms: _2  and  _9
REMARK    2  A    between atoms: _4  and  _18
REMARK    3  A    between atoms: _6  and  _7
REMARK    4  A    between atoms: _6  and  _18
REMARK    5  A    between atoms: _14  and  _34
REMARK    6  A    between atoms: _16  and  _22
REMARK    7  A    between atoms: _17  and  _21
REMARK    8  A    between atoms: _21  and  _22
REMARK    9  A    between atoms: _24  and  _25
REMARK   10  A    between atoms: _26  and  _27
REMARK   11  A    between atoms: _28  and  _30
REMARK   12  A    between atoms: _30  and  _31
REMARK   13  A    between atoms: _30  and  _32
REMARK   14  A    between atoms: _32  and  _33
REMARK   15  A    between atoms: _32  and  _34
REMARK   16  A    between atoms: _35  and  _37
REMARK                            x       y       z     vdW  Elec       q    Type
REMARK                         _______ _______ _______ _____ _____    ______ ____
ROOT
ATOM      1  C   UNL     1       4.011   3.641  32.518  0.00  0.00    +0.163 C 
ENDROOT
BRANCH   1   2
ATOM      2  O   UNL     1       3.174   3.970  33.639  0.00  0.00    -0.388 OA
ATOM      3  H   UNL     1       3.680   4.476  34.279  0.00  0.00    +0.210 HD
ENDBRANCH   1   2
BRANCH   1   4
ATOM      4  C   UNL     1       3.326   2.594  31.646  0.00  0.00    +0.141 C 
BRANCH   4   7
ATOM      5  C   UNL     1       1.252   3.627  30.789  0.00  0.00    +0.401 C 
ATOM      6  O   UNL     1       0.651   3.534  31.862  0.00  0.00    -0.226 OA
ATOM      7  N   UNL     1       2.503   3.208  30.597  0.00  0.00    -0.279 N 
ATOM      8  H   UNL     1       2.908   3.320  29.678  0.00  0.00    +0.152 HD
BRANCH   5   9
ATOM      9  O   UNL     1       0.586   4.214  29.668  0.00  0.00    -0.444 OA
BRANCH   9  10
ATOM     10  C   UNL     1       0.240   3.192  28.730  0.00  0.00    +0.292 C 
BRANCH  10  12
ATOM     11  N   UNL     1       2.220   3.825  27.388  0.00  0.00    -0.131 NA
ATOM     12  C   UNL     1       0.915   3.432  27.440  0.00  0.00    +0.121 A 
ATOM     13  C   UNL     1       0.430   3.314  26.157  0.00  0.00    +0.143 A 
ATOM     14  N   UNL     1       1.498   3.621  25.345  0.00  0.00    -0.220 N 
ATOM     15  N   UNL     1       2.566   3.944  26.114  0.00  0.00    -0.060 NA
BRANCH  14  16
ATOM     16  C   UNL     1       1.570   3.597  23.926  0.00  0.00    +0.067 A 
ATOM     17  C   UNL     1       1.605   2.383  23.227  0.00  0.00    +0.029 A 
ATOM     18  C   UNL     1       1.718   2.380  21.833  0.00  0.00    +0.017 A 
ATOM     19  C   UNL     1       1.790   3.586  21.138  0.00  0.00    +0.018 A 
ATOM     20 BR   UNL     1       1.969   3.573  19.256  0.00  0.00    -0.050 Br
ATOM     21  C   UNL     1       1.740   4.799  21.822  0.00  0.00    +0.017 A 
ATOM     22  C   UNL     1       1.627   4.807  23.215  0.00  0.00    +0.029 A 
ENDBRANCH  14  16
ENDBRANCH  10  12
ENDBRANCH   9  10
ENDBRANCH   5   9
ENDBRANCH   4   7
ENDBRANCH   1   4
BRANCH   1  23
ATOM     23  C   UNL     1       5.375   3.106  32.989  0.00  0.00    +0.175 C 
BRANCH  23  24
ATOM     24  C   UNL     1       5.853   3.795  34.276  0.00  0.00    +0.176 C 
ATOM     25  O   UNL     1       5.923   5.224  34.019  0.00  0.00    -0.332 OA
ATOM     26  C   UNL     1       6.263   6.060  35.174  0.00  0.00    +0.277 C 
ATOM     27  C   UNL     1       7.585   5.579  35.820  0.00  0.00    +0.110 C 
ATOM     28  C   UNL     1       7.570   4.058  36.083  0.00  0.00    +0.143 C 
ATOM     29  C   UNL     1       7.202   3.286  34.816  0.00  0.00    +0.133 C 
BRANCH  29  30
ATOM     30  N   UNL     1       7.106   1.845  35.100  0.00  0.00    -0.308 N 
ATOM     31  H   UNL     1       6.419   1.543  35.777  0.00  0.00    +0.149 HD
ATOM     32  C   UNL     1       7.867   0.911  34.523  0.00  0.00    +0.210 C 
ATOM     33  C   UNL     1       8.921   1.407  33.516  0.00  0.00    +0.109 C 
ATOM     34  O   UNL     1       7.754  -0.290  34.769  0.00  0.00    -0.276 OA
ENDBRANCH  29  30
BRANCH  26  35
ATOM     35  C   UNL     1       5.134   6.026  36.225  0.00  0.00    +0.414 C 
ATOM     36  O   UNL     1       5.384   6.235  37.411  0.00  0.00    -0.240 OA
ATOM     37  O   UNL     1       3.973   5.790  35.886  0.00  0.00    -0.240 OA
ENDBRANCH  26  35
BRANCH  28  38
ATOM     38  O   UNL     1       8.857   3.634  36.535  0.00  0.00    -0.390 OA
ATOM     39  H   UNL     1       9.049   4.043  37.382  0.00  0.00    +0.210 HD
ENDBRANCH  28  38
BRANCH  26  40
ATOM     40  O   UNL     1       6.452   7.420  34.704  0.00  0.00    -0.343 OA
ATOM     41  C   UNL     1       7.685   8.050  35.133  0.00  0.00    +0.198 C 
ENDBRANCH  26  40
ENDBRANCH  23  24
BRANCH  23  42
ATOM     42  O   UNL     1       6.357   3.266  31.946  0.00  0.00    -0.387 OA
ATOM     43  H   UNL     1       6.287   4.148  31.572  0.00  0.00    +0.210 HD
ENDBRANCH  23  42
ENDBRANCH   1  23
TORSDOF 14
