REMARK VINA RESULT:    -6.117     14.793     18.098
REMARK INTER + INTRA:         -14.261
REMARK INTER:                  -9.575
REMARK INTRA:                  -4.687
REMARK UNBOUND:                -2.243
REMARK  Name = lig_assembled_31.pdb
REMARK  20 active torsions:
REMARK  status: ('A' for Active; 'I' for Inactive)
REMARK    1  A    between atoms: _2  and  _11
REMARK    2  A    between atoms: _3  and  _12
REMARK    3  A    between atoms: _4  and  _14
REMARK    4  A    between atoms: _6  and  _24
REMARK    5  A    between atoms: _8  and  _9
REMARK    6  A    between atoms: _8  and  _24
REMARK    7  A    between atoms: _11  and  _12
REMARK    8  A    between atoms: _14  and  _15
REMARK    9  A    between atoms: _20  and  _40
REMARK   10  A    between atoms: _22  and  _28
REMARK   11  A    between atoms: _23  and  _27
REMARK   12  A    between atoms: _27  and  _28
REMARK   13  A    between atoms: _30  and  _31
REMARK   14  A    between atoms: _32  and  _33
REMARK   15  A    between atoms: _34  and  _36
REMARK   16  A    between atoms: _36  and  _37
REMARK   17  A    between atoms: _36  and  _38
REMARK   18  A    between atoms: _38  and  _39
REMARK   19  A    between atoms: _38  and  _40
REMARK   20  A    between atoms: _41  and  _43
REMARK                            x       y       z     vdW  Elec       q    Type
REMARK                         _______ _______ _______ _____ _____    ______ ____
ROOT
ATOM      1  C   UNL     1       8.019   3.330  36.628  0.00  0.00    +0.401 C 
ATOM      2  O   UNL     1       7.234   3.476  37.567  0.00  0.00    -0.226 OA
ATOM      3  N   UNL     1       8.428   4.322  35.837  0.00  0.00    -0.279 N 
ATOM      4  H   UNL     1       9.081   4.105  35.097  0.00  0.00    +0.152 HD
ENDROOT
BRANCH   1   5
ATOM      5  O   UNL     1       8.539   2.026  36.354  0.00  0.00    -0.444 OA
BRANCH   5   6
ATOM      6  C   UNL     1       9.110   2.005  35.043  0.00  0.00    +0.292 C 
BRANCH   6   8
ATOM      7  N   UNL     1       8.549   1.077  32.818  0.00  0.00    -0.131 NA
ATOM      8  C   UNL     1       8.377   1.062  34.176  0.00  0.00    +0.120 A 
ATOM      9  C   UNL     1       7.468   0.080  34.502  0.00  0.00    +0.137 A 
ATOM     10  N   UNL     1       7.120  -0.457  33.299  0.00  0.00    -0.250 N 
ATOM     11  N   UNL     1       7.774   0.139  32.289  0.00  0.00    -0.065 NA
BRANCH  10  12
ATOM     12  C   UNL     1       6.178  -1.525  33.035  0.00  0.00    +0.164 C 
BRANCH  12  13
ATOM     13  C   UNL     1       5.797  -1.577  31.564  0.00  0.00    +0.129 C 
BRANCH  13  14
ATOM     14  N   UNL     1       5.203  -0.352  31.044  0.00  0.00    -0.298 N 
ATOM     15  H   UNL     1       5.597   0.549  31.273  0.00  0.00    +0.150 HD
ATOM     16  C   UNL     1       3.902  -0.390  30.619  0.00  0.00    +0.300 C 
ATOM     17  O   UNL     1       3.251  -1.431  30.565  0.00  0.00    -0.253 OA
ATOM     18  N   UNL     1       3.400   0.815  30.236  0.00  0.00    -0.292 N 
ATOM     19  H   UNL     1       3.922   1.676  30.320  0.00  0.00    +0.151 HD
BRANCH  18  20
ATOM     20  C   UNL     1       2.036   0.878  29.765  0.00  0.00    +0.180 C 
BRANCH  20  21
ATOM     21  C   UNL     1       1.890   1.607  28.480  0.00  0.00    +0.122 A 
ATOM     22  O   UNL     1       1.797   2.971  28.497  0.00  0.00    -0.466 OA
ATOM     23  C   UNL     1       1.675   3.372  27.202  0.00  0.00    +0.195 A 
ATOM     24  C   UNL     1       1.684   2.290  26.353  0.00  0.00    +0.041 A 
ATOM     25  C   UNL     1       1.823   1.149  27.177  0.00  0.00    +0.046 A 
ENDBRANCH  20  21
ENDBRANCH  18  20
ENDBRANCH  13  14
ENDBRANCH  12  13
ENDBRANCH  10  12
ENDBRANCH   6   8
ENDBRANCH   5   6
ENDBRANCH   1   5
BRANCH   3  26
ATOM     26  C   UNL     1       7.982   5.714  35.979  0.00  0.00    +0.141 C 
BRANCH  26  27
ATOM     27  C   UNL     1       7.181   6.181  34.768  0.00  0.00    +0.163 C 
BRANCH  27  28
ATOM     28  O   UNL     1       7.349   5.256  33.681  0.00  0.00    -0.388 OA
ATOM     29  H   UNL     1       7.857   4.498  33.980  0.00  0.00    +0.210 HD
ENDBRANCH  27  28
BRANCH  27  30
ATOM     30  C   UNL     1       5.697   6.312  35.153  0.00  0.00    +0.175 C 
BRANCH  30  31
ATOM     31  C   UNL     1       4.935   4.990  34.980  0.00  0.00    +0.176 C 
ATOM     32  O   UNL     1       4.281   5.018  33.682  0.00  0.00    -0.332 OA
ATOM     33  C   UNL     1       3.586   3.786  33.295  0.00  0.00    +0.277 C 
ATOM     34  C   UNL     1       2.568   3.374  34.386  0.00  0.00    +0.110 C 
ATOM     35  C   UNL     1       3.211   3.360  35.789  0.00  0.00    +0.143 C 
ATOM     36  C   UNL     1       3.907   4.689  36.086  0.00  0.00    +0.133 C 
BRANCH  36  37
ATOM     37  N   UNL     1       4.589   4.633  37.389  0.00  0.00    -0.308 N 
ATOM     38  H   UNL     1       5.372   4.002  37.485  0.00  0.00    +0.149 HD
ATOM     39  C   UNL     1       4.242   5.362  38.452  0.00  0.00    +0.210 C 
ATOM     40  C   UNL     1       3.028   6.296  38.282  0.00  0.00    +0.109 C 
ATOM     41  O   UNL     1       4.841   5.306  39.527  0.00  0.00    -0.276 OA
ENDBRANCH  36  37
BRANCH  33  42
ATOM     42  C   UNL     1       4.593   2.639  33.069  0.00  0.00    +0.414 C 
ATOM     43  O   UNL     1       4.283   1.479  33.341  0.00  0.00    -0.240 OA
ATOM     44  O   UNL     1       5.714   2.872  32.616  0.00  0.00    -0.240 OA
ENDBRANCH  33  42
BRANCH  35  45
ATOM     45  O   UNL     1       2.207   3.124  36.777  0.00  0.00    -0.390 OA
ATOM     46  H   UNL     1       1.542   3.815  36.729  0.00  0.00    +0.210 HD
ENDBRANCH  35  45
BRANCH  33  47
ATOM     47  O   UNL     1       2.860   4.047  32.067  0.00  0.00    -0.343 OA
ATOM     48  C   UNL     1       1.460   3.669  32.091  0.00  0.00    +0.198 C 
ENDBRANCH  33  47
ENDBRANCH  30  31
BRANCH  30  49
ATOM     49  O   UNL     1       5.072   7.351  34.373  0.00  0.00    -0.387 OA
ATOM     50  H   UNL     1       5.517   7.428  33.526  0.00  0.00    +0.210 HD
ENDBRANCH  30  49
ENDBRANCH  27  30
ENDBRANCH  26  27
ENDBRANCH   3  26
TORSDOF 18
