REMARK VINA RESULT:    -6.374     11.824     19.056
REMARK INTER + INTRA:         -14.011
REMARK INTER:                 -11.889
REMARK INTRA:                  -2.122
REMARK UNBOUND:                -2.608
REMARK  Name = lig_assembled_4.pdb
REMARK  19 active torsions:
REMARK  status: ('A' for Active; 'I' for Inactive)
REMARK    1  A    between atoms: _2  and  _9
REMARK    2  A    between atoms: _4  and  _21
REMARK    3  A    between atoms: _6  and  _7
REMARK    4  A    between atoms: _6  and  _21
REMARK    5  A    between atoms: _10  and  _11
REMARK    6  A    between atoms: _11  and  _12
REMARK    7  A    between atoms: _11  and  _13
REMARK    8  A    between atoms: _17  and  _37
REMARK    9  A    between atoms: _19  and  _25
REMARK   10  A    between atoms: _20  and  _24
REMARK   11  A    between atoms: _24  and  _25
REMARK   12  A    between atoms: _27  and  _28
REMARK   13  A    between atoms: _29  and  _30
REMARK   14  A    between atoms: _31  and  _33
REMARK   15  A    between atoms: _33  and  _34
REMARK   16  A    between atoms: _33  and  _35
REMARK   17  A    between atoms: _35  and  _36
REMARK   18  A    between atoms: _35  and  _37
REMARK   19  A    between atoms: _38  and  _40
REMARK                            x       y       z     vdW  Elec       q    Type
REMARK                         _______ _______ _______ _____ _____    ______ ____
ROOT
ATOM      1  C   UNL     1      -2.095   8.419  13.397  0.00  0.00    +0.163 C 
ENDROOT
BRANCH   1   2
ATOM      2  O   UNL     1      -2.339   8.352  11.982  0.00  0.00    -0.388 OA
ATOM      3  H   UNL     1      -2.278   9.233  11.605  0.00  0.00    +0.210 HD
ENDBRANCH   1   2
BRANCH   1   4
ATOM      4  C   UNL     1      -2.412   7.074  14.044  0.00  0.00    +0.141 C 
BRANCH   4   7
ATOM      5  C   UNL     1      -1.889   6.337  16.343  0.00  0.00    +0.401 C 
ATOM      6  O   UNL     1      -3.069   6.163  16.657  0.00  0.00    -0.226 OA
ATOM      7  N   UNL     1      -1.492   6.767  15.145  0.00  0.00    -0.279 N 
ATOM      8  H   UNL     1      -0.501   6.887  14.986  0.00  0.00    +0.152 HD
BRANCH   5   9
ATOM      9  O   UNL     1      -0.868   6.071  17.309  0.00  0.00    -0.444 OA
BRANCH   9  10
ATOM     10  C   UNL     1      -1.099   4.795  17.910  0.00  0.00    +0.292 C 
BRANCH  10  12
ATOM     11  N   UNL     1       1.126   3.952  18.565  0.00  0.00    -0.131 NA
ATOM     12  C   UNL     1      -0.067   4.500  18.921  0.00  0.00    +0.121 A 
ATOM     13  C   UNL     1      -0.101   4.658  20.288  0.00  0.00    +0.143 A 
ATOM     14  N   UNL     1       1.060   4.062  20.743  0.00  0.00    -0.219 N 
ATOM     15  N   UNL     1       1.812   3.715  19.675  0.00  0.00    -0.060 NA
BRANCH  14  16
ATOM     16  C   UNL     1       1.434   3.810  22.097  0.00  0.00    +0.070 A 
ATOM     17  C   UNL     1       1.497   2.505  22.659  0.00  0.00    -0.019 A 
ATOM     18  C   UNL     1       1.851   2.401  24.023  0.00  0.00    +0.006 A 
ATOM     19  C   UNL     1       2.120   3.523  24.809  0.00  0.00    +0.000 A 
ATOM     20  C   UNL     1       2.063   4.789  24.247  0.00  0.00    +0.002 A 
ATOM     21  C   UNL     1       1.721   4.933  22.904  0.00  0.00    +0.028 A 
BRANCH  17  22
ATOM     22  C   UNL     1       1.196   1.219  21.888  0.00  0.00    +0.015 C 
ATOM     23  C   UNL     1      -0.272   1.035  21.474  0.00  0.00    +0.012 C 
ATOM     24  C   UNL     1       1.663   0.005  22.696  0.00  0.00    +0.012 C 
ENDBRANCH  17  22
ENDBRANCH  14  16
ENDBRANCH  10  12
ENDBRANCH   9  10
ENDBRANCH   5   9
ENDBRANCH   4   7
ENDBRANCH   1   4
BRANCH   1  25
ATOM     25  C   UNL     1      -2.949   9.518  14.051  0.00  0.00    +0.175 C 
BRANCH  25  26
ATOM     26  C   UNL     1      -3.209  10.693  13.096  0.00  0.00    +0.176 C 
ATOM     27  O   UNL     1      -1.931  11.108  12.540  0.00  0.00    -0.332 OA
ATOM     28  C   UNL     1      -1.995  12.158  11.519  0.00  0.00    +0.277 C 
ATOM     29  C   UNL     1      -2.755  13.393  12.060  0.00  0.00    +0.110 C 
ATOM     30  C   UNL     1      -4.107  12.998  12.691  0.00  0.00    +0.143 C 
ATOM     31  C   UNL     1      -3.924  11.897  13.736  0.00  0.00    +0.133 C 
BRANCH  31  32
ATOM     32  N   UNL     1      -5.228  11.469  14.267  0.00  0.00    -0.308 N 
ATOM     33  H   UNL     1      -5.877  11.032  13.628  0.00  0.00    +0.149 HD
ATOM     34  C   UNL     1      -5.610  11.620  15.538  0.00  0.00    +0.210 C 
ATOM     35  C   UNL     1      -4.609  12.314  16.481  0.00  0.00    +0.109 C 
ATOM     36  O   UNL     1      -6.703  11.238  15.958  0.00  0.00    -0.276 OA
ENDBRANCH  31  32
BRANCH  28  37
ATOM     37  C   UNL     1      -2.693  11.640  10.245  0.00  0.00    +0.414 C 
ATOM     38  O   UNL     1      -2.682  10.439   9.976  0.00  0.00    -0.240 OA
ATOM     39  O   UNL     1      -3.268  12.422   9.486  0.00  0.00    -0.240 OA
ENDBRANCH  28  37
BRANCH  30  40
ATOM     40  O   UNL     1      -4.702  14.140  13.309  0.00  0.00    -0.390 OA
ATOM     41  H   UNL     1      -5.057  13.892  14.166  0.00  0.00    +0.210 HD
ENDBRANCH  30  40
BRANCH  28  42
ATOM     42  O   UNL     1      -0.637  12.559  11.202  0.00  0.00    -0.343 OA
ATOM     43  C   UNL     1      -0.338  13.956  11.450  0.00  0.00    +0.198 C 
ENDBRANCH  28  42
ENDBRANCH  25  26
BRANCH  25  44
ATOM     44  O   UNL     1      -2.314   9.989  15.257  0.00  0.00    -0.387 OA
ATOM     45  H   UNL     1      -1.533   9.460  15.435  0.00  0.00    +0.210 HD
ENDBRANCH  25  44
ENDBRANCH   1  25
TORSDOF 15
