REMARK VINA RESULT:    -5.977      2.049      3.626
REMARK INTER + INTRA:         -15.011
REMARK INTER:                 -12.565
REMARK INTRA:                  -2.446
REMARK UNBOUND:                -3.269
REMARK  Name = lig_assembled_84.pdb
REMARK  21 active torsions:
REMARK  status: ('A' for Active; 'I' for Inactive)
REMARK    1  A    between atoms: _2  and  _11
REMARK    2  A    between atoms: _3  and  _14
REMARK    3  A    between atoms: _4  and  _17
REMARK    4  A    between atoms: _6  and  _28
REMARK    5  A    between atoms: _8  and  _9
REMARK    6  A    between atoms: _8  and  _28
REMARK    7  A    between atoms: _11  and  _12
REMARK    8  A    between atoms: _12  and  _13
REMARK    9  A    between atoms: _12  and  _14
REMARK   10  A    between atoms: _24  and  _44
REMARK   11  A    between atoms: _26  and  _32
REMARK   12  A    between atoms: _27  and  _31
REMARK   13  A    between atoms: _31  and  _32
REMARK   14  A    between atoms: _34  and  _35
REMARK   15  A    between atoms: _36  and  _37
REMARK   16  A    between atoms: _38  and  _40
REMARK   17  A    between atoms: _40  and  _41
REMARK   18  A    between atoms: _40  and  _42
REMARK   19  A    between atoms: _42  and  _43
REMARK   20  A    between atoms: _42  and  _44
REMARK   21  A    between atoms: _45  and  _47
REMARK                            x       y       z     vdW  Elec       q    Type
REMARK                         _______ _______ _______ _____ _____    ______ ____
ROOT
ATOM      1  C   UNL     1       3.029   1.406  33.938  0.00  0.00    +0.401 C 
ATOM      2  O   UNL     1       3.080   0.311  34.501  0.00  0.00    -0.226 OA
ATOM      3  N   UNL     1       4.086   2.196  33.746  0.00  0.00    -0.279 N 
ATOM      4  H   UNL     1       3.945   3.073  33.264  0.00  0.00    +0.152 HD
ENDROOT
BRANCH   1   5
ATOM      5  O   UNL     1       1.770   1.876  33.447  0.00  0.00    -0.444 OA
BRANCH   5   6
ATOM      6  C   UNL     1       1.850   3.282  33.197  0.00  0.00    +0.292 C 
BRANCH   6   8
ATOM      7  N   UNL     1       0.486   4.514  31.533  0.00  0.00    -0.131 NA
ATOM      8  C   UNL     1       1.461   3.590  31.808  0.00  0.00    +0.120 A 
ATOM      9  C   UNL     1       1.913   3.049  30.626  0.00  0.00    +0.137 A 
ATOM     10  N   UNL     1       1.130   3.634  29.676  0.00  0.00    -0.251 N 
ATOM     11  N   UNL     1       0.290   4.531  30.221  0.00  0.00    -0.065 NA
BRANCH  10  12
ATOM     12  C   UNL     1       1.035   3.291  28.270  0.00  0.00    +0.149 C 
BRANCH  12  13
ATOM     13  C   UNL     1       0.760   1.802  27.998  0.00  0.00    +0.021 C 
ATOM     14  C   UNL     1      -0.665   1.413  28.419  0.00  0.00    +0.010 C 
BRANCH  13  15
ATOM     15  C   UNL     1       0.949   1.461  26.500  0.00  0.00    +0.089 C 
BRANCH  15  16
ATOM     16  N   UNL     1       0.820   2.591  25.570  0.00  0.00    -0.299 NA
ATOM     17  C   UNL     1      -0.312   2.354  24.635  0.00  0.00    +0.103 C 
ATOM     18  C   UNL     1      -0.538   3.557  23.695  0.00  0.00    +0.120 C 
ATOM     19  N   UNL     1       0.687   3.823  22.931  0.00  0.00    -0.327 N 
ATOM     20  C   UNL     1       1.886   4.017  23.759  0.00  0.00    +0.120 C 
ATOM     21  C   UNL     1       2.042   2.835  24.761  0.00  0.00    +0.103 C 
BRANCH  19  22
ATOM     22  C   UNL     1       0.697   3.936  21.560  0.00  0.00    +0.030 A 
ATOM     23  C   UNL     1      -0.437   4.379  20.855  0.00  0.00    +0.024 A 
ATOM     24  C   UNL     1      -0.453   4.476  19.459  0.00  0.00    +0.022 A 
ATOM     25  C   UNL     1       0.677   4.135  18.735  0.00  0.00    +0.041 A 
ATOM     26 CL   UNL     1       0.663   4.247  17.018  0.00  0.00    -0.084 Cl
ATOM     27  C   UNL     1       1.820   3.696  19.394  0.00  0.00    +0.022 A 
ATOM     28  C   UNL     1       1.821   3.597  20.793  0.00  0.00    +0.024 A 
ENDBRANCH  19  22
ENDBRANCH  15  16
ENDBRANCH  13  15
ENDBRANCH  12  13
ENDBRANCH  10  12
ENDBRANCH   6   8
ENDBRANCH   5   6
ENDBRANCH   1   5
BRANCH   3  29
ATOM     29  C   UNL     1       5.443   1.864  34.197  0.00  0.00    +0.141 C 
BRANCH  29  30
ATOM     30  C   UNL     1       6.447   1.900  33.050  0.00  0.00    +0.163 C 
BRANCH  30  31
ATOM     31  O   UNL     1       5.759   2.059  31.798  0.00  0.00    -0.388 OA
ATOM     32  H   UNL     1       5.623   2.993  31.624  0.00  0.00    +0.210 HD
ENDBRANCH  30  31
BRANCH  30  33
ATOM     33  C   UNL     1       7.447   3.047  33.278  0.00  0.00    +0.175 C 
BRANCH  33  34
ATOM     34  C   UNL     1       7.112   3.865  34.534  0.00  0.00    +0.176 C 
ATOM     35  O   UNL     1       6.819   5.226  34.116  0.00  0.00    -0.332 OA
ATOM     36  C   UNL     1       6.371   6.133  35.177  0.00  0.00    +0.277 C 
ATOM     37  C   UNL     1       7.394   6.151  36.340  0.00  0.00    +0.110 C 
ATOM     38  C   UNL     1       7.761   4.724  36.798  0.00  0.00    +0.143 C 
ATOM     39  C   UNL     1       8.210   3.866  35.614  0.00  0.00    +0.133 C 
BRANCH  39  40
ATOM     40  N   UNL     1       8.473   2.485  36.048  0.00  0.00    -0.308 N 
ATOM     41  H   UNL     1       7.725   1.984  36.507  0.00  0.00    +0.149 HD
ATOM     42  C   UNL     1       9.636   1.851  35.877  0.00  0.00    +0.210 C 
ATOM     43  C   UNL     1      10.764   2.651  35.198  0.00  0.00    +0.109 C 
ATOM     44  O   UNL     1       9.824   0.689  36.238  0.00  0.00    -0.276 OA
ENDBRANCH  39  40
BRANCH  36  45
ATOM     45  C   UNL     1       4.989   5.708  35.714  0.00  0.00    +0.414 C 
ATOM     46  O   UNL     1       4.225   5.051  35.007  0.00  0.00    -0.240 OA
ATOM     47  O   UNL     1       4.638   6.021  36.852  0.00  0.00    -0.240 OA
ENDBRANCH  36  45
BRANCH  36  48
ATOM     48  O   UNL     1       6.289   7.470  34.620  0.00  0.00    -0.343 OA
ATOM     49  C   UNL     1       7.566   8.097  34.340  0.00  0.00    +0.198 C 
ENDBRANCH  36  48
BRANCH  38  50
ATOM     50  O   UNL     1       8.814   4.783  37.761  0.00  0.00    -0.390 OA
ATOM     51  H   UNL     1       8.484   5.177  38.572  0.00  0.00    +0.210 HD
ENDBRANCH  38  50
ENDBRANCH  33  34
BRANCH  33  52
ATOM     52  O   UNL     1       7.488   3.907  32.121  0.00  0.00    -0.387 OA
ATOM     53  H   UNL     1       8.384   4.225  31.990  0.00  0.00    +0.210 HD
ENDBRANCH  33  52
ENDBRANCH  30  33
ENDBRANCH  29  30
ENDBRANCH   3  29
TORSDOF 18
