REMARK VINA RESULT:    -6.296      5.346      6.367
REMARK INTER + INTRA:         -13.185
REMARK INTER:                 -11.793
REMARK INTRA:                  -1.392
REMARK UNBOUND:                -1.736
REMARK  Name = lig_assembled_59.pdb
REMARK  18 active torsions:
REMARK  status: ('A' for Active; 'I' for Inactive)
REMARK    1  A    between atoms: _2  and  _10
REMARK    2  A    between atoms: _5  and  _20
REMARK    3  A    between atoms: _7  and  _8
REMARK    4  A    between atoms: _7  and  _20
REMARK    5  A    between atoms: _13  and  _14
REMARK    6  A    between atoms: _14  and  _15
REMARK    7  A    between atoms: _16  and  _36
REMARK    8  A    between atoms: _18  and  _24
REMARK    9  A    between atoms: _19  and  _23
REMARK   10  A    between atoms: _23  and  _24
REMARK   11  A    between atoms: _26  and  _27
REMARK   12  A    between atoms: _28  and  _29
REMARK   13  A    between atoms: _30  and  _32
REMARK   14  A    between atoms: _32  and  _33
REMARK   15  A    between atoms: _32  and  _34
REMARK   16  A    between atoms: _34  and  _35
REMARK   17  A    between atoms: _34  and  _36
REMARK   18  A    between atoms: _37  and  _39
REMARK                            x       y       z     vdW  Elec       q    Type
REMARK                         _______ _______ _______ _____ _____    ______ ____
ROOT
ATOM      1  C   UNL     1       7.489   2.554  34.344  0.00  0.00    +0.163 C 
ENDROOT
BRANCH   1   2
ATOM      2  O   UNL     1       7.923   2.481  35.712  0.00  0.00    -0.388 OA
ATOM      3  H   UNL     1       8.855   2.709  35.766  0.00  0.00    +0.210 HD
ENDBRANCH   1   2
BRANCH   1   4
ATOM      4  C   UNL     1       7.819   3.928  33.736  0.00  0.00    +0.175 C 
BRANCH   4   5
ATOM      5  C   UNL     1       7.192   5.080  34.536  0.00  0.00    +0.176 C 
ATOM      6  O   UNL     1       7.938   5.219  35.777  0.00  0.00    -0.332 OA
ATOM      7  C   UNL     1       7.546   6.346  36.629  0.00  0.00    +0.277 C 
ATOM      8  C   UNL     1       6.028   6.292  36.933  0.00  0.00    +0.110 C 
ATOM      9  C   UNL     1       5.196   6.113  35.646  0.00  0.00    +0.143 C 
ATOM     10  C   UNL     1       5.691   4.915  34.835  0.00  0.00    +0.133 C 
BRANCH  10  11
ATOM     11  N   UNL     1       4.947   4.806  33.570  0.00  0.00    -0.308 N 
ATOM     12  H   UNL     1       5.119   5.505  32.861  0.00  0.00    +0.149 HD
ATOM     13  C   UNL     1       4.060   3.845  33.299  0.00  0.00    +0.210 C 
ATOM     14  C   UNL     1       3.801   2.811  34.411  0.00  0.00    +0.109 C 
ATOM     15  O   UNL     1       3.462   3.771  32.224  0.00  0.00    -0.276 OA
ENDBRANCH  10  11
BRANCH   7  16
ATOM     16  C   UNL     1       7.889   7.689  35.951  0.00  0.00    +0.414 C 
ATOM     17  O   UNL     1       7.868   7.788  34.725  0.00  0.00    -0.240 OA
ATOM     18  O   UNL     1       8.185   8.673  36.630  0.00  0.00    -0.240 OA
ENDBRANCH   7  16
BRANCH   7  19
ATOM     19  O   UNL     1       8.268   6.233  37.883  0.00  0.00    -0.343 OA
ATOM     20  C   UNL     1       9.598   5.668  37.774  0.00  0.00    +0.198 C 
ENDBRANCH   7  19
BRANCH   9  21
ATOM     21  O   UNL     1       3.822   5.917  35.985  0.00  0.00    -0.390 OA
ATOM     22  H   UNL     1       3.691   5.013  36.282  0.00  0.00    +0.210 HD
ENDBRANCH   9  21
ENDBRANCH   4   5
BRANCH   4  23
ATOM     23  O   UNL     1       7.381   3.982  32.364  0.00  0.00    -0.387 OA
ATOM     24  H   UNL     1       7.886   3.354  31.841  0.00  0.00    +0.210 HD
ENDBRANCH   4  23
ENDBRANCH   1   4
BRANCH   1  25
ATOM     25  C   UNL     1       8.163   1.459  33.524  0.00  0.00    +0.141 C 
BRANCH  25  28
ATOM     26  C   UNL     1       6.211   0.517  32.337  0.00  0.00    +0.401 C 
ATOM     27  O   UNL     1       5.937   1.569  31.756  0.00  0.00    -0.226 OA
ATOM     28  N   UNL     1       7.230   0.377  33.186  0.00  0.00    -0.279 N 
ATOM     29  H   UNL     1       7.369  -0.525  33.620  0.00  0.00    +0.152 HD
BRANCH  26  30
ATOM     30  O   UNL     1       5.398  -0.637  32.105  0.00  0.00    -0.444 OA
BRANCH  30  31
ATOM     31  C   UNL     1       4.799  -0.546  30.810  0.00  0.00    +0.292 C 
BRANCH  31  33
ATOM     32  N   UNL     1       6.940  -1.533  30.068  0.00  0.00    -0.131 NA
ATOM     33  C   UNL     1       5.627  -1.250  29.813  0.00  0.00    +0.121 A 
ATOM     34  C   UNL     1       5.302  -1.715  28.559  0.00  0.00    +0.145 A 
ATOM     35  N   UNL     1       6.462  -2.283  28.083  0.00  0.00    -0.202 N 
ATOM     36  N   UNL     1       7.441  -2.165  29.015  0.00  0.00    -0.059 NA
BRANCH  35  37
ATOM     37  C   UNL     1       6.665  -2.896  26.817  0.00  0.00    +0.156 A 
ATOM     38  C   UNL     1       7.742  -2.489  26.032  0.00  0.00    +0.048 A 
ATOM     39  C   UNL     1       7.911  -3.065  24.774  0.00  0.00    +0.011 A 
ATOM     40  C   UNL     1       7.014  -4.036  24.325  0.00  0.00    -0.004 A 
ATOM     41  C   UNL     1       5.969  -4.380  25.178  0.00  0.00    +0.119 A 
ATOM     42  N   UNL     1       5.779  -3.845  26.408  0.00  0.00    -0.236 NA
BRANCH  40  43
ATOM     43  C   UNL     1       7.123  -4.600  22.939  0.00  0.00    +0.192 C 
BRANCH  43  44
ATOM     44  O   UNL     1       6.819  -5.987  22.919  0.00  0.00    -0.390 OA
ATOM     45  H   UNL     1       7.564  -6.434  22.480  0.00  0.00    +0.210 HD
ENDBRANCH  43  44
ENDBRANCH  40  43
ENDBRANCH  35  37
ENDBRANCH  31  33
ENDBRANCH  30  31
ENDBRANCH  26  30
ENDBRANCH  25  28
ENDBRANCH   1  25
TORSDOF 16
