REMARK VINA RESULT:    -5.383     20.141     24.418
REMARK INTER + INTRA:         -12.597
REMARK INTER:                 -10.555
REMARK INTRA:                  -2.042
REMARK UNBOUND:                -2.810
REMARK  Name = lig_assembled_53.pdb
REMARK  18 active torsions:
REMARK  status: ('A' for Active; 'I' for Inactive)
REMARK    1  A    between atoms: _2  and  _9
REMARK    2  A    between atoms: _4  and  _16
REMARK    3  A    between atoms: _5  and  _9
REMARK    4  A    between atoms: _5  and  _10
REMARK    5  A    between atoms: _6  and  _7
REMARK    6  A    between atoms: _6  and  _16
REMARK    7  A    between atoms: _12  and  _32
REMARK    8  A    between atoms: _14  and  _20
REMARK    9  A    between atoms: _15  and  _19
REMARK   10  A    between atoms: _19  and  _20
REMARK   11  A    between atoms: _22  and  _23
REMARK   12  A    between atoms: _24  and  _25
REMARK   13  A    between atoms: _26  and  _28
REMARK   14  A    between atoms: _28  and  _29
REMARK   15  A    between atoms: _28  and  _30
REMARK   16  A    between atoms: _30  and  _31
REMARK   17  A    between atoms: _30  and  _32
REMARK   18  A    between atoms: _33  and  _35
REMARK                            x       y       z     vdW  Elec       q    Type
REMARK                         _______ _______ _______ _____ _____    ______ ____
ROOT
ATOM      1  C   UNL     1       9.035  26.112  27.064  0.00  0.00    +0.175 C 
ENDROOT
BRANCH   1   2
ATOM      2  C   UNL     1       8.120  25.590  25.946  0.00  0.00    +0.176 C 
ATOM      3  O   UNL     1       8.863  25.645  24.698  0.00  0.00    -0.332 OA
ATOM      4  C   UNL     1       8.180  25.083  23.528  0.00  0.00    +0.277 C 
ATOM      5  C   UNL     1       6.794  25.747  23.341  0.00  0.00    +0.110 C 
ATOM      6  C   UNL     1       5.978  25.741  24.651  0.00  0.00    +0.143 C 
ATOM      7  C   UNL     1       6.784  26.344  25.802  0.00  0.00    +0.133 C 
BRANCH   7   8
ATOM      8  N   UNL     1       6.030  26.254  27.062  0.00  0.00    -0.308 N 
ATOM      9  H   UNL     1       5.800  25.333  27.409  0.00  0.00    +0.149 HD
ATOM     10  C   UNL     1       5.631  27.309  27.778  0.00  0.00    +0.210 C 
ATOM     11  C   UNL     1       5.975  28.698  27.209  0.00  0.00    +0.109 C 
ATOM     12  O   UNL     1       5.013  27.203  28.838  0.00  0.00    -0.276 OA
ENDBRANCH   7   8
BRANCH   4  13
ATOM     13  C   UNL     1       8.006  23.558  23.677  0.00  0.00    +0.414 C 
ATOM     14  O   UNL     1       8.763  22.915  24.404  0.00  0.00    -0.240 OA
ATOM     15  O   UNL     1       7.110  22.970  23.071  0.00  0.00    -0.240 OA
ENDBRANCH   4  13
BRANCH   4  16
ATOM     16  O   UNL     1       8.987  25.371  22.357  0.00  0.00    -0.343 OA
ATOM     17  C   UNL     1      10.414  25.187  22.536  0.00  0.00    +0.198 C 
ENDBRANCH   4  16
BRANCH   6  18
ATOM     18  O   UNL     1       4.777  26.492  24.474  0.00  0.00    -0.390 OA
ATOM     19  H   UNL     1       4.018  25.919  24.604  0.00  0.00    +0.210 HD
ENDBRANCH   6  18
ENDBRANCH   1   2
BRANCH   1  20
ATOM     20  O   UNL     1      10.173  26.792  26.498  0.00  0.00    -0.387 OA
ATOM     21  H   UNL     1      10.249  26.568  25.567  0.00  0.00    +0.210 HD
ENDBRANCH   1  20
BRANCH   1  22
ATOM     22  C   UNL     1       9.503  24.986  28.002  0.00  0.00    +0.163 C 
BRANCH  22  23
ATOM     23  O   UNL     1       8.674  24.916  29.174  0.00  0.00    -0.388 OA
ATOM     24  H   UNL     1       8.168  24.101  29.161  0.00  0.00    +0.210 HD
ENDBRANCH  22  23
BRANCH  22  25
ATOM     25  C   UNL     1      10.954  25.227  28.403  0.00  0.00    +0.141 C 
BRANCH  25  28
ATOM     26  C   UNL     1      12.375  24.080  26.738  0.00  0.00    +0.401 C 
ATOM     27  O   UNL     1      12.187  24.923  25.858  0.00  0.00    -0.226 OA
ATOM     28  N   UNL     1      11.833  24.140  27.955  0.00  0.00    -0.279 N 
ATOM     29  H   UNL     1      12.040  23.395  28.606  0.00  0.00    +0.152 HD
BRANCH  26  30
ATOM     30  O   UNL     1      13.218  22.960  26.458  0.00  0.00    -0.444 OA
BRANCH  30  31
ATOM     31  C   UNL     1      14.547  23.417  26.189  0.00  0.00    +0.292 C 
BRANCH  31  33
ATOM     32  N   UNL     1      14.759  21.506  24.627  0.00  0.00    -0.131 NA
ATOM     33  C   UNL     1      15.065  22.800  24.954  0.00  0.00    +0.120 A 
ATOM     34  C   UNL     1      15.876  23.331  23.976  0.00  0.00    +0.137 A 
ATOM     35  N   UNL     1      16.082  22.295  23.116  0.00  0.00    -0.241 N 
ATOM     36  N   UNL     1      15.370  21.213  23.487  0.00  0.00    -0.065 NA
BRANCH  35  37
ATOM     37  C   UNL     1      16.787  22.254  21.851  0.00  0.00    +0.265 C 
BRANCH  37  38
ATOM     38  C   UNL     1      16.901  20.892  21.221  0.00  0.00    +0.326 C 
ATOM     39  O   UNL     1      17.872  20.150  21.255  0.00  0.00    -0.249 OA
BRANCH  38  40
ATOM     40  O   UNL     1      15.773  20.530  20.556  0.00  0.00    -0.479 OA
ATOM     41  H   UNL     1      15.062  21.199  20.525  0.00  0.00    +0.295 HD
ENDBRANCH  38  40
ENDBRANCH  37  38
ENDBRANCH  35  37
ENDBRANCH  31  33
ENDBRANCH  30  31
ENDBRANCH  26  30
ENDBRANCH  25  28
ENDBRANCH  22  25
ENDBRANCH   1  22
TORSDOF 16
