REMARK VINA RESULT:    -6.766      6.008     11.332
REMARK INTER + INTRA:         -14.224
REMARK INTER:                 -11.177
REMARK INTRA:                  -3.046
REMARK UNBOUND:                -1.921
REMARK  Name = lig_assembled_23.pdb
REMARK  18 active torsions:
REMARK  status: ('A' for Active; 'I' for Inactive)
REMARK    1  A    between atoms: _2  and  _10
REMARK    2  A    between atoms: _3  and  _41
REMARK    3  A    between atoms: _5  and  _21
REMARK    4  A    between atoms: _7  and  _8
REMARK    5  A    between atoms: _7  and  _21
REMARK    6  A    between atoms: _12  and  _41
REMARK    7  A    between atoms: _17  and  _37
REMARK    8  A    between atoms: _19  and  _25
REMARK    9  A    between atoms: _20  and  _24
REMARK   10  A    between atoms: _24  and  _25
REMARK   11  A    between atoms: _27  and  _28
REMARK   12  A    between atoms: _29  and  _30
REMARK   13  A    between atoms: _31  and  _33
REMARK   14  A    between atoms: _33  and  _34
REMARK   15  A    between atoms: _33  and  _35
REMARK   16  A    between atoms: _35  and  _36
REMARK   17  A    between atoms: _35  and  _37
REMARK   18  A    between atoms: _38  and  _40
REMARK                            x       y       z     vdW  Elec       q    Type
REMARK                         _______ _______ _______ _____ _____    ______ ____
ROOT
ATOM      1  C   UNL     1      17.148   3.007  21.417  0.00  0.00    +0.141 C 
ENDROOT
BRANCH   1   4
ATOM      2  C   UNL     1      18.308   0.858  21.044  0.00  0.00    +0.401 C 
ATOM      3  O   UNL     1      19.296   1.375  20.517  0.00  0.00    -0.226 OA
ATOM      4  N   UNL     1      17.255   1.545  21.489  0.00  0.00    -0.279 N 
ATOM      5  H   UNL     1      16.488   1.030  21.898  0.00  0.00    +0.152 HD
BRANCH   2   6
ATOM      6  O   UNL     1      18.265  -0.564  21.194  0.00  0.00    -0.444 OA
BRANCH   6   7
ATOM      7  C   UNL     1      18.654  -0.916  22.524  0.00  0.00    +0.292 C 
BRANCH   7   9
ATOM      8  N   UNL     1      16.458  -0.955  23.661  0.00  0.00    -0.131 NA
ATOM      9  C   UNL     1      17.558  -1.625  23.208  0.00  0.00    +0.121 A 
ATOM     10  C   UNL     1      17.420  -2.963  23.502  0.00  0.00    +0.143 A 
ATOM     11  N   UNL     1      16.202  -3.065  24.133  0.00  0.00    -0.220 N 
ATOM     12  N   UNL     1      15.642  -1.834  24.224  0.00  0.00    -0.060 NA
BRANCH  11  13
ATOM     13  C   UNL     1      15.559  -4.219  24.650  0.00  0.00    +0.069 A 
ATOM     14  C   UNL     1      15.261  -5.286  23.789  0.00  0.00    +0.056 A 
ATOM     15  C   UNL     1      14.595  -6.411  24.289  0.00  0.00    +0.107 A 
ATOM     16  C   UNL     1      14.247  -6.499  25.637  0.00  0.00    +0.028 A 
ATOM     17  C   UNL     1      14.558  -5.444  26.495  0.00  0.00    +0.004 A 
ATOM     18  C   UNL     1      15.208  -4.305  26.005  0.00  0.00    +0.028 A 
BRANCH  15  19
ATOM     19  S   UNL     1      14.174  -7.720  23.178  0.00  0.00    +0.056 S 
ATOM     20  O   UNL     1      14.467  -8.982  23.816  0.00  0.00    -0.153 OA
ATOM     21  O   UNL     1      12.899  -7.432  22.563  0.00  0.00    -0.153 OA
BRANCH  19  22
ATOM     22  N   UNL     1      15.312  -7.522  21.959  0.00  0.00    -0.204 NA
ATOM     23  H   UNL     1      15.394  -8.380  21.415  0.00  0.00    +0.144 HD
ATOM     24  H   UNL     1      16.194  -7.195  22.354  0.00  0.00    +0.144 HD
ENDBRANCH  19  22
ENDBRANCH  15  19
ENDBRANCH  11  13
ENDBRANCH   7   9
ENDBRANCH   6   7
ENDBRANCH   2   6
ENDBRANCH   1   4
BRANCH   1  25
ATOM     25  C   UNL     1      16.931   3.629  22.793  0.00  0.00    +0.163 C 
BRANCH  25  26
ATOM     26  O   UNL     1      16.009   2.832  23.553  0.00  0.00    -0.388 OA
ATOM     27  H   UNL     1      16.094   3.045  24.486  0.00  0.00    +0.210 HD
ENDBRANCH  25  26
BRANCH  25  28
ATOM     28  C   UNL     1      18.282   3.752  23.520  0.00  0.00    +0.175 C 
BRANCH  28  29
ATOM     29  C   UNL     1      18.458   2.672  24.598  0.00  0.00    +0.176 C 
ATOM     30  O   UNL     1      17.858   3.165  25.827  0.00  0.00    -0.332 OA
ATOM     31  C   UNL     1      17.837   2.219  26.946  0.00  0.00    +0.277 C 
ATOM     32  C   UNL     1      19.265   1.692  27.236  0.00  0.00    +0.110 C 
ATOM     33  C   UNL     1      19.956   1.187  25.952  0.00  0.00    +0.143 C 
ATOM     34  C   UNL     1      19.916   2.248  24.853  0.00  0.00    +0.133 C 
BRANCH  34  35
ATOM     35  N   UNL     1      20.500   1.724  23.608  0.00  0.00    -0.308 N 
ATOM     36  H   UNL     1      20.022   0.963  23.147  0.00  0.00    +0.149 HD
ATOM     37  C   UNL     1      21.621   2.187  23.048  0.00  0.00    +0.210 C 
ATOM     38  C   UNL     1      22.340   3.330  23.789  0.00  0.00    +0.109 C 
ATOM     39  O   UNL     1      22.079   1.738  21.997  0.00  0.00    -0.276 OA
ENDBRANCH  34  35
BRANCH  31  40
ATOM     40  C   UNL     1      16.901   1.031  26.642  0.00  0.00    +0.414 C 
ATOM     41  O   UNL     1      17.241  -0.116  26.930  0.00  0.00    -0.240 OA
ATOM     42  O   UNL     1      15.808   1.219  26.108  0.00  0.00    -0.240 OA
ENDBRANCH  31  40
BRANCH  33  43
ATOM     43  O   UNL     1      21.315   0.854  26.236  0.00  0.00    -0.390 OA
ATOM     44  H   UNL     1      21.896   1.362  25.666  0.00  0.00    +0.210 HD
ENDBRANCH  33  43
BRANCH  31  45
ATOM     45  O   UNL     1      17.363   2.925  28.122  0.00  0.00    -0.343 OA
ATOM     46  C   UNL     1      18.339   3.796  28.748  0.00  0.00    +0.198 C 
ENDBRANCH  31  45
ENDBRANCH  28  29
BRANCH  28  47
ATOM     47  O   UNL     1      18.414   5.063  24.104  0.00  0.00    -0.387 OA
ATOM     48  H   UNL     1      18.472   4.984  25.059  0.00  0.00    +0.210 HD
ENDBRANCH  28  47
ENDBRANCH  25  28
ENDBRANCH   1  25
TORSDOF 16
