REMARK VINA RESULT:    -5.861      4.092     10.741
REMARK INTER + INTRA:         -12.908
REMARK INTER:                 -10.514
REMARK INTRA:                  -2.395
REMARK UNBOUND:                -2.078
REMARK  Name = lig_assembled_14.pdb
REMARK  18 active torsions:
REMARK  status: ('A' for Active; 'I' for Inactive)
REMARK    1  A    between atoms: _2  and  _10
REMARK    2  A    between atoms: _3  and  _11
REMARK    3  A    between atoms: _5  and  _19
REMARK    4  A    between atoms: _7  and  _8
REMARK    5  A    between atoms: _7  and  _19
REMARK    6  A    between atoms: _10  and  _11
REMARK    7  A    between atoms: _15  and  _35
REMARK    8  A    between atoms: _17  and  _23
REMARK    9  A    between atoms: _18  and  _22
REMARK   10  A    between atoms: _22  and  _23
REMARK   11  A    between atoms: _25  and  _26
REMARK   12  A    between atoms: _27  and  _28
REMARK   13  A    between atoms: _29  and  _31
REMARK   14  A    between atoms: _31  and  _32
REMARK   15  A    between atoms: _31  and  _33
REMARK   16  A    between atoms: _33  and  _34
REMARK   17  A    between atoms: _33  and  _35
REMARK   18  A    between atoms: _36  and  _38
REMARK                            x       y       z     vdW  Elec       q    Type
REMARK                         _______ _______ _______ _____ _____    ______ ____
ROOT
ATOM      1  C   UNL     1      18.427  10.402  30.174  0.00  0.00    +0.163 C 
ENDROOT
BRANCH   1   2
ATOM      2  O   UNL     1      17.088  10.721  30.587  0.00  0.00    -0.388 OA
ATOM      3  H   UNL     1      16.778  10.060  31.211  0.00  0.00    +0.210 HD
ENDBRANCH   1   2
BRANCH   1   4
ATOM      4  C   UNL     1      18.682   8.887  30.261  0.00  0.00    +0.175 C 
BRANCH   4   5
ATOM      5  C   UNL     1      17.910   8.236  31.418  0.00  0.00    +0.176 C 
ATOM      6  O   UNL     1      17.952   9.145  32.551  0.00  0.00    -0.332 OA
ATOM      7  C   UNL     1      17.171   8.735  33.723  0.00  0.00    +0.277 C 
ATOM      8  C   UNL     1      17.585   7.313  34.177  0.00  0.00    +0.110 C 
ATOM      9  C   UNL     1      17.586   6.317  32.998  0.00  0.00    +0.143 C 
ATOM     10  C   UNL     1      18.425   6.845  31.834  0.00  0.00    +0.133 C 
BRANCH  10  11
ATOM     11  N   UNL     1      18.348   5.929  30.686  0.00  0.00    -0.308 N 
ATOM     12  H   UNL     1      17.471   5.871  30.186  0.00  0.00    +0.149 HD
ATOM     13  C   UNL     1      19.360   5.167  30.261  0.00  0.00    +0.210 C 
ATOM     14  C   UNL     1      20.674   5.258  31.060  0.00  0.00    +0.109 C 
ATOM     15  O   UNL     1      19.271   4.419  29.287  0.00  0.00    -0.276 OA
ENDBRANCH  10  11
BRANCH   7  16
ATOM     16  C   UNL     1      15.661   8.757  33.409  0.00  0.00    +0.414 C 
ATOM     17  O   UNL     1      14.941   7.822  33.757  0.00  0.00    -0.240 OA
ATOM     18  O   UNL     1      15.162   9.709  32.808  0.00  0.00    -0.240 OA
ENDBRANCH   7  16
BRANCH   9  19
ATOM     19  O   UNL     1      18.116   5.063  33.429  0.00  0.00    -0.390 OA
ATOM     20  H   UNL     1      19.031   4.988  33.149  0.00  0.00    +0.210 HD
ENDBRANCH   9  19
BRANCH   7  21
ATOM     21  O   UNL     1      17.460   9.661  34.801  0.00  0.00    -0.343 OA
ATOM     22  C   UNL     1      17.015   9.232  36.113  0.00  0.00    +0.198 C 
ENDBRANCH   7  21
ENDBRANCH   4   5
BRANCH   4  23
ATOM     23  O   UNL     1      20.094   8.629  30.399  0.00  0.00    -0.387 OA
ATOM     24  H   UNL     1      20.264   7.695  30.254  0.00  0.00    +0.210 HD
ENDBRANCH   4  23
ENDBRANCH   1   4
BRANCH   1  25
ATOM     25  C   UNL     1      18.660  10.877  28.744  0.00  0.00    +0.141 C 
BRANCH  25  28
ATOM     26  C   UNL     1      19.774   9.848  26.793  0.00  0.00    +0.401 C 
ATOM     27  O   UNL     1      20.373  10.878  26.474  0.00  0.00    -0.226 OA
ATOM     28  N   UNL     1      18.948   9.759  27.836  0.00  0.00    -0.279 N 
ATOM     29  H   UNL     1      18.495   8.873  28.012  0.00  0.00    +0.152 HD
BRANCH  26  30
ATOM     30  O   UNL     1      19.958   8.666  26.009  0.00  0.00    -0.444 OA
BRANCH  30  31
ATOM     31  C   UNL     1      18.927   7.724  26.317  0.00  0.00    +0.292 C 
BRANCH  31  33
ATOM     32  N   UNL     1      19.988   6.334  24.566  0.00  0.00    -0.131 NA
ATOM     33  C   UNL     1      19.222   6.418  25.699  0.00  0.00    +0.120 A 
ATOM     34  C   UNL     1      18.830   5.152  26.073  0.00  0.00    +0.137 A 
ATOM     35  N   UNL     1      19.378   4.347  25.121  0.00  0.00    -0.250 N 
ATOM     36  N   UNL     1      20.079   5.058  24.222  0.00  0.00    -0.065 NA
BRANCH  35  37
ATOM     37  C   UNL     1      19.234   2.915  24.968  0.00  0.00    +0.160 C 
BRANCH  37  38
ATOM     38  C   UNL     1      17.884   2.540  24.345  0.00  0.00    +0.107 C 
BRANCH  38  39
ATOM     39  N   UNL     1      17.897   2.584  22.873  0.00  0.00    -0.301 NA
ATOM     40  C   UNL     1      17.966   1.255  22.258  0.00  0.00    +0.084 C 
ATOM     41  C   UNL     1      17.552   1.534  20.827  0.00  0.00    +0.017 C 
ATOM     42  C   UNL     1      16.462   2.581  20.963  0.00  0.00    +0.017 C 
ATOM     43  C   UNL     1      16.681   3.212  22.336  0.00  0.00    +0.084 C 
ENDBRANCH  38  39
ENDBRANCH  37  38
ENDBRANCH  35  37
ENDBRANCH  31  33
ENDBRANCH  30  31
ENDBRANCH  26  30
ENDBRANCH  25  28
ENDBRANCH   1  25
TORSDOF 16
