REMARK VINA RESULT:    -6.554     14.080     15.585
REMARK INTER + INTRA:         -13.911
REMARK INTER:                 -12.393
REMARK INTRA:                  -1.518
REMARK UNBOUND:                -1.802
REMARK  Name = lig_assembled_36.pdb
REMARK  18 active torsions:
REMARK  status: ('A' for Active; 'I' for Inactive)
REMARK    1  A    between atoms: _2  and  _10
REMARK    2  A    between atoms: _5  and  _21
REMARK    3  A    between atoms: _7  and  _8
REMARK    4  A    between atoms: _7  and  _21
REMARK    5  A    between atoms: _10  and  _11
REMARK    6  A    between atoms: _14  and  _15
REMARK    7  A    between atoms: _17  and  _37
REMARK    8  A    between atoms: _19  and  _25
REMARK    9  A    between atoms: _20  and  _24
REMARK   10  A    between atoms: _24  and  _25
REMARK   11  A    between atoms: _27  and  _28
REMARK   12  A    between atoms: _29  and  _30
REMARK   13  A    between atoms: _31  and  _33
REMARK   14  A    between atoms: _33  and  _34
REMARK   15  A    between atoms: _33  and  _35
REMARK   16  A    between atoms: _35  and  _36
REMARK   17  A    between atoms: _35  and  _37
REMARK   18  A    between atoms: _38  and  _40
REMARK                            x       y       z     vdW  Elec       q    Type
REMARK                         _______ _______ _______ _____ _____    ______ ____
ROOT
ATOM      1  C   UNL     1       3.746   3.831  32.769  0.00  0.00    +0.163 C 
ENDROOT
BRANCH   1   2
ATOM      2  O   UNL     1       3.279   4.254  34.061  0.00  0.00    -0.388 OA
ATOM      3  H   UNL     1       3.834   3.870  34.744  0.00  0.00    +0.210 HD
ENDBRANCH   1   2
BRANCH   1   4
ATOM      4  C   UNL     1       4.998   2.947  32.899  0.00  0.00    +0.175 C 
BRANCH   4   5
ATOM      5  C   UNL     1       5.799   3.262  34.172  0.00  0.00    +0.176 C 
ATOM      6  O   UNL     1       6.289   4.627  34.065  0.00  0.00    -0.332 OA
ATOM      7  C   UNL     1       6.992   5.142  35.244  0.00  0.00    +0.277 C 
ATOM      8  C   UNL     1       8.154   4.197  35.637  0.00  0.00    +0.110 C 
ATOM      9  C   UNL     1       7.688   2.729  35.732  0.00  0.00    +0.143 C 
ATOM     10  C   UNL     1       6.967   2.299  34.453  0.00  0.00    +0.133 C 
BRANCH  10  11
ATOM     11  N   UNL     1       6.451   0.928  34.589  0.00  0.00    -0.308 N 
ATOM     12  H   UNL     1       5.746   0.756  35.293  0.00  0.00    +0.149 HD
ATOM     13  C   UNL     1       6.853  -0.105  33.844  0.00  0.00    +0.210 C 
ATOM     14  C   UNL     1       7.947   0.183  32.798  0.00  0.00    +0.109 C 
ATOM     15  O   UNL     1       6.393  -1.240  33.970  0.00  0.00    -0.276 OA
ENDBRANCH  10  11
BRANCH   7  16
ATOM     16  C   UNL     1       6.024   5.291  36.436  0.00  0.00    +0.414 C 
ATOM     17  O   UNL     1       6.436   5.165  37.589  0.00  0.00    -0.240 OA
ATOM     18  O   UNL     1       4.833   5.538  36.245  0.00  0.00    -0.240 OA
ENDBRANCH   7  16
BRANCH   7  19
ATOM     19  O   UNL     1       7.551   6.437  34.904  0.00  0.00    -0.343 OA
ATOM     20  C   UNL     1       6.664   7.309  34.158  0.00  0.00    +0.198 C 
ENDBRANCH   7  19
BRANCH   9  21
ATOM     21  O   UNL     1       8.815   1.878  35.945  0.00  0.00    -0.390 OA
ATOM     22  H   UNL     1       8.522   1.051  36.336  0.00  0.00    +0.210 HD
ENDBRANCH   9  21
ENDBRANCH   4   5
BRANCH   4  23
ATOM     23  O   UNL     1       5.836   3.098  31.736  0.00  0.00    -0.387 OA
ATOM     24  H   UNL     1       6.331   2.288  31.590  0.00  0.00    +0.210 HD
ENDBRANCH   4  23
ENDBRANCH   1   4
BRANCH   1  25
ATOM     25  C   UNL     1       2.650   3.058  32.045  0.00  0.00    +0.141 C 
BRANCH  25  28
ATOM     26  C   UNL     1       1.827   3.543  29.765  0.00  0.00    +0.401 C 
ATOM     27  O   UNL     1       0.704   3.884  30.142  0.00  0.00    -0.226 OA
ATOM     28  N   UNL     1       2.797   3.136  30.586  0.00  0.00    -0.279 N 
ATOM     29  H   UNL     1       3.683   2.867  30.181  0.00  0.00    +0.152 HD
BRANCH  26  30
ATOM     30  O   UNL     1       2.131   3.572  28.368  0.00  0.00    -0.444 OA
BRANCH  30  31
ATOM     31  C   UNL     1       0.976   3.180  27.620  0.00  0.00    +0.292 C 
BRANCH  31  33
ATOM     32  N   UNL     1      -0.074   4.736  26.003  0.00  0.00    -0.131 NA
ATOM     33  C   UNL     1       0.947   3.879  26.322  0.00  0.00    +0.120 A 
ATOM     34  C   UNL     1       1.848   3.844  25.282  0.00  0.00    +0.137 A 
ATOM     35  N   UNL     1       1.367   4.773  24.405  0.00  0.00    -0.247 N 
ATOM     36  N   UNL     1       0.185   5.265  24.816  0.00  0.00    -0.065 NA
BRANCH  35  37
ATOM     37  C   UNL     1       1.983   5.247  23.182  0.00  0.00    +0.180 C 
BRANCH  37  38
ATOM     38  C   UNL     1       1.785   4.264  22.051  0.00  0.00    -0.026 A 
ATOM     39  C   UNL     1       1.469   4.706  20.758  0.00  0.00    +0.007 A 
ATOM     40  C   UNL     1       1.293   3.789  19.717  0.00  0.00    +0.019 A 
ATOM     41  C   UNL     1       1.425   2.417  19.956  0.00  0.00    +0.052 A 
ATOM     42  C   UNL     1       1.715   1.967  21.247  0.00  0.00    +0.019 A 
ATOM     43  C   UNL     1       1.890   2.884  22.288  0.00  0.00    +0.007 A 
BRANCH  41  44
ATOM     44  C   UNL     1       1.264   1.479  18.882  0.00  0.00    +0.099 C 
ATOM     45  N   UNL     1       1.130   0.729  18.007  0.00  0.00    -0.191 NA
ENDBRANCH  41  44
ENDBRANCH  37  38
ENDBRANCH  35  37
ENDBRANCH  31  33
ENDBRANCH  30  31
ENDBRANCH  26  30
ENDBRANCH  25  28
ENDBRANCH   1  25
TORSDOF 16
