REMARK VINA RESULT:    -5.356     15.997     18.479
REMARK INTER + INTRA:         -12.756
REMARK INTER:                 -10.565
REMARK INTRA:                  -2.191
REMARK UNBOUND:                -3.800
REMARK  Name = lig_assembled_65.pdb
REMARK  16 active torsions:
REMARK  status: ('A' for Active; 'I' for Inactive)
REMARK    1  A    between atoms: _8  and  _20
REMARK    2  A    between atoms: _9  and  _15
REMARK    3  A    between atoms: _10  and  _11
REMARK    4  A    between atoms: _10  and  _20
REMARK    5  A    between atoms: _16  and  _36
REMARK    6  A    between atoms: _18  and  _24
REMARK    7  A    between atoms: _19  and  _23
REMARK    8  A    between atoms: _23  and  _24
REMARK    9  A    between atoms: _26  and  _27
REMARK   10  A    between atoms: _28  and  _29
REMARK   11  A    between atoms: _30  and  _32
REMARK   12  A    between atoms: _32  and  _33
REMARK   13  A    between atoms: _32  and  _34
REMARK   14  A    between atoms: _34  and  _35
REMARK   15  A    between atoms: _34  and  _36
REMARK   16  A    between atoms: _37  and  _39
REMARK                            x       y       z     vdW  Elec       q    Type
REMARK                         _______ _______ _______ _____ _____    ______ ____
ROOT
ATOM      1  C   UNL     1       7.027  -6.100  14.084  0.00  0.00    +0.163 C 
ENDROOT
BRANCH   1   2
ATOM      2  O   UNL     1       8.278  -5.510  14.475  0.00  0.00    -0.388 OA
ATOM      3  H   UNL     1       8.278  -5.357  15.423  0.00  0.00    +0.210 HD
ENDBRANCH   1   2
BRANCH   1   4
ATOM      4  C   UNL     1       6.228  -5.115  13.237  0.00  0.00    +0.141 C 
BRANCH   4   7
ATOM      5  C   UNL     1       5.570  -2.786  13.735  0.00  0.00    +0.401 C 
ATOM      6  O   UNL     1       4.367  -2.987  13.551  0.00  0.00    -0.226 OA
ATOM      7  N   UNL     1       6.511  -3.722  13.604  0.00  0.00    -0.279 N 
ATOM      8  H   UNL     1       7.472  -3.458  13.766  0.00  0.00    +0.152 HD
BRANCH   5   9
ATOM      9  O   UNL     1       6.006  -1.476  14.107  0.00  0.00    -0.444 OA
BRANCH   9  10
ATOM     10  C   UNL     1       5.016  -0.517  13.727  0.00  0.00    +0.292 C 
BRANCH  10  12
ATOM     11  N   UNL     1       5.398   0.684  15.859  0.00  0.00    -0.131 NA
ATOM     12  C   UNL     1       4.530   0.217  14.910  0.00  0.00    +0.121 A 
ATOM     13  C   UNL     1       3.247   0.552  15.273  0.00  0.00    +0.149 A 
ATOM     14  N   UNL     1       3.380   1.223  16.471  0.00  0.00    -0.155 N 
ATOM     15  C   UNL     1       2.334   1.766  17.274  0.00  0.00    +0.416 C 
ATOM     16  N   UNL     1       2.659   2.391  18.411  0.00  0.00    +0.041 NA
ATOM     17  C   UNL     1       1.628   2.855  19.114  0.00  0.00    +0.339 C 
ATOM     18  C   UNL     1       1.927   3.553  20.404  0.00  0.00    +0.149 C 
ATOM     19  N   UNL     1       0.351   2.731  18.754  0.00  0.00    +0.007 NA
ATOM     20  C   UNL     1       0.137   2.084  17.619  0.00  0.00    +0.386 C 
ATOM     21  N   UNL     1      -1.172   1.923  17.216  0.00  0.00    -0.296 N 
ATOM     22  H   UNL     1      -1.766   2.619  17.646  0.00  0.00    +0.148 HD
ATOM     23  H   UNL     1      -1.236   1.808  16.216  0.00  0.00    +0.148 HD
ATOM     24  N   UNL     1       1.079   1.601  16.830  0.00  0.00    -0.290 NA
ATOM     25  N   UNL     1       4.694   1.298  16.803  0.00  0.00    -0.055 NA
ENDBRANCH  10  12
ENDBRANCH   9  10
ENDBRANCH   5   9
ENDBRANCH   4   7
ENDBRANCH   1   4
BRANCH   1  26
ATOM     26  C   UNL     1       6.201  -6.505  15.317  0.00  0.00    +0.175 C 
BRANCH  26  27
ATOM     27  C   UNL     1       6.777  -5.922  16.616  0.00  0.00    +0.176 C 
ATOM     28  O   UNL     1       7.643  -6.927  17.211  0.00  0.00    -0.332 OA
ATOM     29  C   UNL     1       8.370  -6.505  18.413  0.00  0.00    +0.277 C 
ATOM     30  C   UNL     1       7.385  -5.965  19.479  0.00  0.00    +0.110 C 
ATOM     31  C   UNL     1       6.421  -4.916  18.884  0.00  0.00    +0.143 C 
ATOM     32  C   UNL     1       5.722  -5.458  17.637  0.00  0.00    +0.133 C 
BRANCH  32  33
ATOM     33  N   UNL     1       4.873  -4.421  17.031  0.00  0.00    -0.308 N 
ATOM     34  H   UNL     1       5.319  -3.569  16.721  0.00  0.00    +0.149 HD
ATOM     35  C   UNL     1       3.553  -4.531  16.863  0.00  0.00    +0.210 C 
ATOM     36  C   UNL     1       2.900  -5.831  17.369  0.00  0.00    +0.109 C 
ATOM     37  O   UNL     1       2.869  -3.652  16.338  0.00  0.00    -0.276 OA
ENDBRANCH  32  33
BRANCH  29  38
ATOM     38  C   UNL     1       9.408  -5.416  18.071  0.00  0.00    +0.414 C 
ATOM     39  O   UNL     1       9.758  -4.604  18.926  0.00  0.00    -0.240 OA
ATOM     40  O   UNL     1       9.894  -5.351  16.942  0.00  0.00    -0.240 OA
ENDBRANCH  29  38
BRANCH  29  41
ATOM     41  O   UNL     1       9.044  -7.668  18.961  0.00  0.00    -0.343 OA
ATOM     42  C   UNL     1       8.723  -8.924  18.311  0.00  0.00    +0.198 C 
ENDBRANCH  29  41
BRANCH  31  43
ATOM     43  O   UNL     1       5.439  -4.559  19.857  0.00  0.00    -0.390 OA
ATOM     44  H   UNL     1       5.743  -3.797  20.355  0.00  0.00    +0.210 HD
ENDBRANCH  31  43
ENDBRANCH  26  27
BRANCH  26  45
ATOM     45  O   UNL     1       6.120  -7.942  15.410  0.00  0.00    -0.387 OA
ATOM     46  H   UNL     1       6.111  -8.320  14.528  0.00  0.00    +0.210 HD
ENDBRANCH  26  45
ENDBRANCH   1  26
TORSDOF 13
