REMARK VINA RESULT:    -5.372     23.520     27.170
REMARK INTER + INTRA:         -12.739
REMARK INTER:                 -10.166
REMARK INTRA:                  -2.573
REMARK UNBOUND:                -2.970
REMARK  Name = lig_assembled_22.pdb
REMARK  20 active torsions:
REMARK  status: ('A' for Active; 'I' for Inactive)
REMARK    1  A    between atoms: _2  and  _9
REMARK    2  A    between atoms: _4  and  _18
REMARK    3  A    between atoms: _5  and  _9
REMARK    4  A    between atoms: _5  and  _12
REMARK    5  A    between atoms: _6  and  _7
REMARK    6  A    between atoms: _6  and  _18
REMARK    7  A    between atoms: _9  and  _10
REMARK    8  A    between atoms: _9  and  _11
REMARK    9  A    between atoms: _14  and  _34
REMARK   10  A    between atoms: _16  and  _22
REMARK   11  A    between atoms: _17  and  _21
REMARK   12  A    between atoms: _21  and  _22
REMARK   13  A    between atoms: _24  and  _25
REMARK   14  A    between atoms: _26  and  _27
REMARK   15  A    between atoms: _28  and  _30
REMARK   16  A    between atoms: _30  and  _31
REMARK   17  A    between atoms: _30  and  _32
REMARK   18  A    between atoms: _32  and  _33
REMARK   19  A    between atoms: _32  and  _34
REMARK   20  A    between atoms: _35  and  _37
REMARK                            x       y       z     vdW  Elec       q    Type
REMARK                         _______ _______ _______ _____ _____    ______ ____
ROOT
ATOM      1  C   UNL     1      -0.903  12.980   7.568  0.00  0.00    +0.163 C 
ENDROOT
BRANCH   1   2
ATOM      2  O   UNL     1      -1.271  11.793   8.288  0.00  0.00    -0.388 OA
ATOM      3  H   UNL     1      -1.971  11.335   7.816  0.00  0.00    +0.210 HD
ENDBRANCH   1   2
BRANCH   1   4
ATOM      4  C   UNL     1      -0.402  12.612   6.175  0.00  0.00    +0.141 C 
BRANCH   4   7
ATOM      5  C   UNL     1       1.940  12.037   5.635  0.00  0.00    +0.401 C 
ATOM      6  O   UNL     1       2.134  13.054   4.966  0.00  0.00    -0.226 OA
ATOM      7  N   UNL     1       0.783  11.746   6.231  0.00  0.00    -0.279 N 
ATOM      8  H   UNL     1       0.717  10.882   6.750  0.00  0.00    +0.152 HD
BRANCH   5   9
ATOM      9  O   UNL     1       3.004  11.094   5.791  0.00  0.00    -0.444 OA
BRANCH   9  10
ATOM     10  C   UNL     1       2.772   9.967   4.943  0.00  0.00    +0.292 C 
BRANCH  10  12
ATOM     11  N   UNL     1       1.251   8.563   6.290  0.00  0.00    -0.131 NA
ATOM     12  C   UNL     1       2.491   8.767   5.753  0.00  0.00    +0.120 A 
ATOM     13  C   UNL     1       3.310   7.717   6.107  0.00  0.00    +0.138 A 
ATOM     14  N   UNL     1       2.510   6.905   6.861  0.00  0.00    -0.235 N 
ATOM     15  N   UNL     1       1.273   7.427   6.967  0.00  0.00    -0.064 NA
BRANCH  14  16
ATOM     16  C   UNL     1       2.834   5.643   7.530  0.00  0.00    +0.155 C 
ATOM     17  C   UNL     1       3.988   4.892   6.831  0.00  0.00    +0.048 C 
ATOM     18  C   UNL     1       1.586   4.741   7.513  0.00  0.00    +0.048 C 
BRANCH  16  19
ATOM     19  C   UNL     1       3.261   5.903   8.977  0.00  0.00    +0.332 C 
ATOM     20  O   UNL     1       4.287   5.460   9.481  0.00  0.00    -0.248 OA
BRANCH  19  21
ATOM     21  O   UNL     1       2.418   6.678   9.701  0.00  0.00    -0.479 OA
ATOM     22  H   UNL     1       1.873   7.314   9.198  0.00  0.00    +0.295 HD
ENDBRANCH  19  21
ENDBRANCH  16  19
ENDBRANCH  14  16
ENDBRANCH  10  12
ENDBRANCH   9  10
ENDBRANCH   5   9
ENDBRANCH   4   7
ENDBRANCH   1   4
BRANCH   1  23
ATOM     23  C   UNL     1       0.191  13.761   8.317  0.00  0.00    +0.175 C 
BRANCH  23  24
ATOM     24  C   UNL     1      -0.097  13.857   9.823  0.00  0.00    +0.176 C 
ATOM     25  O   UNL     1      -1.492  14.233   9.989  0.00  0.00    -0.332 OA
ATOM     26  C   UNL     1      -1.978  14.271  11.372  0.00  0.00    +0.277 C 
ATOM     27  C   UNL     1      -1.081  15.191  12.236  0.00  0.00    +0.110 C 
ATOM     28  C   UNL     1       0.415  14.849  12.068  0.00  0.00    +0.143 C 
ATOM     29  C   UNL     1       0.812  14.835  10.592  0.00  0.00    +0.133 C 
BRANCH  29  30
ATOM     30  N   UNL     1       2.216  14.423  10.440  0.00  0.00    -0.308 N 
ATOM     31  H   UNL     1       2.457  13.471  10.678  0.00  0.00    +0.149 HD
ATOM     32  C   UNL     1       3.193  15.225  10.008  0.00  0.00    +0.210 C 
ATOM     33  C   UNL     1       2.798  16.677   9.678  0.00  0.00    +0.109 C 
ATOM     34  O   UNL     1       4.358  14.849   9.877  0.00  0.00    -0.276 OA
ENDBRANCH  29  30
BRANCH  26  35
ATOM     35  C   UNL     1      -2.002  12.854  11.981  0.00  0.00    +0.414 C 
ATOM     36  O   UNL     1      -2.039  12.704  13.202  0.00  0.00    -0.240 OA
ATOM     37  O   UNL     1      -1.985  11.861  11.253  0.00  0.00    -0.240 OA
ENDBRANCH  26  35
BRANCH  26  38
ATOM     38  O   UNL     1      -3.320  14.821  11.360  0.00  0.00    -0.343 OA
ATOM     39  C   UNL     1      -3.432  16.174  11.869  0.00  0.00    +0.198 C 
ENDBRANCH  26  38
BRANCH  28  40
ATOM     40  O   UNL     1       1.209  15.813  12.760  0.00  0.00    -0.390 OA
ATOM     41  H   UNL     1       2.080  15.858  12.358  0.00  0.00    +0.210 HD
ENDBRANCH  28  40
ENDBRANCH  23  24
BRANCH  23  42
ATOM     42  O   UNL     1       0.333  15.081   7.754  0.00  0.00    -0.387 OA
ATOM     43  H   UNL     1       1.260  15.252   7.570  0.00  0.00    +0.210 HD
ENDBRANCH  23  42
ENDBRANCH   1  23
TORSDOF 16
