REMARK VINA RESULT:    -5.880      4.434      5.358
REMARK INTER + INTRA:         -12.898
REMARK INTER:                 -10.471
REMARK INTRA:                  -2.426
REMARK UNBOUND:                -2.722
REMARK  Name = lig_assembled_3.pdb
REMARK  16 active torsions:
REMARK  status: ('A' for Active; 'I' for Inactive)
REMARK    1  A    between atoms: _2  and  _9
REMARK    2  A    between atoms: _4  and  _18
REMARK    3  A    between atoms: _6  and  _7
REMARK    4  A    between atoms: _6  and  _18
REMARK    5  A    between atoms: _14  and  _34
REMARK    6  A    between atoms: _16  and  _22
REMARK    7  A    between atoms: _17  and  _21
REMARK    8  A    between atoms: _21  and  _22
REMARK    9  A    between atoms: _24  and  _25
REMARK   10  A    between atoms: _26  and  _27
REMARK   11  A    between atoms: _28  and  _30
REMARK   12  A    between atoms: _30  and  _31
REMARK   13  A    between atoms: _30  and  _32
REMARK   14  A    between atoms: _32  and  _33
REMARK   15  A    between atoms: _32  and  _34
REMARK   16  A    between atoms: _35  and  _37
REMARK                            x       y       z     vdW  Elec       q    Type
REMARK                         _______ _______ _______ _____ _____    ______ ____
ROOT
ATOM      1  C   UNL     1       4.807   3.001  32.588  0.00  0.00    +0.163 C 
ENDROOT
BRANCH   1   2
ATOM      2  O   UNL     1       4.138   4.259  32.773  0.00  0.00    -0.388 OA
ATOM      3  H   UNL     1       3.516   4.187  33.502  0.00  0.00    +0.210 HD
ENDBRANCH   1   2
BRANCH   1   4
ATOM      4  C   UNL     1       4.071   1.902  33.347  0.00  0.00    +0.141 C 
BRANCH   4   7
ATOM      5  C   UNL     1       5.217  -0.243  33.786  0.00  0.00    +0.401 C 
ATOM      6  O   UNL     1       5.526   0.051  34.942  0.00  0.00    -0.226 OA
ATOM      7  N   UNL     1       4.542   0.564  32.966  0.00  0.00    -0.279 N 
ATOM      8  H   UNL     1       4.344   0.237  32.031  0.00  0.00    +0.152 HD
BRANCH   5   9
ATOM      9  O   UNL     1       5.598  -1.520  33.268  0.00  0.00    -0.444 OA
BRANCH   9  10
ATOM     10  C   UNL     1       6.718  -1.366  32.392  0.00  0.00    +0.292 C 
BRANCH  10  12
ATOM     11  N   UNL     1       4.986  -1.559  30.637  0.00  0.00    -0.131 NA
ATOM     12  C   UNL     1       6.304  -1.566  30.990  0.00  0.00    +0.121 A 
ATOM     13  C   UNL     1       7.071  -1.769  29.866  0.00  0.00    +0.143 A 
ATOM     14  N   UNL     1       6.170  -1.856  28.830  0.00  0.00    -0.220 N 
ATOM     15  N   UNL     1       4.911  -1.741  29.325  0.00  0.00    -0.060 NA
BRANCH  14  16
ATOM     16  C   UNL     1       6.423  -2.016  27.443  0.00  0.00    +0.067 A 
ATOM     17  C   UNL     1       5.407  -1.812  26.498  0.00  0.00    +0.028 A 
ATOM     18  C   UNL     1       5.668  -2.005  25.139  0.00  0.00    +0.002 A 
ATOM     19  C   UNL     1       6.937  -2.397  24.716  0.00  0.00    +0.000 A 
ATOM     20  C   UNL     1       7.953  -2.593  25.650  0.00  0.00    +0.002 A 
ATOM     21  C   UNL     1       7.700  -2.403  27.011  0.00  0.00    +0.028 A 
ENDBRANCH  14  16
ENDBRANCH  10  12
ENDBRANCH   9  10
ENDBRANCH   5   9
ENDBRANCH   4   7
ENDBRANCH   1   4
BRANCH   1  22
ATOM     22  C   UNL     1       6.264   3.076  33.077  0.00  0.00    +0.175 C 
BRANCH  22  23
ATOM     23  C   UNL     1       6.393   3.863  34.390  0.00  0.00    +0.176 C 
ATOM     24  O   UNL     1       6.277   5.278  34.076  0.00  0.00    -0.332 OA
ATOM     25  C   UNL     1       6.272   6.184  35.228  0.00  0.00    +0.277 C 
ATOM     26  C   UNL     1       7.521   5.944  36.111  0.00  0.00    +0.110 C 
ATOM     27  C   UNL     1       7.703   4.449  36.445  0.00  0.00    +0.143 C 
ATOM     28  C   UNL     1       7.691   3.598  35.175  0.00  0.00    +0.133 C 
BRANCH  28  29
ATOM     29  N   UNL     1       7.779   2.168  35.512  0.00  0.00    -0.308 N 
ATOM     30  H   UNL     1       7.004   1.753  36.011  0.00  0.00    +0.149 HD
ATOM     31  C   UNL     1       8.814   1.384  35.201  0.00  0.00    +0.210 C 
ATOM     32  C   UNL     1       9.990   2.053  34.464  0.00  0.00    +0.109 C 
ATOM     33  O   UNL     1       8.854   0.186  35.483  0.00  0.00    -0.276 OA
ENDBRANCH  28  29
BRANCH  25  34
ATOM     34  C   UNL     1       4.996   5.986  36.074  0.00  0.00    +0.414 C 
ATOM     35  O   UNL     1       3.971   5.547  35.555  0.00  0.00    -0.240 OA
ATOM     36  O   UNL     1       4.993   6.265  37.274  0.00  0.00    -0.240 OA
ENDBRANCH  25  34
BRANCH  27  37
ATOM     37  O   UNL     1       8.942   4.256  37.129  0.00  0.00    -0.390 OA
ATOM     38  H   UNL     1       9.647   4.694  36.646  0.00  0.00    +0.210 HD
ENDBRANCH  27  37
BRANCH  25  39
ATOM     39  O   UNL     1       6.320   7.546  34.729  0.00  0.00    -0.343 OA
ATOM     40  C   UNL     1       7.647   8.123  34.651  0.00  0.00    +0.198 C 
ENDBRANCH  25  39
ENDBRANCH  22  23
BRANCH  22  41
ATOM     41  O   UNL     1       7.099   3.665  32.061  0.00  0.00    -0.387 OA
ATOM     42  H   UNL     1       7.996   3.335  32.153  0.00  0.00    +0.210 HD
ENDBRANCH  22  41
ENDBRANCH   1  22
TORSDOF 14
