REMARK VINA RESULT:    -5.605     15.008     17.474
REMARK INTER + INTRA:         -12.777
REMARK INTER:                 -10.237
REMARK INTRA:                  -2.540
REMARK UNBOUND:                -2.094
REMARK  Name = lig_assembled_19.pdb
REMARK  20 active torsions:
REMARK  status: ('A' for Active; 'I' for Inactive)
REMARK    1  A    between atoms: _2  and  _9
REMARK    2  A    between atoms: _4  and  _18
REMARK    3  A    between atoms: _5  and  _11
REMARK    4  A    between atoms: _6  and  _7
REMARK    5  A    between atoms: _6  and  _18
REMARK    6  A    between atoms: _9  and  _10
REMARK    7  A    between atoms: _10  and  _13
REMARK    8  A    between atoms: _11  and  _13
REMARK    9  A    between atoms: _14  and  _34
REMARK   10  A    between atoms: _16  and  _22
REMARK   11  A    between atoms: _17  and  _21
REMARK   12  A    between atoms: _21  and  _22
REMARK   13  A    between atoms: _24  and  _25
REMARK   14  A    between atoms: _26  and  _27
REMARK   15  A    between atoms: _28  and  _30
REMARK   16  A    between atoms: _30  and  _31
REMARK   17  A    between atoms: _30  and  _32
REMARK   18  A    between atoms: _32  and  _33
REMARK   19  A    between atoms: _32  and  _34
REMARK   20  A    between atoms: _35  and  _37
REMARK                            x       y       z     vdW  Elec       q    Type
REMARK                         _______ _______ _______ _____ _____    ______ ____
ROOT
ATOM      1  C   UNL     1      17.993  -1.834  22.532  0.00  0.00    +0.163 C 
ENDROOT
BRANCH   1   2
ATOM      2  O   UNL     1      18.854  -2.972  22.708  0.00  0.00    -0.388 OA
ATOM      3  H   UNL     1      19.624  -2.715  23.220  0.00  0.00    +0.210 HD
ENDBRANCH   1   2
BRANCH   1   4
ATOM      4  C   UNL     1      17.688  -1.162  23.881  0.00  0.00    +0.175 C 
BRANCH   4   5
ATOM      5  C   UNL     1      17.835  -2.136  25.059  0.00  0.00    +0.176 C 
ATOM      6  O   UNL     1      16.893  -3.226  24.859  0.00  0.00    -0.332 OA
ATOM      7  C   UNL     1      16.966  -4.314  25.838  0.00  0.00    +0.277 C 
ATOM      8  C   UNL     1      16.825  -3.759  27.276  0.00  0.00    +0.110 C 
ATOM      9  C   UNL     1      17.785  -2.577  27.526  0.00  0.00    +0.143 C 
ATOM     10  C   UNL     1      17.628  -1.504  26.448  0.00  0.00    +0.133 C 
BRANCH  10  11
ATOM     11  N   UNL     1      18.608  -0.425  26.648  0.00  0.00    -0.308 N 
ATOM     12  H   UNL     1      19.587  -0.674  26.666  0.00  0.00    +0.149 HD
ATOM     13  C   UNL     1      18.288   0.862  26.808  0.00  0.00    +0.210 C 
ATOM     14  C   UNL     1      16.786   1.205  26.802  0.00  0.00    +0.109 C 
ATOM     15  O   UNL     1      19.131   1.747  26.959  0.00  0.00    -0.276 OA
ENDBRANCH  10  11
BRANCH   7  16
ATOM     16  C   UNL     1      18.300  -5.079  25.709  0.00  0.00    +0.414 C 
ATOM     17  O   UNL     1      18.945  -5.027  24.662  0.00  0.00    -0.240 OA
ATOM     18  O   UNL     1      18.730  -5.746  26.650  0.00  0.00    -0.240 OA
ENDBRANCH   7  16
BRANCH   9  19
ATOM     19  O   UNL     1      17.517  -2.001  28.805  0.00  0.00    -0.390 OA
ATOM     20  H   UNL     1      16.713  -2.381  29.166  0.00  0.00    +0.210 HD
ENDBRANCH   9  19
BRANCH   7  21
ATOM     21  O   UNL     1      15.859  -5.218  25.587  0.00  0.00    -0.343 OA
ATOM     22  C   UNL     1      15.218  -5.058  24.296  0.00  0.00    +0.198 C 
ENDBRANCH   7  21
ENDBRANCH   4   5
BRANCH   4  23
ATOM     23  O   UNL     1      16.361  -0.598  23.866  0.00  0.00    -0.387 OA
ATOM     24  H   UNL     1      16.350   0.209  24.386  0.00  0.00    +0.210 HD
ENDBRANCH   4  23
ENDBRANCH   1   4
BRANCH   1  25
ATOM     25  C   UNL     1      18.649  -0.824  21.596  0.00  0.00    +0.141 C 
BRANCH  25  28
ATOM     26  C   UNL     1      17.645   1.322  20.892  0.00  0.00    +0.401 C 
ATOM     27  O   UNL     1      17.523   0.986  19.712  0.00  0.00    -0.226 OA
ATOM     28  N   UNL     1      18.167   0.541  21.840  0.00  0.00    -0.279 N 
ATOM     29  H   UNL     1      18.234   0.909  22.778  0.00  0.00    +0.152 HD
BRANCH  26  30
ATOM     30  O   UNL     1      17.212   2.624  21.292  0.00  0.00    -0.444 OA
BRANCH  30  31
ATOM     31  C   UNL     1      17.277   2.734  22.716  0.00  0.00    +0.292 C 
BRANCH  31  33
ATOM     32  N   UNL     1      17.178   5.200  22.499  0.00  0.00    -0.131 NA
ATOM     33  C   UNL     1      17.701   4.090  23.110  0.00  0.00    +0.120 A 
ATOM     34  C   UNL     1      18.607   4.488  24.066  0.00  0.00    +0.137 A 
ATOM     35  N   UNL     1      18.598   5.847  23.978  0.00  0.00    -0.248 N 
ATOM     36  N   UNL     1      17.736   6.275  23.041  0.00  0.00    -0.065 NA
BRANCH  35  37
ATOM     37  C   UNL     1      19.367   6.793  24.757  0.00  0.00    +0.186 C 
BRANCH  37  38
ATOM     38  C   UNL     1      18.631   7.214  26.025  0.00  0.00    +0.255 C 
BRANCH  38  39
ATOM     39  O   UNL     1      19.492   7.209  27.181  0.00  0.00    -0.463 OA
BRANCH  39  40
ATOM     40  C   UNL     1      19.025   6.541  28.269  0.00  0.00    +0.304 C 
ATOM     41  O   UNL     1      18.866   7.033  29.377  0.00  0.00    -0.251 OA
ATOM     42  C   UNL     1      18.696   5.121  27.923  0.00  0.00    +0.136 C 
ENDBRANCH  39  40
ENDBRANCH  38  39
ENDBRANCH  37  38
ENDBRANCH  35  37
ENDBRANCH  31  33
ENDBRANCH  30  31
ENDBRANCH  26  30
ENDBRANCH  25  28
ENDBRANCH   1  25
TORSDOF 17
