REMARK VINA RESULT:    -5.879      2.981     12.065
REMARK INTER + INTRA:         -13.029
REMARK INTER:                 -10.640
REMARK INTRA:                  -2.390
REMARK UNBOUND:                -2.511
REMARK  Name = lig_assembled_6.pdb
REMARK  17 active torsions:
REMARK  status: ('A' for Active; 'I' for Inactive)
REMARK    1  A    between atoms: _2  and  _10
REMARK    2  A    between atoms: _3  and  _13
REMARK    3  A    between atoms: _5  and  _21
REMARK    4  A    between atoms: _7  and  _8
REMARK    5  A    between atoms: _7  and  _21
REMARK    6  A    between atoms: _17  and  _37
REMARK    7  A    between atoms: _19  and  _25
REMARK    8  A    between atoms: _20  and  _24
REMARK    9  A    between atoms: _24  and  _25
REMARK   10  A    between atoms: _27  and  _28
REMARK   11  A    between atoms: _29  and  _30
REMARK   12  A    between atoms: _31  and  _33
REMARK   13  A    between atoms: _33  and  _34
REMARK   14  A    between atoms: _33  and  _35
REMARK   15  A    between atoms: _35  and  _36
REMARK   16  A    between atoms: _35  and  _37
REMARK   17  A    between atoms: _38  and  _40
REMARK                            x       y       z     vdW  Elec       q    Type
REMARK                         _______ _______ _______ _____ _____    ______ ____
ROOT
ATOM      1  C   UNL     1      -0.352   2.852  27.122  0.00  0.00    +0.163 C 
ENDROOT
BRANCH   1   2
ATOM      2  O   UNL     1       0.057   4.229  27.075  0.00  0.00    -0.388 OA
ATOM      3  H   UNL     1      -0.127   4.588  26.204  0.00  0.00    +0.210 HD
ENDBRANCH   1   2
BRANCH   1   4
ATOM      4  C   UNL     1      -0.415   2.376  28.570  0.00  0.00    +0.141 C 
BRANCH   4   7
ATOM      5  C   UNL     1       1.726   2.860  29.705  0.00  0.00    +0.401 C 
ATOM      6  O   UNL     1       1.460   4.047  29.905  0.00  0.00    -0.226 OA
ATOM      7  N   UNL     1       0.910   2.008  29.084  0.00  0.00    -0.279 N 
ATOM      8  H   UNL     1       1.221   1.054  28.959  0.00  0.00    +0.152 HD
BRANCH   5   9
ATOM      9  O   UNL     1       2.981   2.344  30.156  0.00  0.00    -0.444 OA
BRANCH   9  10
ATOM     10  C   UNL     1       2.936   2.148  31.572  0.00  0.00    +0.292 C 
BRANCH  10  12
ATOM     11  N   UNL     1       5.399   2.254  31.808  0.00  0.00    -0.131 NA
ATOM     12  C   UNL     1       4.162   2.675  32.201  0.00  0.00    +0.121 A 
ATOM     13  C   UNL     1       4.303   3.611  33.201  0.00  0.00    +0.143 A 
ATOM     14  N   UNL     1       5.662   3.754  33.364  0.00  0.00    -0.220 N 
ATOM     15  N   UNL     1       6.304   2.907  32.524  0.00  0.00    -0.060 NA
BRANCH  14  16
ATOM     16  C   UNL     1       6.365   4.646  34.217  0.00  0.00    +0.067 A 
ATOM     17  C   UNL     1       7.482   4.208  34.946  0.00  0.00    +0.034 A 
ATOM     18  C   UNL     1       8.128   5.079  35.829  0.00  0.00    +0.086 A 
ATOM     19  C   UNL     1       7.661   6.389  35.984  0.00  0.00    +0.273 A 
ATOM     20  C   UNL     1       6.564   6.843  35.242  0.00  0.00    +0.086 A 
ATOM     21  C   UNL     1       5.919   5.971  34.358  0.00  0.00    +0.034 A 
BRANCH  19  22
ATOM     22  N   UNL     1       8.318   7.285  36.945  0.00  0.00    +0.080 N 
ATOM     23  O   UNL     1       8.962   6.765  37.867  0.00  0.00    +0.041 OA
ATOM     24  O   UNL     1       8.182   8.505  36.782  0.00  0.00    -0.576 OA
ENDBRANCH  19  22
ENDBRANCH  14  16
ENDBRANCH  10  12
ENDBRANCH   9  10
ENDBRANCH   5   9
ENDBRANCH   4   7
ENDBRANCH   1   4
BRANCH   1  25
ATOM     25  C   UNL     1       0.622   1.962  26.331  0.00  0.00    +0.175 C 
BRANCH  25  26
ATOM     26  C   UNL     1       0.986   2.572  24.969  0.00  0.00    +0.176 C 
ATOM     27  O   UNL     1      -0.216   3.170  24.411  0.00  0.00    -0.332 OA
ATOM     28  C   UNL     1      -0.036   3.898  23.152  0.00  0.00    +0.277 C 
ATOM     29  C   UNL     1       0.636   2.990  22.093  0.00  0.00    +0.110 C 
ATOM     30  C   UNL     1       1.902   2.307  22.651  0.00  0.00    +0.143 C 
ATOM     31  C   UNL     1       1.602   1.582  23.963  0.00  0.00    +0.133 C 
BRANCH  31  32
ATOM     32  N   UNL     1       2.833   1.009  24.529  0.00  0.00    -0.308 N 
ATOM     33  H   UNL     1       3.520   1.646  24.907  0.00  0.00    +0.149 HD
ATOM     34  C   UNL     1       3.103  -0.299  24.576  0.00  0.00    +0.210 C 
ATOM     35  C   UNL     1       2.047  -1.242  23.969  0.00  0.00    +0.109 C 
ATOM     36  O   UNL     1       4.136  -0.751  25.069  0.00  0.00    -0.276 OA
ENDBRANCH  31  32
BRANCH  28  37
ATOM     37  C   UNL     1       0.823   5.161  23.368  0.00  0.00    +0.414 C 
ATOM     38  O   UNL     1       0.876   5.693  24.476  0.00  0.00    -0.240 OA
ATOM     39  O   UNL     1       1.463   5.648  22.435  0.00  0.00    -0.240 OA
ENDBRANCH  28  37
BRANCH  30  40
ATOM     40  O   UNL     1       2.402   1.367  21.698  0.00  0.00    -0.390 OA
ATOM     41  H   UNL     1       2.638   1.826  20.889  0.00  0.00    +0.210 HD
ENDBRANCH  30  40
BRANCH  28  42
ATOM     42  O   UNL     1      -1.348   4.278  22.662  0.00  0.00    -0.343 OA
ATOM     43  C   UNL     1      -2.354   4.468  23.688  0.00  0.00    +0.198 C 
ENDBRANCH  28  42
ENDBRANCH  25  26
BRANCH  25  44
ATOM     44  O   UNL     1       0.059   0.647  26.151  0.00  0.00    -0.387 OA
ATOM     45  H   UNL     1       0.764   0.015  25.994  0.00  0.00    +0.210 HD
ENDBRANCH  25  44
ENDBRANCH   1  25
TORSDOF 15
