REMARK VINA RESULT:    -6.980      2.339      3.590
REMARK INTER + INTRA:         -15.601
REMARK INTER:                 -13.089
REMARK INTRA:                  -2.511
REMARK UNBOUND:                -2.499
REMARK  Name = lig_assembled_64.pdb
REMARK  19 active torsions:
REMARK  status: ('A' for Active; 'I' for Inactive)
REMARK    1  A    between atoms: _2  and  _10
REMARK    2  A    between atoms: _5  and  _27
REMARK    3  A    between atoms: _7  and  _8
REMARK    4  A    between atoms: _7  and  _27
REMARK    5  A    between atoms: _12  and  _13
REMARK    6  A    between atoms: _13  and  _21
REMARK    7  A    between atoms: _14  and  _15
REMARK    8  A    between atoms: _23  and  _43
REMARK    9  A    between atoms: _25  and  _31
REMARK   10  A    between atoms: _26  and  _30
REMARK   11  A    between atoms: _30  and  _31
REMARK   12  A    between atoms: _33  and  _34
REMARK   13  A    between atoms: _35  and  _36
REMARK   14  A    between atoms: _37  and  _39
REMARK   15  A    between atoms: _39  and  _40
REMARK   16  A    between atoms: _39  and  _41
REMARK   17  A    between atoms: _41  and  _42
REMARK   18  A    between atoms: _41  and  _43
REMARK   19  A    between atoms: _44  and  _46
REMARK                            x       y       z     vdW  Elec       q    Type
REMARK                         _______ _______ _______ _____ _____    ______ ____
ROOT
ATOM      1  C   UNL     1       2.428   2.872  32.207  0.00  0.00    +0.401 C 
ATOM      2  O   UNL     1       2.083   4.009  32.536  0.00  0.00    -0.226 OA
ATOM      3  N   UNL     1       3.696   2.504  32.015  0.00  0.00    -0.279 N 
ATOM      4  H   UNL     1       3.880   1.545  31.756  0.00  0.00    +0.152 HD
ENDROOT
BRANCH   3   5
ATOM      5  C   UNL     1       4.839   3.414  32.159  0.00  0.00    +0.141 C 
BRANCH   5   6
ATOM      6  C   UNL     1       6.044   2.720  32.785  0.00  0.00    +0.163 C 
BRANCH   6   7
ATOM      7  O   UNL     1       7.260   3.310  32.298  0.00  0.00    -0.388 OA
ATOM      8  H   UNL     1       7.361   3.111  31.364  0.00  0.00    +0.210 HD
ENDBRANCH   6   7
BRANCH   6   9
ATOM      9  C   UNL     1       5.957   2.823  34.318  0.00  0.00    +0.175 C 
BRANCH   9  10
ATOM     10  C   UNL     1       5.757   4.271  34.789  0.00  0.00    +0.176 C 
ATOM     11  O   UNL     1       7.043   4.774  35.245  0.00  0.00    -0.332 OA
ATOM     12  C   UNL     1       7.068   6.187  35.637  0.00  0.00    +0.277 C 
ATOM     13  C   UNL     1       5.985   6.471  36.707  0.00  0.00    +0.110 C 
ATOM     14  C   UNL     1       4.606   5.926  36.280  0.00  0.00    +0.143 C 
ATOM     15  C   UNL     1       4.696   4.450  35.891  0.00  0.00    +0.133 C 
BRANCH  15  16
ATOM     16  N   UNL     1       3.395   3.965  35.403  0.00  0.00    -0.308 N 
ATOM     17  H   UNL     1       3.025   4.376  34.558  0.00  0.00    +0.149 HD
ATOM     18  C   UNL     1       2.672   3.017  36.005  0.00  0.00    +0.210 C 
ATOM     19  C   UNL     1       3.251   2.428  37.305  0.00  0.00    +0.109 C 
ATOM     20  O   UNL     1       1.592   2.620  35.565  0.00  0.00    -0.276 OA
ENDBRANCH  15  16
BRANCH  12  21
ATOM     21  C   UNL     1       6.836   7.098  34.414  0.00  0.00    +0.414 C 
ATOM     22  O   UNL     1       6.167   8.125  34.523  0.00  0.00    -0.240 OA
ATOM     23  O   UNL     1       7.318   6.807  33.318  0.00  0.00    -0.240 OA
ENDBRANCH  12  21
BRANCH  12  24
ATOM     24  O   UNL     1       8.368   6.469  36.217  0.00  0.00    -0.343 OA
ATOM     25  C   UNL     1       8.993   5.349  36.892  0.00  0.00    +0.198 C 
ENDBRANCH  12  24
BRANCH  14  26
ATOM     26  O   UNL     1       3.676   6.073  37.353  0.00  0.00    -0.390 OA
ATOM     27  H   UNL     1       3.878   5.436  38.042  0.00  0.00    +0.210 HD
ENDBRANCH  14  26
ENDBRANCH   9  10
BRANCH   9  28
ATOM     28  O   UNL     1       7.141   2.264  34.921  0.00  0.00    -0.387 OA
ATOM     29  H   UNL     1       6.947   1.383  35.250  0.00  0.00    +0.210 HD
ENDBRANCH   9  28
ENDBRANCH   6   9
ENDBRANCH   5   6
ENDBRANCH   3   5
BRANCH   1  30
ATOM     30  O   UNL     1       1.427   1.869  32.018  0.00  0.00    -0.444 OA
BRANCH  30  31
ATOM     31  C   UNL     1       0.375   2.391  31.202  0.00  0.00    +0.292 C 
BRANCH  31  33
ATOM     32  N   UNL     1       0.985   3.708  29.189  0.00  0.00    -0.131 NA
ATOM     33  C   UNL     1       0.815   2.498  29.798  0.00  0.00    +0.121 A 
ATOM     34  C   UNL     1       1.116   1.499  28.901  0.00  0.00    +0.143 A 
ATOM     35  N   UNL     1       1.460   2.154  27.742  0.00  0.00    -0.220 N 
ATOM     36  N   UNL     1       1.379   3.491  27.940  0.00  0.00    -0.060 NA
BRANCH  35  37
ATOM     37  C   UNL     1       1.853   1.597  26.500  0.00  0.00    +0.071 A 
ATOM     38  C   UNL     1       2.440   0.337  26.450  0.00  0.00    +0.063 A 
ATOM     39  CA  UNL     1       2.800  -0.148  25.208  0.00  0.00    +0.150 A 
ATOM     40  N   UNL     1       2.629   0.518  24.031  0.00  0.00    -0.240 NA
ATOM     41  C   UNL     1       2.067   1.756  24.090  0.00  0.00    +0.074 A 
ATOM     42  C   UNL     1       1.659   2.312  25.307  0.00  0.00    +0.056 A 
BRANCH  41  43
ATOM     43  C   UNL     1       1.946   2.468  22.795  0.00  0.00    +0.000 A 
ATOM     44  C   UNL     1       1.847   3.870  22.719  0.00  0.00    +0.010 A 
ATOM     45  C   UNL     1       1.771   4.534  21.488  0.00  0.00    +0.001 A 
ATOM     46  C   UNL     1       1.794   3.810  20.300  0.00  0.00    +0.000 A 
ATOM     47  C   UNL     1       1.884   2.423  20.344  0.00  0.00    +0.001 A 
ATOM     48  C   UNL     1       1.958   1.762  21.575  0.00  0.00    +0.010 A 
ENDBRANCH  41  43
BRANCH  39  49
ATOM     49  C   UNL     1       3.433  -1.495  25.106  0.00  0.00    +0.355 C 
ATOM     50  OXT UNL     1       2.877  -2.488  24.674  0.00  0.00    -0.243 OA
BRANCH  49  51
ATOM     51  O   UNL     1       4.706  -1.461  25.562  0.00  0.00    -0.476 OA
ATOM     52  H   UNL     1       5.321  -1.433  24.793  0.00  0.00    +0.295 HD
ENDBRANCH  49  51
ENDBRANCH  39  49
ENDBRANCH  35  37
ENDBRANCH  31  33
ENDBRANCH  30  31
ENDBRANCH   1  30
TORSDOF 17
