REMARK VINA RESULT:    -5.319      7.470     13.038
REMARK INTER + INTRA:         -12.142
REMARK INTER:                  -9.707
REMARK INTRA:                  -2.435
REMARK UNBOUND:                -2.936
REMARK  Name = lig_assembled_93.pdb
REMARK  16 active torsions:
REMARK  status: ('A' for Active; 'I' for Inactive)
REMARK    1  A    between atoms: _2  and  _9
REMARK    2  A    between atoms: _4  and  _18
REMARK    3  A    between atoms: _6  and  _7
REMARK    4  A    between atoms: _6  and  _18
REMARK    5  A    between atoms: _14  and  _34
REMARK    6  A    between atoms: _16  and  _22
REMARK    7  A    between atoms: _17  and  _21
REMARK    8  A    between atoms: _21  and  _22
REMARK    9  A    between atoms: _24  and  _25
REMARK   10  A    between atoms: _26  and  _27
REMARK   11  A    between atoms: _28  and  _30
REMARK   12  A    between atoms: _30  and  _31
REMARK   13  A    between atoms: _30  and  _32
REMARK   14  A    between atoms: _32  and  _33
REMARK   15  A    between atoms: _32  and  _34
REMARK   16  A    between atoms: _35  and  _37
REMARK                            x       y       z     vdW  Elec       q    Type
REMARK                         _______ _______ _______ _____ _____    ______ ____
ROOT
ATOM      1  C   UNL     1      -2.032   3.606  22.678  0.00  0.00    +0.163 C 
ENDROOT
BRANCH   1   2
ATOM      2  O   UNL     1      -3.139   2.992  21.999  0.00  0.00    -0.388 OA
ATOM      3  H   UNL     1      -3.012   2.040  21.973  0.00  0.00    +0.210 HD
ENDBRANCH   1   2
BRANCH   1   4
ATOM      4  C   UNL     1      -2.492   4.176  24.016  0.00  0.00    +0.141 C 
BRANCH   4   7
ATOM      5  C   UNL     1      -0.873   4.711  25.804  0.00  0.00    +0.401 C 
ATOM      6  O   UNL     1      -0.905   5.927  25.599  0.00  0.00    -0.226 OA
ATOM      7  N   UNL     1      -1.577   3.819  25.107  0.00  0.00    -0.279 N 
ATOM      8  H   UNL     1      -1.476   2.842  25.343  0.00  0.00    +0.152 HD
BRANCH   5   9
ATOM      9  O   UNL     1      -0.032   4.205  26.843  0.00  0.00    -0.444 OA
BRANCH   9  10
ATOM     10  C   UNL     1      -0.798   3.364  27.710  0.00  0.00    +0.292 C 
BRANCH  10  12
ATOM     11  N   UNL     1       0.342   4.308  29.685  0.00  0.00    -0.131 NA
ATOM     12  C   UNL     1      -0.809   3.914  29.079  0.00  0.00    +0.121 A 
ATOM     13  C   UNL     1      -1.861   4.131  29.938  0.00  0.00    +0.143 A 
ATOM     14  N   UNL     1      -1.302   4.687  31.077  0.00  0.00    -0.219 N 
ATOM     15  N   UNL     1       0.033   4.766  30.889  0.00  0.00    -0.060 NA
BRANCH  14  16
ATOM     16  C   UNL     1      -1.970   5.131  32.262  0.00  0.00    +0.080 A 
ATOM     17  C   UNL     1      -2.761   6.301  32.168  0.00  0.00    +0.029 A 
ATOM     18  C   UNL     1      -3.436   6.824  33.274  0.00  0.00    +0.002 A 
ATOM     19  C   UNL     1      -3.344   6.193  34.503  0.00  0.00    +0.001 A 
ATOM     20  C   UNL     1      -2.578   5.036  34.624  0.00  0.00    +0.016 A 
ATOM     21  C   UNL     1      -1.890   4.493  33.517  0.00  0.00    +0.039 A 
ATOM     22  I   UNL     1      -0.823   2.735  34.016  0.00  0.00    -0.042 I 
ENDBRANCH  14  16
ENDBRANCH  10  12
ENDBRANCH   9  10
ENDBRANCH   5   9
ENDBRANCH   4   7
ENDBRANCH   1   4
BRANCH   1  23
ATOM     23  C   UNL     1      -1.418   4.729  21.825  0.00  0.00    +0.175 C 
BRANCH  23  24
ATOM     24  C   UNL     1      -0.443   4.185  20.769  0.00  0.00    +0.176 C 
ATOM     25  O   UNL     1      -1.224   3.502  19.750  0.00  0.00    -0.332 OA
ATOM     26  C   UNL     1      -0.465   3.005  18.598  0.00  0.00    +0.277 C 
ATOM     27  C   UNL     1       0.695   2.094  19.067  0.00  0.00    +0.110 C 
ATOM     28  C   UNL     1       1.535   2.765  20.174  0.00  0.00    +0.143 C 
ATOM     29  C   UNL     1       0.646   3.246  21.321  0.00  0.00    +0.133 C 
BRANCH  29  30
ATOM     30  N   UNL     1       1.446   3.960  22.328  0.00  0.00    -0.308 N 
ATOM     31  H   UNL     1       1.803   4.874  22.086  0.00  0.00    +0.149 HD
ATOM     32  C   UNL     1       1.731   3.480  23.542  0.00  0.00    +0.210 C 
ATOM     33  C   UNL     1       1.194   2.074  23.871  0.00  0.00    +0.109 C 
ATOM     34  O   UNL     1       2.392   4.107  24.371  0.00  0.00    -0.276 OA
ENDBRANCH  29  30
BRANCH  26  35
ATOM     35  C   UNL     1       0.102   4.177  17.770  0.00  0.00    +0.414 C 
ATOM     36  O   UNL     1      -0.593   5.166  17.538  0.00  0.00    -0.240 OA
ATOM     37  O   UNL     1       1.253   4.134  17.334  0.00  0.00    -0.240 OA
ENDBRANCH  26  35
BRANCH  28  38
ATOM     38  O   UNL     1       2.495   1.836  20.680  0.00  0.00    -0.390 OA
ATOM     39  H   UNL     1       2.119   1.361  21.425  0.00  0.00    +0.210 HD
ENDBRANCH  28  38
BRANCH  26  40
ATOM     40  O   UNL     1      -1.363   2.216  17.776  0.00  0.00    -0.343 OA
ATOM     41  C   UNL     1      -0.746   1.091  17.102  0.00  0.00    +0.198 C 
ENDBRANCH  26  40
ENDBRANCH  23  24
BRANCH  23  42
ATOM     42  O   UNL     1      -0.750   5.687  22.670  0.00  0.00    -0.387 OA
ATOM     43  H   UNL     1      -0.119   6.189  22.149  0.00  0.00    +0.210 HD
ENDBRANCH  23  42
ENDBRANCH   1  23
TORSDOF 14
