REMARK VINA RESULT:    -6.217     16.862     20.419
REMARK INTER + INTRA:         -12.613
REMARK INTER:                  -9.955
REMARK INTRA:                  -2.657
REMARK UNBOUND:                -1.853
REMARK  Name = lig_assembled_86.pdb
REMARK  17 active torsions:
REMARK  status: ('A' for Active; 'I' for Inactive)
REMARK    1  A    between atoms: _2  and  _10
REMARK    2  A    between atoms: _3  and  _13
REMARK    3  A    between atoms: _5  and  _21
REMARK    4  A    between atoms: _7  and  _8
REMARK    5  A    between atoms: _7  and  _21
REMARK    6  A    between atoms: _17  and  _37
REMARK    7  A    between atoms: _19  and  _25
REMARK    8  A    between atoms: _20  and  _24
REMARK    9  A    between atoms: _24  and  _25
REMARK   10  A    between atoms: _27  and  _28
REMARK   11  A    between atoms: _29  and  _30
REMARK   12  A    between atoms: _31  and  _33
REMARK   13  A    between atoms: _33  and  _34
REMARK   14  A    between atoms: _33  and  _35
REMARK   15  A    between atoms: _35  and  _36
REMARK   16  A    between atoms: _35  and  _37
REMARK   17  A    between atoms: _38  and  _40
REMARK                            x       y       z     vdW  Elec       q    Type
REMARK                         _______ _______ _______ _____ _____    ______ ____
ROOT
ATOM      1  C   UNL     1      -5.767  17.452  21.982  0.00  0.00    +0.163 C 
ENDROOT
BRANCH   1   2
ATOM      2  O   UNL     1      -6.497  18.206  22.963  0.00  0.00    -0.388 OA
ATOM      3  H   UNL     1      -6.582  17.688  23.767  0.00  0.00    +0.210 HD
ENDBRANCH   1   2
BRANCH   1   4
ATOM      4  C   UNL     1      -5.934  15.959  22.240  0.00  0.00    +0.141 C 
BRANCH   4   7
ATOM      5  C   UNL     1      -6.722  14.942  24.350  0.00  0.00    +0.401 C 
ATOM      6  O   UNL     1      -7.771  14.515  23.862  0.00  0.00    -0.226 OA
ATOM      7  N   UNL     1      -5.809  15.632  23.666  0.00  0.00    -0.279 N 
ATOM      8  H   UNL     1      -4.984  15.949  24.156  0.00  0.00    +0.152 HD
BRANCH   5   9
ATOM      9  O   UNL     1      -6.448  14.697  25.732  0.00  0.00    -0.444 OA
BRANCH   9  10
ATOM     10  C   UNL     1      -7.441  15.340  26.536  0.00  0.00    +0.292 C 
BRANCH  10  12
ATOM     11  N   UNL     1      -6.453  16.655  28.392  0.00  0.00    -0.131 NA
ATOM     12  C   UNL     1      -6.907  16.594  27.101  0.00  0.00    +0.120 A 
ATOM     13  C   UNL     1      -6.751  17.827  26.514  0.00  0.00    +0.137 A 
ATOM     14  N   UNL     1      -6.167  18.584  27.483  0.00  0.00    -0.248 N 
ATOM     15  N   UNL     1      -6.017  17.887  28.623  0.00  0.00    -0.065 NA
BRANCH  14  16
ATOM     16  C   UNL     1      -5.725  19.966  27.377  0.00  0.00    +0.112 C 
ATOM     17  C   UNL     1      -4.234  20.122  27.744  0.00  0.00    +0.045 C 
ATOM     18  C   UNL     1      -3.424  20.982  26.769  0.00  0.00    +0.059 C 
ATOM     19  C   UNL     1      -3.104  20.209  25.485  0.00  0.00    +0.020 C 
ATOM     20  C   UNL     1      -4.225  20.586  24.520  0.00  0.00    +0.020 C 
ATOM     21  C   UNL     1      -5.154  21.482  25.342  0.00  0.00    +0.059 C 
ATOM     22  N   UNL     1      -4.187  22.112  26.242  0.00  0.00    -0.299 NA
ATOM     23  C   UNL     1      -4.723  23.049  27.210  0.00  0.00    +0.105 C 
ATOM     24  C   UNL     1      -6.214  20.655  26.083  0.00  0.00    +0.045 C 
ENDBRANCH  14  16
ENDBRANCH  10  12
ENDBRANCH   9  10
ENDBRANCH   5   9
ENDBRANCH   4   7
ENDBRANCH   1   4
BRANCH   1  25
ATOM     25  C   UNL     1      -4.272  17.814  22.011  0.00  0.00    +0.175 C 
BRANCH  25  26
ATOM     26  C   UNL     1      -3.944  18.994  21.084  0.00  0.00    +0.176 C 
ATOM     27  O   UNL     1      -4.895  18.975  19.984  0.00  0.00    -0.332 OA
ATOM     28  C   UNL     1      -4.802  20.098  19.046  0.00  0.00    +0.277 C 
ATOM     29  C   UNL     1      -3.362  20.222  18.491  0.00  0.00    +0.110 C 
ATOM     30  C   UNL     1      -2.313  20.214  19.622  0.00  0.00    +0.143 C 
ATOM     31  C   UNL     1      -2.504  19.005  20.539  0.00  0.00    +0.133 C 
BRANCH  31  32
ATOM     32  N   UNL     1      -1.554  19.055  21.662  0.00  0.00    -0.308 N 
ATOM     33  H   UNL     1      -1.712  19.746  22.383  0.00  0.00    +0.149 HD
ATOM     34  C   UNL     1      -0.498  18.248  21.792  0.00  0.00    +0.210 C 
ATOM     35  C   UNL     1      -0.270  17.224  20.664  0.00  0.00    +0.109 C 
ATOM     36  O   UNL     1       0.272  18.303  22.751  0.00  0.00    -0.276 OA
ENDBRANCH  31  32
BRANCH  28  37
ATOM     37  C   UNL     1      -5.205  21.420  19.733  0.00  0.00    +0.414 C 
ATOM     38  O   UNL     1      -6.089  21.429  20.589  0.00  0.00    -0.240 OA
ATOM     39  O   UNL     1      -4.646  22.475  19.433  0.00  0.00    -0.240 OA
ENDBRANCH  28  37
BRANCH  30  40
ATOM     40  O   UNL     1      -1.000  20.176  19.062  0.00  0.00    -0.390 OA
ATOM     41  H   UNL     1      -1.037  20.441  18.140  0.00  0.00    +0.210 HD
ENDBRANCH  30  40
BRANCH  28  42
ATOM     42  O   UNL     1      -5.699  19.832  17.937  0.00  0.00    -0.343 OA
ATOM     43  C   UNL     1      -6.881  19.065  18.276  0.00  0.00    +0.198 C 
ENDBRANCH  28  42
ENDBRANCH  25  26
BRANCH  25  44
ATOM     44  O   UNL     1      -3.476  16.666  21.654  0.00  0.00    -0.387 OA
ATOM     45  H   UNL     1      -2.632  16.959  21.300  0.00  0.00    +0.210 HD
ENDBRANCH  25  44
ENDBRANCH   1  25
TORSDOF 14
