REMARK VINA RESULT:    -6.205     13.701     15.404
REMARK INTER + INTRA:         -13.020
REMARK INTER:                 -10.512
REMARK INTRA:                  -2.507
REMARK UNBOUND:                -1.736
REMARK  Name = lig_assembled_59.pdb
REMARK  18 active torsions:
REMARK  status: ('A' for Active; 'I' for Inactive)
REMARK    1  A    between atoms: _2  and  _10
REMARK    2  A    between atoms: _5  and  _20
REMARK    3  A    between atoms: _7  and  _8
REMARK    4  A    between atoms: _7  and  _20
REMARK    5  A    between atoms: _13  and  _14
REMARK    6  A    between atoms: _14  and  _15
REMARK    7  A    between atoms: _16  and  _36
REMARK    8  A    between atoms: _18  and  _24
REMARK    9  A    between atoms: _19  and  _23
REMARK   10  A    between atoms: _23  and  _24
REMARK   11  A    between atoms: _26  and  _27
REMARK   12  A    between atoms: _28  and  _29
REMARK   13  A    between atoms: _30  and  _32
REMARK   14  A    between atoms: _32  and  _33
REMARK   15  A    between atoms: _32  and  _34
REMARK   16  A    between atoms: _34  and  _35
REMARK   17  A    between atoms: _34  and  _36
REMARK   18  A    between atoms: _37  and  _39
REMARK                            x       y       z     vdW  Elec       q    Type
REMARK                         _______ _______ _______ _____ _____    ______ ____
ROOT
ATOM      1  C   UNL     1      18.649  10.413  29.185  0.00  0.00    +0.163 C 
ENDROOT
BRANCH   1   2
ATOM      2  O   UNL     1      17.334  10.925  29.457  0.00  0.00    -0.388 OA
ATOM      3  H   UNL     1      16.690  10.218  29.366  0.00  0.00    +0.210 HD
ENDBRANCH   1   2
BRANCH   1   4
ATOM      4  C   UNL     1      18.814   8.992  29.751  0.00  0.00    +0.175 C 
BRANCH   4   5
ATOM      5  C   UNL     1      18.064   8.808  31.078  0.00  0.00    +0.176 C 
ATOM      6  O   UNL     1      18.322   9.976  31.904  0.00  0.00    -0.332 OA
ATOM      7  C   UNL     1      17.597  10.025  33.178  0.00  0.00    +0.277 C 
ATOM      8  C   UNL     1      17.855   8.737  33.997  0.00  0.00    +0.110 C 
ATOM      9  C   UNL     1      17.624   7.467  33.151  0.00  0.00    +0.143 C 
ATOM     10  C   UNL     1      18.423   7.523  31.848  0.00  0.00    +0.133 C 
BRANCH  10  11
ATOM     11  N   UNL     1      18.127   6.350  31.011  0.00  0.00    -0.308 N 
ATOM     12  H   UNL     1      17.199   6.273  30.618  0.00  0.00    +0.149 HD
ATOM     13  C   UNL     1      19.003   5.380  30.738  0.00  0.00    +0.210 C 
ATOM     14  C   UNL     1      20.400   5.513  31.374  0.00  0.00    +0.109 C 
ATOM     15  O   UNL     1      18.732   4.415  30.022  0.00  0.00    -0.276 OA
ENDBRANCH  10  11
BRANCH   7  16
ATOM     16  C   UNL     1      16.082  10.189  32.938  0.00  0.00    +0.414 C 
ATOM     17  O   UNL     1      15.669  11.001  32.111  0.00  0.00    -0.240 OA
ATOM     18  O   UNL     1      15.273   9.510  33.572  0.00  0.00    -0.240 OA
ENDBRANCH   7  16
BRANCH   7  19
ATOM     19  O   UNL     1      18.097  11.157  33.935  0.00  0.00    -0.343 OA
ATOM     20  C   UNL     1      19.043  11.998  33.228  0.00  0.00    +0.198 C 
ENDBRANCH   7  19
BRANCH   9  21
ATOM     21  O   UNL     1      18.017   6.314  33.895  0.00  0.00    -0.390 OA
ATOM     22  H   UNL     1      17.380   6.151  34.594  0.00  0.00    +0.210 HD
ENDBRANCH   9  21
ENDBRANCH   4   5
BRANCH   4  23
ATOM     23  O   UNL     1      20.212   8.686  29.924  0.00  0.00    -0.387 OA
ATOM     24  H   UNL     1      20.329   7.734  29.961  0.00  0.00    +0.210 HD
ENDBRANCH   4  23
ENDBRANCH   1   4
BRANCH   1  25
ATOM     25  C   UNL     1      18.901  10.395  27.681  0.00  0.00    +0.141 C 
BRANCH  25  28
ATOM     26  C   UNL     1      20.205   8.790  26.330  0.00  0.00    +0.401 C 
ATOM     27  O   UNL     1      20.934   9.653  25.836  0.00  0.00    -0.226 OA
ATOM     28  N   UNL     1      19.225   9.048  27.196  0.00  0.00    -0.279 N 
ATOM     29  H   UNL     1      18.675   8.273  27.539  0.00  0.00    +0.152 HD
BRANCH  26  30
ATOM     30  O   UNL     1      20.402   7.422  25.962  0.00  0.00    -0.444 OA
BRANCH  30  31
ATOM     31  C   UNL     1      19.415   6.609  26.603  0.00  0.00    +0.292 C 
BRANCH  31  33
ATOM     32  N   UNL     1      19.094   5.590  24.373  0.00  0.00    -0.131 NA
ATOM     33  C   UNL     1      19.046   5.475  25.735  0.00  0.00    +0.121 A 
ATOM     34  C   UNL     1      18.619   4.209  26.064  0.00  0.00    +0.145 A 
ATOM     35  N   UNL     1      18.419   3.579  24.857  0.00  0.00    -0.202 N 
ATOM     36  N   UNL     1      18.716   4.434  23.845  0.00  0.00    -0.059 NA
BRANCH  35  37
ATOM     37  C   UNL     1      17.959   2.252  24.641  0.00  0.00    +0.156 A 
ATOM     38  C   UNL     1      18.181   1.650  23.404  0.00  0.00    +0.048 A 
ATOM     39  C   UNL     1      17.691   0.364  23.186  0.00  0.00    +0.011 A 
ATOM     40  C   UNL     1      16.998  -0.300  24.200  0.00  0.00    -0.004 A 
ATOM     41  C   UNL     1      16.824   0.380  25.403  0.00  0.00    +0.119 A 
ATOM     42  N   UNL     1      17.293   1.626  25.650  0.00  0.00    -0.236 NA
BRANCH  40  43
ATOM     43  C   UNL     1      16.382  -1.646  23.955  0.00  0.00    +0.192 C 
BRANCH  43  44
ATOM     44  O   UNL     1      15.118  -1.761  24.591  0.00  0.00    -0.390 OA
ATOM     45  H   UNL     1      15.279  -2.136  25.475  0.00  0.00    +0.210 HD
ENDBRANCH  43  44
ENDBRANCH  40  43
ENDBRANCH  35  37
ENDBRANCH  31  33
ENDBRANCH  30  31
ENDBRANCH  26  30
ENDBRANCH  25  28
ENDBRANCH   1  25
TORSDOF 16
