REMARK VINA RESULT:    -5.925      6.382     12.027
REMARK INTER + INTRA:         -12.445
REMARK INTER:                 -10.903
REMARK INTRA:                  -1.542
REMARK UNBOUND:                -2.191
REMARK  Name = lig_assembled_48.pdb
REMARK  16 active torsions:
REMARK  status: ('A' for Active; 'I' for Inactive)
REMARK    1  A    between atoms: _2  and  _9
REMARK    2  A    between atoms: _4  and  _18
REMARK    3  A    between atoms: _6  and  _7
REMARK    4  A    between atoms: _6  and  _18
REMARK    5  A    between atoms: _14  and  _34
REMARK    6  A    between atoms: _16  and  _22
REMARK    7  A    between atoms: _17  and  _21
REMARK    8  A    between atoms: _21  and  _22
REMARK    9  A    between atoms: _24  and  _25
REMARK   10  A    between atoms: _26  and  _27
REMARK   11  A    between atoms: _28  and  _30
REMARK   12  A    between atoms: _30  and  _31
REMARK   13  A    between atoms: _30  and  _32
REMARK   14  A    between atoms: _32  and  _33
REMARK   15  A    between atoms: _32  and  _34
REMARK   16  A    between atoms: _35  and  _37
REMARK                            x       y       z     vdW  Elec       q    Type
REMARK                         _______ _______ _______ _____ _____    ______ ____
ROOT
ATOM      1  C   UNL     1       7.263   2.452  34.350  0.00  0.00    +0.163 C 
ENDROOT
BRANCH   1   2
ATOM      2  O   UNL     1       7.243   2.463  35.787  0.00  0.00    -0.388 OA
ATOM      3  H   UNL     1       8.088   2.780  36.116  0.00  0.00    +0.210 HD
ENDBRANCH   1   2
BRANCH   1   4
ATOM      4  C   UNL     1       8.180   1.341  33.849  0.00  0.00    +0.141 C 
BRANCH   4   7
ATOM      5  C   UNL     1      10.406   1.616  34.885  0.00  0.00    +0.401 C 
ATOM      6  O   UNL     1      10.065   1.136  35.969  0.00  0.00    -0.226 OA
ATOM      7  N   UNL     1       9.588   1.756  33.841  0.00  0.00    -0.279 N 
ATOM      8  H   UNL     1       9.958   2.171  32.998  0.00  0.00    +0.152 HD
BRANCH   5   9
ATOM      9  O   UNL     1      11.754   2.061  34.717  0.00  0.00    -0.444 OA
BRANCH   9  10
ATOM     10  C   UNL     1      12.027   3.119  35.639  0.00  0.00    +0.292 C 
BRANCH  10  12
ATOM     11  N   UNL     1      13.769   4.029  34.142  0.00  0.00    -0.131 NA
ATOM     12  C   UNL     1      13.375   3.666  35.398  0.00  0.00    +0.120 A 
ATOM     13  C   UNL     1      14.398   3.926  36.284  0.00  0.00    +0.137 A 
ATOM     14  N   UNL     1      15.353   4.533  35.524  0.00  0.00    -0.248 N 
ATOM     15  N   UNL     1      14.996   4.523  34.221  0.00  0.00    -0.065 NA
BRANCH  14  16
ATOM     16  C   UNL     1      16.593   5.199  35.906  0.00  0.00    +0.109 C 
ATOM     17  C   UNL     1      16.797   6.495  35.098  0.00  0.00    +0.027 C 
ATOM     18  C   UNL     1      15.831   7.590  35.544  0.00  0.00    +0.002 C 
ATOM     19  C   UNL     1      16.026   7.917  37.019  0.00  0.00    +0.000 C 
ATOM     20  C   UNL     1      15.920   6.682  37.911  0.00  0.00    +0.002 C 
ATOM     21  C   UNL     1      16.756   5.499  37.409  0.00  0.00    +0.027 C 
ENDBRANCH  14  16
ENDBRANCH  10  12
ENDBRANCH   9  10
ENDBRANCH   5   9
ENDBRANCH   4   7
ENDBRANCH   1   4
BRANCH   1  22
ATOM     22  C   UNL     1       7.743   3.804  33.796  0.00  0.00    +0.175 C 
BRANCH  22  23
ATOM     23  C   UNL     1       7.124   4.990  34.550  0.00  0.00    +0.176 C 
ATOM     24  O   UNL     1       7.828   5.134  35.814  0.00  0.00    -0.332 OA
ATOM     25  C   UNL     1       7.441   6.289  36.628  0.00  0.00    +0.277 C 
ATOM     26  C   UNL     1       5.913   6.287  36.878  0.00  0.00    +0.110 C 
ATOM     27  C   UNL     1       5.121   6.105  35.566  0.00  0.00    +0.143 C 
ATOM     28  C   UNL     1       5.608   4.876  34.797  0.00  0.00    +0.133 C 
BRANCH  28  29
ATOM     29  N   UNL     1       4.907   4.763  33.509  0.00  0.00    -0.308 N 
ATOM     30  H   UNL     1       5.119   5.446  32.795  0.00  0.00    +0.149 HD
ATOM     31  C   UNL     1       4.008   3.818  33.221  0.00  0.00    +0.210 C 
ATOM     32  C   UNL     1       3.687   2.809  34.339  0.00  0.00    +0.109 C 
ATOM     33  O   UNL     1       3.447   3.739  32.128  0.00  0.00    -0.276 OA
ENDBRANCH  28  29
BRANCH  25  34
ATOM     34  C   UNL     1       7.848   7.607  35.937  0.00  0.00    +0.414 C 
ATOM     35  O   UNL     1       8.173   8.585  36.609  0.00  0.00    -0.240 OA
ATOM     36  O   UNL     1       7.853   7.692  34.708  0.00  0.00    -0.240 OA
ENDBRANCH  25  34
BRANCH  27  37
ATOM     37  O   UNL     1       3.731   5.958  35.858  0.00  0.00    -0.390 OA
ATOM     38  H   UNL     1       3.486   6.562  36.563  0.00  0.00    +0.210 HD
ENDBRANCH  27  37
BRANCH  25  39
ATOM     39  O   UNL     1       8.114   6.182  37.909  0.00  0.00    -0.343 OA
ATOM     40  C   UNL     1       9.425   5.565  37.862  0.00  0.00    +0.198 C 
ENDBRANCH  25  39
ENDBRANCH  22  23
BRANCH  22  41
ATOM     41  O   UNL     1       7.443   3.899  32.389  0.00  0.00    -0.387 OA
ATOM     42  H   UNL     1       7.287   4.818  32.156  0.00  0.00    +0.210 HD
ENDBRANCH  22  41
ENDBRANCH   1  22
TORSDOF 14
