REMARK VINA RESULT:    -5.812      6.385      9.500
REMARK INTER + INTRA:         -12.652
REMARK INTER:                 -10.583
REMARK INTRA:                  -2.070
REMARK UNBOUND:                -2.083
REMARK  Name = lig_assembled_35.pdb
REMARK  19 active torsions:
REMARK  status: ('A' for Active; 'I' for Inactive)
REMARK    1  A    between atoms: _2  and  _9
REMARK    2  A    between atoms: _4  and  _17
REMARK    3  A    between atoms: _5  and  _9
REMARK    4  A    between atoms: _5  and  _11
REMARK    5  A    between atoms: _6  and  _7
REMARK    6  A    between atoms: _6  and  _17
REMARK    7  A    between atoms: _9  and  _10
REMARK    8  A    between atoms: _13  and  _33
REMARK    9  A    between atoms: _15  and  _21
REMARK   10  A    between atoms: _16  and  _20
REMARK   11  A    between atoms: _20  and  _21
REMARK   12  A    between atoms: _23  and  _24
REMARK   13  A    between atoms: _25  and  _26
REMARK   14  A    between atoms: _27  and  _29
REMARK   15  A    between atoms: _29  and  _30
REMARK   16  A    between atoms: _29  and  _31
REMARK   17  A    between atoms: _31  and  _32
REMARK   18  A    between atoms: _31  and  _33
REMARK   19  A    between atoms: _34  and  _36
REMARK                            x       y       z     vdW  Elec       q    Type
REMARK                         _______ _______ _______ _____ _____    ______ ____
ROOT
ATOM      1  C   UNL     1      18.790  10.233  29.306  0.00  0.00    +0.163 C 
ENDROOT
BRANCH   1   2
ATOM      2  O   UNL     1      17.478  10.817  29.373  0.00  0.00    -0.388 OA
ATOM      3  H   UNL     1      17.556  11.769  29.465  0.00  0.00    +0.210 HD
ENDBRANCH   1   2
BRANCH   1   4
ATOM      4  C   UNL     1      18.796   8.823  29.922  0.00  0.00    +0.175 C 
BRANCH   4   5
ATOM      5  C   UNL     1      18.016   8.766  31.244  0.00  0.00    +0.176 C 
ATOM      6  O   UNL     1      18.281   9.996  31.973  0.00  0.00    -0.332 OA
ATOM      7  C   UNL     1      17.533  10.167  33.221  0.00  0.00    +0.277 C 
ATOM      8  C   UNL     1      17.749   8.949  34.153  0.00  0.00    +0.110 C 
ATOM      9  C   UNL     1      17.509   7.616  33.413  0.00  0.00    +0.143 C 
ATOM     10  C   UNL     1      18.334   7.546  32.128  0.00  0.00    +0.133 C 
BRANCH  10  11
ATOM     11  N   UNL     1      18.032   6.310  31.388  0.00  0.00    -0.308 N 
ATOM     12  H   UNL     1      17.122   6.230  30.957  0.00  0.00    +0.149 HD
ATOM     13  C   UNL     1      18.882   5.289  31.249  0.00  0.00    +0.210 C 
ATOM     14  C   UNL     1      20.251   5.432  31.939  0.00  0.00    +0.109 C 
ATOM     15  O   UNL     1      18.606   4.272  30.611  0.00  0.00    -0.276 OA
ENDBRANCH  10  11
BRANCH   7  16
ATOM     16  C   UNL     1      16.026  10.337  32.937  0.00  0.00    +0.414 C 
ATOM     17  O   UNL     1      15.196   9.707  33.592  0.00  0.00    -0.240 OA
ATOM     18  O   UNL     1      15.640  11.103  32.053  0.00  0.00    -0.240 OA
ENDBRANCH   7  16
BRANCH   7  19
ATOM     19  O   UNL     1      18.040  11.350  33.890  0.00  0.00    -0.343 OA
ATOM     20  C   UNL     1      17.789  11.402  35.317  0.00  0.00    +0.198 C 
ENDBRANCH   7  19
BRANCH   9  21
ATOM     21  O   UNL     1      17.865   6.524  34.261  0.00  0.00    -0.390 OA
ATOM     22  H   UNL     1      17.812   6.800  35.179  0.00  0.00    +0.210 HD
ENDBRANCH   9  21
ENDBRANCH   4   5
BRANCH   4  23
ATOM     23  O   UNL     1      20.151   8.375  30.125  0.00  0.00    -0.387 OA
ATOM     24  H   UNL     1      20.683   8.609  29.361  0.00  0.00    +0.210 HD
ENDBRANCH   4  23
ENDBRANCH   1   4
BRANCH   1  25
ATOM     25  C   UNL     1      19.254  10.157  27.855  0.00  0.00    +0.141 C 
BRANCH  25  28
ATOM     26  C   UNL     1      19.680   8.108  26.542  0.00  0.00    +0.401 C 
ATOM     27  O   UNL     1      20.878   8.348  26.379  0.00  0.00    -0.226 OA
ATOM     28  N   UNL     1      18.845   8.902  27.214  0.00  0.00    -0.279 N 
ATOM     29  H   UNL     1      17.876   8.624  27.286  0.00  0.00    +0.152 HD
BRANCH  26  30
ATOM     30  O   UNL     1      19.128   6.913  25.983  0.00  0.00    -0.444 OA
BRANCH  30  31
ATOM     31  C   UNL     1      19.618   6.739  24.651  0.00  0.00    +0.292 C 
BRANCH  31  33
ATOM     32  N   UNL     1      17.769   6.320  23.060  0.00  0.00    -0.131 NA
ATOM     33  C   UNL     1      18.735   5.828  23.896  0.00  0.00    +0.120 A 
ATOM     34  C   UNL     1      18.691   4.452  23.873  0.00  0.00    +0.138 A 
ATOM     35  N   UNL     1      17.688   4.168  22.993  0.00  0.00    -0.238 N 
ATOM     36  N   UNL     1      17.123   5.294  22.524  0.00  0.00    -0.065 NA
BRANCH  35  37
ATOM     37  C   UNL     1      17.173   2.885  22.558  0.00  0.00    +0.214 C 
ATOM     38  C   UNL     1      16.420   3.017  21.238  0.00  0.00    +0.045 C 
BRANCH  37  39
ATOM     39  C   UNL     1      18.270   1.842  22.487  0.00  0.00    +0.329 C 
ATOM     40  O   UNL     1      19.119   1.790  21.607  0.00  0.00    -0.249 OA
BRANCH  39  41
ATOM     41  O   UNL     1      18.232   0.921  23.482  0.00  0.00    -0.479 OA
ATOM     42  H   UNL     1      17.381   0.845  23.959  0.00  0.00    +0.295 HD
ENDBRANCH  39  41
ENDBRANCH  37  39
ENDBRANCH  35  37
ENDBRANCH  31  33
ENDBRANCH  30  31
ENDBRANCH  26  30
ENDBRANCH  25  28
ENDBRANCH   1  25
TORSDOF 16
