REMARK VINA RESULT:    -5.807     15.200     16.958
REMARK INTER + INTRA:         -12.542
REMARK INTER:                 -10.298
REMARK INTRA:                  -2.244
REMARK UNBOUND:                -2.491
REMARK  Name = lig_assembled_57.pdb
REMARK  17 active torsions:
REMARK  status: ('A' for Active; 'I' for Inactive)
REMARK    1  A    between atoms: _2  and  _10
REMARK    2  A    between atoms: _3  and  _13
REMARK    3  A    between atoms: _5  and  _19
REMARK    4  A    between atoms: _7  and  _8
REMARK    5  A    between atoms: _7  and  _19
REMARK    6  A    between atoms: _15  and  _35
REMARK    7  A    between atoms: _17  and  _23
REMARK    8  A    between atoms: _18  and  _22
REMARK    9  A    between atoms: _22  and  _23
REMARK   10  A    between atoms: _25  and  _26
REMARK   11  A    between atoms: _27  and  _28
REMARK   12  A    between atoms: _29  and  _31
REMARK   13  A    between atoms: _31  and  _32
REMARK   14  A    between atoms: _31  and  _33
REMARK   15  A    between atoms: _33  and  _34
REMARK   16  A    between atoms: _33  and  _35
REMARK   17  A    between atoms: _36  and  _38
REMARK                            x       y       z     vdW  Elec       q    Type
REMARK                         _______ _______ _______ _____ _____    ______ ____
ROOT
ATOM      1  C   UNL     1      18.335   5.850  23.391  0.00  0.00    +0.163 C 
ENDROOT
BRANCH   1   2
ATOM      2  O   UNL     1      17.693   7.004  23.957  0.00  0.00    -0.388 OA
ATOM      3  H   UNL     1      16.744   6.861  23.987  0.00  0.00    +0.210 HD
ENDBRANCH   1   2
BRANCH   1   4
ATOM      4  C   UNL     1      17.333   5.048  22.566  0.00  0.00    +0.141 C 
BRANCH   4   7
ATOM      5  C   UNL     1      16.999   2.677  21.956  0.00  0.00    +0.401 C 
ATOM      6  O   UNL     1      16.389   2.934  20.915  0.00  0.00    -0.226 OA
ATOM      7  N   UNL     1      17.471   3.604  22.790  0.00  0.00    -0.279 N 
ATOM      8  H   UNL     1      17.951   3.295  23.624  0.00  0.00    +0.152 HD
BRANCH   5   9
ATOM      9  O   UNL     1      17.223   1.310  22.311  0.00  0.00    -0.444 OA
BRANCH   9  10
ATOM     10  C   UNL     1      17.988   1.249  23.518  0.00  0.00    +0.292 C 
BRANCH  10  12
ATOM     11  N   UNL     1      18.967  -0.666  24.731  0.00  0.00    -0.131 NA
ATOM     12  C   UNL     1      17.892  -0.099  24.108  0.00  0.00    +0.120 A 
ATOM     13  C   UNL     1      16.822  -0.964  24.177  0.00  0.00    +0.137 A 
ATOM     14  N   UNL     1      17.281  -2.002  24.932  0.00  0.00    -0.248 N 
ATOM     15  N   UNL     1      18.595  -1.846  25.198  0.00  0.00    -0.065 NA
BRANCH  14  16
ATOM     16  C   UNL     1      16.587  -3.147  25.511  0.00  0.00    +0.111 C 
ATOM     17  C   UNL     1      15.565  -3.723  24.518  0.00  0.00    +0.042 C 
ATOM     18  C   UNL     1      16.275  -4.494  23.407  0.00  0.00    +0.086 C 
ATOM     19  N   UNL     1      17.092  -5.602  23.913  0.00  0.00    -0.305 NA
ATOM     20  C   UNL     1      18.056  -5.172  24.927  0.00  0.00    +0.086 C 
ATOM     21  C   UNL     1      16.282  -6.737  24.346  0.00  0.00    +0.104 C 
ATOM     22  C   UNL     1      17.476  -4.285  26.038  0.00  0.00    +0.042 C 
ENDBRANCH  14  16
ENDBRANCH  10  12
ENDBRANCH   9  10
ENDBRANCH   5   9
ENDBRANCH   4   7
ENDBRANCH   1   4
BRANCH   1  23
ATOM     23  C   UNL     1      18.927   4.954  24.492  0.00  0.00    +0.175 C 
BRANCH  23  24
ATOM     24  C   UNL     1      18.889   5.631  25.871  0.00  0.00    +0.176 C 
ATOM     25  O   UNL     1      20.098   6.426  26.013  0.00  0.00    -0.332 OA
ATOM     26  C   UNL     1      20.186   7.233  27.233  0.00  0.00    +0.277 C 
ATOM     27  C   UNL     1      19.994   6.344  28.486  0.00  0.00    +0.110 C 
ATOM     28  C   UNL     1      18.737   5.456  28.367  0.00  0.00    +0.143 C 
ATOM     29  C   UNL     1      18.747   4.663  27.060  0.00  0.00    +0.133 C 
BRANCH  29  30
ATOM     30  N   UNL     1      17.504   3.888  26.918  0.00  0.00    -0.308 N 
ATOM     31  H   UNL     1      16.648   4.397  26.750  0.00  0.00    +0.149 HD
ATOM     32  C   UNL     1      17.434   2.557  26.997  0.00  0.00    +0.210 C 
ATOM     33  C   UNL     1      18.752   1.812  27.280  0.00  0.00    +0.109 C 
ATOM     34  O   UNL     1      16.381   1.933  26.859  0.00  0.00    -0.276 OA
ENDBRANCH  29  30
BRANCH  26  35
ATOM     35  C   UNL     1      19.123   8.351  27.227  0.00  0.00    +0.414 C 
ATOM     36  O   UNL     1      18.386   8.501  26.253  0.00  0.00    -0.240 OA
ATOM     37  O   UNL     1      19.001   9.103  28.195  0.00  0.00    -0.240 OA
ENDBRANCH  26  35
BRANCH  28  38
ATOM     38  O   UNL     1      18.682   4.549  29.468  0.00  0.00    -0.390 OA
ATOM     39  H   UNL     1      17.781   4.239  29.584  0.00  0.00    +0.210 HD
ENDBRANCH  28  38
BRANCH  26  40
ATOM     40  O   UNL     1      21.512   7.821  27.288  0.00  0.00    -0.343 OA
ATOM     41  C   UNL     1      21.885   8.599  26.123  0.00  0.00    +0.198 C 
ENDBRANCH  26  40
ENDBRANCH  23  24
BRANCH  23  42
ATOM     42  O   UNL     1      20.280   4.585  24.158  0.00  0.00    -0.387 OA
ATOM     43  H   UNL     1      20.269   3.829  23.568  0.00  0.00    +0.210 HD
ENDBRANCH  23  42
ENDBRANCH   1  23
TORSDOF 14
