REMARK VINA RESULT:    -6.420     13.018     19.333
REMARK INTER + INTRA:         -13.445
REMARK INTER:                 -11.203
REMARK INTRA:                  -2.242
REMARK UNBOUND:                -2.334
REMARK  Name = lig_assembled_15.pdb
REMARK  16 active torsions:
REMARK  status: ('A' for Active; 'I' for Inactive)
REMARK    1  A    between atoms: _2  and  _9
REMARK    2  A    between atoms: _4  and  _18
REMARK    3  A    between atoms: _6  and  _7
REMARK    4  A    between atoms: _6  and  _18
REMARK    5  A    between atoms: _14  and  _34
REMARK    6  A    between atoms: _16  and  _22
REMARK    7  A    between atoms: _17  and  _21
REMARK    8  A    between atoms: _21  and  _22
REMARK    9  A    between atoms: _24  and  _25
REMARK   10  A    between atoms: _26  and  _27
REMARK   11  A    between atoms: _28  and  _30
REMARK   12  A    between atoms: _30  and  _31
REMARK   13  A    between atoms: _30  and  _32
REMARK   14  A    between atoms: _32  and  _33
REMARK   15  A    between atoms: _32  and  _34
REMARK   16  A    between atoms: _35  and  _37
REMARK                            x       y       z     vdW  Elec       q    Type
REMARK                         _______ _______ _______ _____ _____    ______ ____
ROOT
ATOM      1  C   UNL     1       6.279  -0.023  13.697  0.00  0.00    +0.163 C 
ENDROOT
BRANCH   1   2
ATOM      2  O   UNL     1       7.703   0.161  13.747  0.00  0.00    -0.388 OA
ATOM      3  H   UNL     1       8.128  -0.675  13.954  0.00  0.00    +0.210 HD
ENDBRANCH   1   2
BRANCH   1   4
ATOM      4  C   UNL     1       5.673   0.219  15.075  0.00  0.00    +0.141 C 
BRANCH   4   7
ATOM      5  C   UNL     1       3.231   0.580  15.192  0.00  0.00    +0.401 C 
ATOM      6  O   UNL     1       2.973  -0.601  15.436  0.00  0.00    -0.226 OA
ATOM      7  N   UNL     1       4.464   1.050  15.003  0.00  0.00    -0.279 N 
ATOM      8  H   UNL     1       4.574   2.034  14.799  0.00  0.00    +0.152 HD
BRANCH   5   9
ATOM      9  O   UNL     1       2.157   1.519  15.098  0.00  0.00    -0.444 OA
BRANCH   9  10
ATOM     10  C   UNL     1       1.139   1.178  16.042  0.00  0.00    +0.292 C 
BRANCH  10  12
ATOM     11  N   UNL     1       1.085   3.370  17.188  0.00  0.00    -0.131 NA
ATOM     12  C   UNL     1       1.257   2.018  17.249  0.00  0.00    +0.121 A 
ATOM     13  C   UNL     1       1.525   1.658  18.550  0.00  0.00    +0.143 A 
ATOM     14  N   UNL     1       1.477   2.835  19.261  0.00  0.00    -0.220 N 
ATOM     15  N   UNL     1       1.226   3.860  18.412  0.00  0.00    -0.060 NA
BRANCH  14  16
ATOM     16  C   UNL     1       1.622   3.033  20.660  0.00  0.00    +0.067 A 
ATOM     17  C   UNL     1       1.608   4.323  21.210  0.00  0.00    +0.029 A 
ATOM     18  C   UNL     1       1.793   4.500  22.585  0.00  0.00    +0.017 A 
ATOM     19  C   UNL     1       1.987   3.394  23.410  0.00  0.00    +0.018 A 
ATOM     20 BR   UNL     1       2.264   3.644  25.263  0.00  0.00    -0.050 Br
ATOM     21  C   UNL     1       1.987   2.107  22.876  0.00  0.00    +0.017 A 
ATOM     22  C   UNL     1       1.802   1.924  21.503  0.00  0.00    +0.029 A 
ENDBRANCH  14  16
ENDBRANCH  10  12
ENDBRANCH   9  10
ENDBRANCH   5   9
ENDBRANCH   4   7
ENDBRANCH   1   4
BRANCH   1  23
ATOM     23  C   UNL     1       5.925  -1.443  13.222  0.00  0.00    +0.175 C 
BRANCH  23  24
ATOM     24  C   UNL     1       6.670  -1.825  11.935  0.00  0.00    +0.176 C 
ATOM     25  O   UNL     1       6.550  -0.715  11.003  0.00  0.00    -0.332 OA
ATOM     26  C   UNL     1       7.294  -0.858   9.748  0.00  0.00    +0.277 C 
ATOM     27  C   UNL     1       6.911  -2.180   9.039  0.00  0.00    +0.110 C 
ATOM     28  C   UNL     1       6.992  -3.385   9.999  0.00  0.00    +0.143 C 
ATOM     29  C   UNL     1       6.186  -3.128  11.273  0.00  0.00    +0.133 C 
BRANCH  29  30
ATOM     30  N   UNL     1       6.342  -4.246  12.216  0.00  0.00    -0.308 N 
ATOM     31  H   UNL     1       7.253  -4.394  12.626  0.00  0.00    +0.149 HD
ATOM     32  C   UNL     1       5.357  -5.079  12.566  0.00  0.00    +0.210 C 
ATOM     33  C   UNL     1       3.986  -4.843  11.905  0.00  0.00    +0.109 C 
ATOM     34  O   UNL     1       5.514  -5.998  13.371  0.00  0.00    -0.276 OA
ENDBRANCH  29  30
BRANCH  26  35
ATOM     35  C   UNL     1       8.815  -0.834  10.008  0.00  0.00    +0.414 C 
ATOM     36  O   UNL     1       9.285  -0.095  10.872  0.00  0.00    -0.240 OA
ATOM     37  O   UNL     1       9.571  -1.554   9.354  0.00  0.00    -0.240 OA
ENDBRANCH  26  35
BRANCH  28  38
ATOM     38  O   UNL     1       6.488  -4.553   9.350  0.00  0.00    -0.390 OA
ATOM     39  H   UNL     1       6.141  -4.316   8.487  0.00  0.00    +0.210 HD
ENDBRANCH  28  38
BRANCH  26  40
ATOM     40  O   UNL     1       6.930   0.248   8.882  0.00  0.00    -0.343 OA
ATOM     41  C   UNL     1       6.963  -0.049   7.463  0.00  0.00    +0.198 C 
ENDBRANCH  26  40
ENDBRANCH  23  24
BRANCH  23  42
ATOM     42  O   UNL     1       4.501  -1.560  13.026  0.00  0.00    -0.387 OA
ATOM     43  H   UNL     1       4.165  -2.291  13.550  0.00  0.00    +0.210 HD
ENDBRANCH  23  42
ENDBRANCH   1  23
TORSDOF 14
