REMARK VINA RESULT:    -5.999     17.459     20.345
REMARK INTER + INTRA:         -14.876
REMARK INTER:                  -9.854
REMARK INTRA:                  -5.022
REMARK UNBOUND:                -2.564
REMARK  Name = lig_assembled_74.pdb
REMARK  24 active torsions:
REMARK  status: ('A' for Active; 'I' for Inactive)
REMARK    1  A    between atoms: _2  and  _9
REMARK    2  A    between atoms: _4  and  _22
REMARK    3  A    between atoms: _5  and  _14
REMARK    4  A    between atoms: _6  and  _7
REMARK    5  A    between atoms: _6  and  _22
REMARK    6  A    between atoms: _9  and  _10
REMARK    7  A    between atoms: _10  and  _11
REMARK    8  A    between atoms: _10  and  _13
REMARK    9  A    between atoms: _11  and  _12
REMARK   10  A    between atoms: _12  and  _16
REMARK   11  A    between atoms: _13  and  _14
REMARK   12  A    between atoms: _14  and  _15
REMARK   13  A    between atoms: _18  and  _38
REMARK   14  A    between atoms: _20  and  _26
REMARK   15  A    between atoms: _21  and  _25
REMARK   16  A    between atoms: _25  and  _26
REMARK   17  A    between atoms: _28  and  _29
REMARK   18  A    between atoms: _30  and  _31
REMARK   19  A    between atoms: _32  and  _34
REMARK   20  A    between atoms: _34  and  _35
REMARK   21  A    between atoms: _34  and  _36
REMARK   22  A    between atoms: _36  and  _37
REMARK   23  A    between atoms: _36  and  _38
REMARK   24  A    between atoms: _39  and  _41
REMARK                            x       y       z     vdW  Elec       q    Type
REMARK                         _______ _______ _______ _____ _____    ______ ____
ROOT
ATOM      1  C   UNL     1      -2.126  -0.195  27.730  0.00  0.00    +0.163 C 
ENDROOT
BRANCH   1   2
ATOM      2  O   UNL     1      -2.378  -0.866  26.484  0.00  0.00    -0.388 OA
ATOM      3  H   UNL     1      -1.982  -1.741  26.506  0.00  0.00    +0.210 HD
ENDBRANCH   1   2
BRANCH   1   4
ATOM      4  C   UNL     1      -0.688   0.348  27.782  0.00  0.00    +0.175 C 
BRANCH   4   5
ATOM      5  C   UNL     1       0.070   0.103  26.469  0.00  0.00    +0.176 C 
ATOM      6  O   UNL     1       0.648  -1.230  26.528  0.00  0.00    -0.332 OA
ATOM      7  C   UNL     1       1.325  -1.682  25.309  0.00  0.00    +0.277 C 
ATOM      8  C   UNL     1       2.408  -0.662  24.881  0.00  0.00    +0.110 C 
ATOM      9  C   UNL     1       1.849   0.776  24.835  0.00  0.00    +0.143 C 
ATOM     10  C   UNL     1       1.163   1.141  26.152  0.00  0.00    +0.133 C 
BRANCH  10  11
ATOM     11  N   UNL     1       0.559   2.480  26.065  0.00  0.00    -0.308 N 
ATOM     12  H   UNL     1      -0.085   2.658  25.307  0.00  0.00    +0.149 HD
ATOM     13  C   UNL     1       0.806   3.474  26.922  0.00  0.00    +0.210 C 
ATOM     14  C   UNL     1       1.811   3.178  28.051  0.00  0.00    +0.109 C 
ATOM     15  O   UNL     1       0.274   4.581  26.833  0.00  0.00    -0.276 OA
ENDBRANCH  10  11
BRANCH   7  16
ATOM     16  C   UNL     1       0.313  -1.873  24.159  0.00  0.00    +0.414 C 
ATOM     17  O   UNL     1       0.679  -1.777  22.989  0.00  0.00    -0.240 OA
ATOM     18  O   UNL     1      -0.868  -2.122  24.403  0.00  0.00    -0.240 OA
ENDBRANCH   7  16
BRANCH   9  19
ATOM     19  O   UNL     1       2.910   1.698  24.586  0.00  0.00    -0.390 OA
ATOM     20  H   UNL     1       3.279   1.996  25.421  0.00  0.00    +0.210 HD
ENDBRANCH   9  19
BRANCH   7  21
ATOM     21  O   UNL     1       1.977  -2.946  25.600  0.00  0.00    -0.343 OA
ATOM     22  C   UNL     1       3.398  -2.853  25.870  0.00  0.00    +0.198 C 
ENDBRANCH   7  21
ENDBRANCH   4   5
BRANCH   4  23
ATOM     23  O   UNL     1       0.027  -0.243  28.885  0.00  0.00    -0.387 OA
ATOM     24  H   UNL     1       0.095  -1.191  28.752  0.00  0.00    +0.210 HD
ENDBRANCH   4  23
ENDBRANCH   1   4
BRANCH   1  25
ATOM     25  C   UNL     1      -3.112   0.954  27.912  0.00  0.00    +0.141 C 
BRANCH  25  28
ATOM     26  C   UNL     1      -2.961   3.262  27.042  0.00  0.00    +0.401 C 
ATOM     27  O   UNL     1      -3.024   3.787  28.157  0.00  0.00    -0.226 OA
ATOM     28  N   UNL     1      -3.001   1.945  26.835  0.00  0.00    -0.279 N 
ATOM     29  H   UNL     1      -2.953   1.611  25.883  0.00  0.00    +0.152 HD
BRANCH  26  30
ATOM     30  O   UNL     1      -2.843   4.097  25.888  0.00  0.00    -0.444 OA
BRANCH  30  31
ATOM     31  C   UNL     1      -2.885   3.290  24.708  0.00  0.00    +0.292 C 
BRANCH  31  33
ATOM     32  N   UNL     1      -2.382   5.424  23.543  0.00  0.00    -0.131 NA
ATOM     33  C   UNL     1      -2.420   4.055  23.534  0.00  0.00    +0.120 A 
ATOM     34  C   UNL     1      -1.894   3.599  22.345  0.00  0.00    +0.137 A 
ATOM     35  N   UNL     1      -1.391   4.728  21.763  0.00  0.00    -0.251 N 
ATOM     36  N   UNL     1      -1.772   5.829  22.437  0.00  0.00    -0.065 NA
BRANCH  35  37
ATOM     37  C   UNL     1      -0.313   4.803  20.796  0.00  0.00    +0.149 C 
BRANCH  37  38
ATOM     38  C   UNL     1       1.055   4.278  21.282  0.00  0.00    +0.021 C 
BRANCH  38  39
ATOM     39  C   UNL     1       1.818   5.282  22.171  0.00  0.00    +0.125 C 
BRANCH  39  40
ATOM     40  C   UNL     1       1.667   5.053  23.661  0.00  0.00    +0.305 C 
ATOM     41  O   UNL     1       2.393   4.340  24.335  0.00  0.00    -0.251 OA
BRANCH  40  42
ATOM     42  O   UNL     1       0.673   5.777  24.206  0.00  0.00    -0.481 OA
ATOM     43  H   UNL     1      -0.230   5.501  23.963  0.00  0.00    +0.295 HD
ENDBRANCH  40  42
ENDBRANCH  39  40
ENDBRANCH  38  39
BRANCH  38  44
ATOM     44  C   UNL     1       1.883   3.802  20.053  0.00  0.00    +0.009 C 
BRANCH  44  45
ATOM     45  C   UNL     1       2.127   2.281  19.952  0.00  0.00    -0.017 C 
ATOM     46  C   UNL     1       1.569   1.525  21.160  0.00  0.00    +0.007 C 
ATOM     47  C   UNL     1       1.495   1.718  18.675  0.00  0.00    +0.007 C 
ENDBRANCH  44  45
ENDBRANCH  38  44
ENDBRANCH  37  38
ENDBRANCH  35  37
ENDBRANCH  31  33
ENDBRANCH  30  31
ENDBRANCH  26  30
ENDBRANCH  25  28
ENDBRANCH   1  25
TORSDOF 20
