REMARK VINA RESULT:    -5.895      8.297     17.825
REMARK INTER + INTRA:         -12.793
REMARK INTER:                 -10.844
REMARK INTRA:                  -1.949
REMARK UNBOUND:                -2.246
REMARK  Name = lig_assembled_5.pdb
REMARK  18 active torsions:
REMARK  status: ('A' for Active; 'I' for Inactive)
REMARK    1  A    between atoms: _2  and  _9
REMARK    2  A    between atoms: _4  and  _20
REMARK    3  A    between atoms: _6  and  _7
REMARK    4  A    between atoms: _6  and  _20
REMARK    5  A    between atoms: _12  and  _15
REMARK    6  A    between atoms: _13  and  _15
REMARK    7  A    between atoms: _16  and  _36
REMARK    8  A    between atoms: _18  and  _24
REMARK    9  A    between atoms: _19  and  _23
REMARK   10  A    between atoms: _23  and  _24
REMARK   11  A    between atoms: _26  and  _27
REMARK   12  A    between atoms: _28  and  _29
REMARK   13  A    between atoms: _30  and  _32
REMARK   14  A    between atoms: _32  and  _33
REMARK   15  A    between atoms: _32  and  _34
REMARK   16  A    between atoms: _34  and  _35
REMARK   17  A    between atoms: _34  and  _36
REMARK   18  A    between atoms: _37  and  _39
REMARK                            x       y       z     vdW  Elec       q    Type
REMARK                         _______ _______ _______ _____ _____    ______ ____
ROOT
ATOM      1  C   UNL     1      -4.681   6.624  14.413  0.00  0.00    +0.163 C 
ENDROOT
BRANCH   1   2
ATOM      2  O   UNL     1      -5.210   6.283  15.705  0.00  0.00    -0.388 OA
ATOM      3  H   UNL     1      -5.897   6.909  15.945  0.00  0.00    +0.210 HD
ENDBRANCH   1   2
BRANCH   1   4
ATOM      4  C   UNL     1      -3.180   6.356  14.376  0.00  0.00    +0.141 C 
BRANCH   4   7
ATOM      5  C   UNL     1      -1.508   6.446  16.193  0.00  0.00    +0.401 C 
ATOM      6  O   UNL     1      -0.759   7.220  15.593  0.00  0.00    -0.226 OA
ATOM      7  N   UNL     1      -2.658   5.986  15.697  0.00  0.00    -0.279 N 
ATOM      8  H   UNL     1      -3.199   5.347  16.262  0.00  0.00    +0.152 HD
BRANCH   5   9
ATOM      9  O   UNL     1      -1.141   5.999  17.500  0.00  0.00    -0.444 OA
BRANCH   9  10
ATOM     10  C   UNL     1      -0.813   4.608  17.454  0.00  0.00    +0.292 C 
BRANCH  10  12
ATOM     11  N   UNL     1       1.303   3.683  18.344  0.00  0.00    -0.131 NA
ATOM     12  C   UNL     1       0.086   4.256  18.570  0.00  0.00    +0.121 A 
ATOM     13  C   UNL     1      -0.089   4.420  19.924  0.00  0.00    +0.143 A 
ATOM     14  N   UNL     1       1.075   3.952  20.493  0.00  0.00    -0.220 N 
ATOM     15  N   UNL     1       1.895   3.495  19.515  0.00  0.00    -0.060 NA
BRANCH  14  16
ATOM     16  C   UNL     1       1.453   3.942  21.861  0.00  0.00    +0.067 A 
ATOM     17  C   UNL     1       1.787   2.744  22.504  0.00  0.00    +0.031 A 
ATOM     18  C   UNL     1       2.098   2.747  23.865  0.00  0.00    +0.048 A 
ATOM     19  C   UNL     1       2.102   3.936  24.597  0.00  0.00    +0.120 A 
ATOM     20  C   UNL     1       1.787   5.133  23.956  0.00  0.00    +0.048 A 
ATOM     21  C   UNL     1       1.462   5.139  22.593  0.00  0.00    +0.031 A 
BRANCH  19  22
ATOM     22  O   UNL     1       2.362   3.789  25.931  0.00  0.00    -0.495 OA
ATOM     23  C   UNL     1       1.305   3.269  26.726  0.00  0.00    +0.277 C 
ENDBRANCH  19  22
ENDBRANCH  14  16
ENDBRANCH  10  12
ENDBRANCH   9  10
ENDBRANCH   5   9
ENDBRANCH   4   7
ENDBRANCH   1   4
BRANCH   1  24
ATOM     24  C   UNL     1      -4.947   8.103  14.083  0.00  0.00    +0.175 C 
BRANCH  24  25
ATOM     25  C   UNL     1      -4.889   8.994  15.332  0.00  0.00    +0.176 C 
ATOM     26  O   UNL     1      -6.166   8.884  16.019  0.00  0.00    -0.332 OA
ATOM     27  C   UNL     1      -6.259   9.589  17.301  0.00  0.00    +0.277 C 
ATOM     28  C   UNL     1      -5.886  11.081  17.126  0.00  0.00    +0.110 C 
ATOM     29  C   UNL     1      -4.550  11.249  16.372  0.00  0.00    +0.143 C 
ATOM     30  C   UNL     1      -4.562  10.473  15.055  0.00  0.00    +0.133 C 
BRANCH  30  31
ATOM     31  N   UNL     1      -3.254  10.569  14.388  0.00  0.00    -0.308 N 
ATOM     32  H   UNL     1      -2.442  10.237  14.890  0.00  0.00    +0.149 HD
ATOM     33  C   UNL     1      -3.069  11.068  13.163  0.00  0.00    +0.210 C 
ATOM     34  C   UNL     1      -4.321  11.590  12.434  0.00  0.00    +0.109 C 
ATOM     35  O   UNL     1      -1.963  11.123  12.623  0.00  0.00    -0.276 OA
ENDBRANCH  30  31
BRANCH  27  36
ATOM     36  C   UNL     1      -5.328   8.944  18.349  0.00  0.00    +0.414 C 
ATOM     37  O   UNL     1      -4.962   7.777  18.219  0.00  0.00    -0.240 OA
ATOM     38  O   UNL     1      -4.943   9.591  19.324  0.00  0.00    -0.240 OA
ENDBRANCH  27  36
BRANCH  27  39
ATOM     39  O   UNL     1      -7.634   9.512  17.757  0.00  0.00    -0.343 OA
ATOM     40  C   UNL     1      -8.460   8.550  17.053  0.00  0.00    +0.198 C 
ENDBRANCH  27  39
BRANCH  29  41
ATOM     41  O   UNL     1      -4.321  12.633  16.100  0.00  0.00    -0.390 OA
ATOM     42  H   UNL     1      -5.157  13.105  16.116  0.00  0.00    +0.210 HD
ENDBRANCH  29  41
ENDBRANCH  24  25
BRANCH  24  43
ATOM     43  O   UNL     1      -6.225   8.244  13.431  0.00  0.00    -0.387 OA
ATOM     44  H   UNL     1      -6.154   8.888  12.722  0.00  0.00    +0.210 HD
ENDBRANCH  24  43
ENDBRANCH   1  24
TORSDOF 15
