REMARK VINA RESULT:    -5.551      3.982     10.797
REMARK INTER + INTRA:         -12.335
REMARK INTER:                 -10.256
REMARK INTRA:                  -2.078
REMARK UNBOUND:                -2.078
REMARK  Name = lig_assembled_14.pdb
REMARK  18 active torsions:
REMARK  status: ('A' for Active; 'I' for Inactive)
REMARK    1  A    between atoms: _2  and  _10
REMARK    2  A    between atoms: _3  and  _11
REMARK    3  A    between atoms: _5  and  _19
REMARK    4  A    between atoms: _7  and  _8
REMARK    5  A    between atoms: _7  and  _19
REMARK    6  A    between atoms: _10  and  _11
REMARK    7  A    between atoms: _15  and  _35
REMARK    8  A    between atoms: _17  and  _23
REMARK    9  A    between atoms: _18  and  _22
REMARK   10  A    between atoms: _22  and  _23
REMARK   11  A    between atoms: _25  and  _26
REMARK   12  A    between atoms: _27  and  _28
REMARK   13  A    between atoms: _29  and  _31
REMARK   14  A    between atoms: _31  and  _32
REMARK   15  A    between atoms: _31  and  _33
REMARK   16  A    between atoms: _33  and  _34
REMARK   17  A    between atoms: _33  and  _35
REMARK   18  A    between atoms: _36  and  _38
REMARK                            x       y       z     vdW  Elec       q    Type
REMARK                         _______ _______ _______ _____ _____    ______ ____
ROOT
ATOM      1  C   UNL     1      18.866  10.403  29.429  0.00  0.00    +0.163 C 
ENDROOT
BRANCH   1   2
ATOM      2  O   UNL     1      17.530  10.842  29.133  0.00  0.00    -0.388 OA
ATOM      3  H   UNL     1      16.941  10.578  29.844  0.00  0.00    +0.210 HD
ENDBRANCH   1   2
BRANCH   1   4
ATOM      4  C   UNL     1      18.862   8.975  30.001  0.00  0.00    +0.175 C 
BRANCH   4   5
ATOM      5  C   UNL     1      18.009   8.864  31.273  0.00  0.00    +0.176 C 
ATOM      6  O   UNL     1      18.231  10.063  32.066  0.00  0.00    -0.332 OA
ATOM      7  C   UNL     1      17.413  10.183  33.277  0.00  0.00    +0.277 C 
ATOM      8  C   UNL     1      17.580   8.928  34.168  0.00  0.00    +0.110 C 
ATOM      9  C   UNL     1      17.385   7.626  33.362  0.00  0.00    +0.143 C 
ATOM     10  C   UNL     1      18.281   7.609  32.123  0.00  0.00    +0.133 C 
BRANCH  10  11
ATOM     11  N   UNL     1      18.023   6.405  31.318  0.00  0.00    -0.308 N 
ATOM     12  H   UNL     1      17.139   6.342  30.833  0.00  0.00    +0.149 HD
ATOM     13  C   UNL     1      18.881   5.389  31.186  0.00  0.00    +0.210 C 
ATOM     14  C   UNL     1      20.208   5.503  31.959  0.00  0.00    +0.109 C 
ATOM     15  O   UNL     1      18.644   4.400  30.493  0.00  0.00    -0.276 OA
ENDBRANCH  10  11
BRANCH   7  16
ATOM     16  C   UNL     1      15.924  10.364  32.915  0.00  0.00    +0.414 C 
ATOM     17  O   UNL     1      15.581  11.240  32.122  0.00  0.00    -0.240 OA
ATOM     18  O   UNL     1      15.067   9.636  33.416  0.00  0.00    -0.240 OA
ENDBRANCH   7  16
BRANCH   9  19
ATOM     19  O   UNL     1      17.695   6.500  34.183  0.00  0.00    -0.390 OA
ATOM     20  H   UNL     1      18.252   5.890  33.694  0.00  0.00    +0.210 HD
ENDBRANCH   9  19
BRANCH   7  21
ATOM     21  O   UNL     1      17.879  11.338  34.021  0.00  0.00    -0.343 OA
ATOM     22  C   UNL     1      17.399  11.421  35.386  0.00  0.00    +0.198 C 
ENDBRANCH   7  21
ENDBRANCH   4   5
BRANCH   4  23
ATOM     23  O   UNL     1      20.211   8.543  30.268  0.00  0.00    -0.387 OA
ATOM     24  H   UNL     1      20.829   9.127  29.820  0.00  0.00    +0.210 HD
ENDBRANCH   4  23
ENDBRANCH   1   4
BRANCH   1  25
ATOM     25  C   UNL     1      19.720  10.445  28.167  0.00  0.00    +0.141 C 
BRANCH  25  28
ATOM     26  C   UNL     1      20.403   8.916  26.349  0.00  0.00    +0.401 C 
ATOM     27  O   UNL     1      21.224   9.702  25.870  0.00  0.00    -0.226 OA
ATOM     28  N   UNL     1      19.652   9.184  27.418  0.00  0.00    -0.279 N 
ATOM     29  H   UNL     1      18.999   8.479  27.730  0.00  0.00    +0.152 HD
BRANCH  26  30
ATOM     30  O   UNL     1      20.225   7.637  25.735  0.00  0.00    -0.444 OA
BRANCH  30  31
ATOM     31  C   UNL     1      18.839   7.286  25.755  0.00  0.00    +0.292 C 
BRANCH  31  33
ATOM     32  N   UNL     1      17.944   6.585  23.557  0.00  0.00    -0.131 NA
ATOM     33  C   UNL     1      18.553   6.256  24.740  0.00  0.00    +0.120 A 
ATOM     34  C   UNL     1      18.794   4.900  24.761  0.00  0.00    +0.137 A 
ATOM     35  N   UNL     1      18.298   4.463  23.571  0.00  0.00    -0.250 N 
ATOM     36  N   UNL     1      17.795   5.478  22.846  0.00  0.00    -0.065 NA
BRANCH  35  37
ATOM     37  C   UNL     1      18.214   3.104  23.080  0.00  0.00    +0.160 C 
BRANCH  37  38
ATOM     38  C   UNL     1      16.970   2.382  23.609  0.00  0.00    +0.107 C 
BRANCH  38  39
ATOM     39  N   UNL     1      17.200   1.708  24.899  0.00  0.00    -0.301 NA
ATOM     40  C   UNL     1      15.964   1.241  25.533  0.00  0.00    +0.084 C 
ATOM     41  C   UNL     1      16.477   0.259  26.567  0.00  0.00    +0.017 C 
ATOM     42  C   UNL     1      17.634  -0.432  25.869  0.00  0.00    +0.017 C 
ATOM     43  C   UNL     1      18.048   0.516  24.746  0.00  0.00    +0.084 C 
ENDBRANCH  38  39
ENDBRANCH  37  38
ENDBRANCH  35  37
ENDBRANCH  31  33
ENDBRANCH  30  31
ENDBRANCH  26  30
ENDBRANCH  25  28
ENDBRANCH   1  25
TORSDOF 16
