REMARK VINA RESULT:    -6.212      1.444      2.058
REMARK INTER + INTRA:         -12.888
REMARK INTER:                 -11.114
REMARK INTRA:                  -1.775
REMARK UNBOUND:                -1.775
REMARK  Name = lig_assembled_69.pdb
REMARK  18 active torsions:
REMARK  status: ('A' for Active; 'I' for Inactive)
REMARK    1  A    between atoms: _2  and  _9
REMARK    2  A    between atoms: _4  and  _21
REMARK    3  A    between atoms: _6  and  _7
REMARK    4  A    between atoms: _6  and  _21
REMARK    5  A    between atoms: _11  and  _16
REMARK    6  A    between atoms: _14  and  _15
REMARK    7  A    between atoms: _17  and  _37
REMARK    8  A    between atoms: _19  and  _25
REMARK    9  A    between atoms: _20  and  _24
REMARK   10  A    between atoms: _24  and  _25
REMARK   11  A    between atoms: _27  and  _28
REMARK   12  A    between atoms: _29  and  _30
REMARK   13  A    between atoms: _31  and  _33
REMARK   14  A    between atoms: _33  and  _34
REMARK   15  A    between atoms: _33  and  _35
REMARK   16  A    between atoms: _35  and  _36
REMARK   17  A    between atoms: _35  and  _37
REMARK   18  A    between atoms: _38  and  _40
REMARK                            x       y       z     vdW  Elec       q    Type
REMARK                         _______ _______ _______ _____ _____    ______ ____
ROOT
ATOM      1  C   UNL     1       4.238   3.988  33.140  0.00  0.00    +0.163 C 
ENDROOT
BRANCH   1   2
ATOM      2  O   UNL     1       3.700   4.407  34.404  0.00  0.00    -0.388 OA
ATOM      3  H   UNL     1       2.836   4.008  34.533  0.00  0.00    +0.210 HD
ENDBRANCH   1   2
BRANCH   1   4
ATOM      4  C   UNL     1       5.594   3.285  33.326  0.00  0.00    +0.175 C 
BRANCH   4   5
ATOM      5  C   UNL     1       6.284   3.697  34.634  0.00  0.00    +0.176 C 
ATOM      6  O   UNL     1       6.666   5.095  34.518  0.00  0.00    -0.332 OA
ATOM      7  C   UNL     1       7.249   5.695  35.722  0.00  0.00    +0.277 C 
ATOM      8  C   UNL     1       8.458   4.861  36.211  0.00  0.00    +0.110 C 
ATOM      9  C   UNL     1       8.109   3.362  36.320  0.00  0.00    +0.143 C 
ATOM     10  C   UNL     1       7.508   2.842  35.014  0.00  0.00    +0.133 C 
BRANCH  10  11
ATOM     11  N   UNL     1       7.100   1.436  35.159  0.00  0.00    -0.308 N 
ATOM     12  H   UNL     1       6.478   1.201  35.920  0.00  0.00    +0.149 HD
ATOM     13  C   UNL     1       7.496   0.450  34.349  0.00  0.00    +0.210 C 
ATOM     14  C   UNL     1       8.463   0.836  33.214  0.00  0.00    +0.109 C 
ATOM     15  O   UNL     1       7.126  -0.716  34.486  0.00  0.00    -0.276 OA
ENDBRANCH  10  11
BRANCH   7  16
ATOM     16  C   UNL     1       6.199   5.791  36.848  0.00  0.00    +0.414 C 
ATOM     17  O   UNL     1       5.001   5.861  36.575  0.00  0.00    -0.240 OA
ATOM     18  O   UNL     1       6.549   5.799  38.029  0.00  0.00    -0.240 OA
ENDBRANCH   7  16
BRANCH   7  19
ATOM     19  O   UNL     1       7.719   7.024  35.378  0.00  0.00    -0.343 OA
ATOM     20  C   UNL     1       6.943   7.703  34.358  0.00  0.00    +0.198 C 
ENDBRANCH   7  19
BRANCH   9  21
ATOM     21  O   UNL     1       9.287   2.615  36.627  0.00  0.00    -0.390 OA
ATOM     22  H   UNL     1       9.809   3.091  37.277  0.00  0.00    +0.210 HD
ENDBRANCH   9  21
ENDBRANCH   4   5
BRANCH   4  23
ATOM     23  O   UNL     1       6.454   3.561  32.202  0.00  0.00    -0.387 OA
ATOM     24  H   UNL     1       7.359   3.328  32.426  0.00  0.00    +0.210 HD
ENDBRANCH   4  23
ENDBRANCH   1   4
BRANCH   1  25
ATOM     25  C   UNL     1       3.264   3.041  32.446  0.00  0.00    +0.141 C 
BRANCH  25  28
ATOM     26  C   UNL     1       1.811   3.019  30.448  0.00  0.00    +0.401 C 
ATOM     27  O   UNL     1       1.488   1.837  30.580  0.00  0.00    -0.226 OA
ATOM     28  N   UNL     1       2.642   3.662  31.270  0.00  0.00    -0.279 N 
ATOM     29  H   UNL     1       2.854   4.630  31.074  0.00  0.00    +0.152 HD
BRANCH  26  30
ATOM     30  O   UNL     1       1.279   3.766  29.351  0.00  0.00    -0.444 OA
BRANCH  30  31
ATOM     31  C   UNL     1       0.734   2.868  28.380  0.00  0.00    +0.292 C 
BRANCH  31  33
ATOM     32  N   UNL     1       2.340   4.034  26.908  0.00  0.00    -0.131 NA
ATOM     33  C   UNL     1       1.354   3.097  27.062  0.00  0.00    +0.120 A 
ATOM     34  C   UNL     1       1.103   2.502  25.846  0.00  0.00    +0.137 A 
ATOM     35  N   UNL     1       1.959   3.130  24.991  0.00  0.00    -0.248 N 
ATOM     36  N   UNL     1       2.700   4.049  25.633  0.00  0.00    -0.065 NA
BRANCH  35  37
ATOM     37  C   UNL     1       2.088   2.942  23.546  0.00  0.00    +0.114 C 
ATOM     38  C   UNL     1       1.757   4.228  22.780  0.00  0.00    +0.062 C 
ATOM     39  C   UNL     1       0.277   4.479  22.487  0.00  0.00    +0.139 C 
ATOM     40  C   UNL     1      -0.366   3.579  21.469  0.00  0.00    +0.002 C 
ATOM     41  C   UNL     1       0.024   2.362  21.058  0.00  0.00    +0.002 C 
ATOM     42  C   UNL     1       1.128   1.516  21.617  0.00  0.00    +0.139 C 
ATOM     43  C   UNL     1       1.344   1.669  23.118  0.00  0.00    +0.062 C 
BRANCH  39  44
ATOM     44  O   UNL     1       0.175   5.802  21.945  0.00  0.00    -0.388 OA
ATOM     45  H   UNL     1      -0.643   6.196  22.293  0.00  0.00    +0.210 HD
ENDBRANCH  39  44
BRANCH  42  46
ATOM     46  O   UNL     1       2.330   1.786  20.912  0.00  0.00    -0.388 OA
ATOM     47  H   UNL     1       2.293   2.713  20.620  0.00  0.00    +0.210 HD
ENDBRANCH  42  46
ENDBRANCH  35  37
ENDBRANCH  31  33
ENDBRANCH  30  31
ENDBRANCH  26  30
ENDBRANCH  25  28
ENDBRANCH   1  25
TORSDOF 16
