REMARK VINA RESULT:    -5.623      7.228     12.436
REMARK INTER + INTRA:         -12.811
REMARK INTER:                 -10.962
REMARK INTRA:                  -1.849
REMARK UNBOUND:                -2.094
REMARK  Name = lig_assembled_19.pdb
REMARK  20 active torsions:
REMARK  status: ('A' for Active; 'I' for Inactive)
REMARK    1  A    between atoms: _2  and  _9
REMARK    2  A    between atoms: _4  and  _18
REMARK    3  A    between atoms: _5  and  _11
REMARK    4  A    between atoms: _6  and  _7
REMARK    5  A    between atoms: _6  and  _18
REMARK    6  A    between atoms: _9  and  _10
REMARK    7  A    between atoms: _10  and  _13
REMARK    8  A    between atoms: _11  and  _13
REMARK    9  A    between atoms: _14  and  _34
REMARK   10  A    between atoms: _16  and  _22
REMARK   11  A    between atoms: _17  and  _21
REMARK   12  A    between atoms: _21  and  _22
REMARK   13  A    between atoms: _24  and  _25
REMARK   14  A    between atoms: _26  and  _27
REMARK   15  A    between atoms: _28  and  _30
REMARK   16  A    between atoms: _30  and  _31
REMARK   17  A    between atoms: _30  and  _32
REMARK   18  A    between atoms: _32  and  _33
REMARK   19  A    between atoms: _32  and  _34
REMARK   20  A    between atoms: _35  and  _37
REMARK                            x       y       z     vdW  Elec       q    Type
REMARK                         _______ _______ _______ _____ _____    ______ ____
ROOT
ATOM      1  C   UNL     1       9.757   2.932  34.912  0.00  0.00    +0.163 C 
ENDROOT
BRANCH   1   2
ATOM      2  O   UNL     1       9.511   2.071  33.787  0.00  0.00    -0.388 OA
ATOM      3  H   UNL     1       9.841   1.190  33.980  0.00  0.00    +0.210 HD
ENDBRANCH   1   2
BRANCH   1   4
ATOM      4  C   UNL     1       8.485   3.106  35.760  0.00  0.00    +0.175 C 
BRANCH   4   5
ATOM      5  C   UNL     1       7.697   4.364  35.367  0.00  0.00    +0.176 C 
ATOM      6  O   UNL     1       7.419   5.115  36.581  0.00  0.00    -0.332 OA
ATOM      7  C   UNL     1       6.759   6.410  36.389  0.00  0.00    +0.277 C 
ATOM      8  C   UNL     1       5.456   6.237  35.571  0.00  0.00    +0.110 C 
ATOM      9  C   UNL     1       5.695   5.417  34.285  0.00  0.00    +0.143 C 
ATOM     10  C   UNL     1       6.389   4.092  34.601  0.00  0.00    +0.133 C 
BRANCH  10  11
ATOM     11  N   UNL     1       6.689   3.359  33.361  0.00  0.00    -0.308 N 
ATOM     12  H   UNL     1       7.335   3.782  32.708  0.00  0.00    +0.149 HD
ATOM     13  C   UNL     1       6.165   2.173  33.041  0.00  0.00    +0.210 C 
ATOM     14  C   UNL     1       5.164   1.569  34.044  0.00  0.00    +0.109 C 
ATOM     15  O   UNL     1       6.446   1.576  32.001  0.00  0.00    -0.276 OA
ENDBRANCH  10  11
BRANCH   7  16
ATOM     16  C   UNL     1       7.696   7.398  35.664  0.00  0.00    +0.414 C 
ATOM     17  O   UNL     1       7.256   8.139  34.786  0.00  0.00    -0.240 OA
ATOM     18  O   UNL     1       8.891   7.456  35.958  0.00  0.00    -0.240 OA
ENDBRANCH   7  16
BRANCH   9  19
ATOM     19  O   UNL     1       4.447   5.154  33.642  0.00  0.00    -0.390 OA
ATOM     20  H   UNL     1       3.750   5.111  34.301  0.00  0.00    +0.210 HD
ENDBRANCH   9  19
BRANCH   7  21
ATOM     21  O   UNL     1       6.412   6.935  37.696  0.00  0.00    -0.343 OA
ATOM     22  C   UNL     1       7.065   6.279  38.813  0.00  0.00    +0.198 C 
ENDBRANCH   7  21
ENDBRANCH   4   5
BRANCH   4  23
ATOM     23  O   UNL     1       8.825   3.149  37.160  0.00  0.00    -0.387 OA
ATOM     24  H   UNL     1       8.879   4.063  37.449  0.00  0.00    +0.210 HD
ENDBRANCH   4  23
ENDBRANCH   1   4
BRANCH   1  25
ATOM     25  C   UNL     1      10.872   2.354  35.777  0.00  0.00    +0.141 C 
BRANCH  25  28
ATOM     26  C   UNL     1      13.026   3.471  35.314  0.00  0.00    +0.401 C 
ATOM     27  O   UNL     1      13.288   2.768  34.336  0.00  0.00    -0.226 OA
ATOM     28  N   UNL     1      11.922   3.343  36.050  0.00  0.00    -0.279 N 
ATOM     29  H   UNL     1      11.800   3.961  36.840  0.00  0.00    +0.152 HD
BRANCH  26  30
ATOM     30  O   UNL     1      13.951   4.490  35.704  0.00  0.00    -0.444 OA
BRANCH  30  31
ATOM     31  C   UNL     1      15.141   4.381  34.919  0.00  0.00    +0.292 C 
BRANCH  31  33
ATOM     32  N   UNL     1      14.906   6.843  34.752  0.00  0.00    -0.131 NA
ATOM     33  C   UNL     1      15.467   5.677  34.297  0.00  0.00    +0.120 A 
ATOM     34  C   UNL     1      16.308   5.965  33.246  0.00  0.00    +0.137 A 
ATOM     35  N   UNL     1      16.205   7.316  33.105  0.00  0.00    -0.248 N 
ATOM     36  N   UNL     1      15.367   7.843  34.012  0.00  0.00    -0.065 NA
BRANCH  35  37
ATOM     37  C   UNL     1      16.879   8.163  32.145  0.00  0.00    +0.186 C 
BRANCH  37  38
ATOM     38  C   UNL     1      17.661   9.281  32.828  0.00  0.00    +0.255 C 
BRANCH  38  39
ATOM     39  O   UNL     1      17.011  10.561  32.691  0.00  0.00    -0.463 OA
BRANCH  39  40
ATOM     40  C   UNL     1      17.340  11.497  33.620  0.00  0.00    +0.304 C 
ATOM     41  O   UNL     1      17.927  12.543  33.380  0.00  0.00    -0.251 OA
ATOM     42  C   UNL     1      16.857  11.095  34.979  0.00  0.00    +0.136 C 
ENDBRANCH  39  40
ENDBRANCH  38  39
ENDBRANCH  37  38
ENDBRANCH  35  37
ENDBRANCH  31  33
ENDBRANCH  30  31
ENDBRANCH  26  30
ENDBRANCH  25  28
ENDBRANCH   1  25
TORSDOF 17
