REMARK VINA RESULT:    -6.281     14.714     16.350
REMARK INTER + INTRA:         -13.241
REMARK INTER:                 -10.951
REMARK INTRA:                  -2.289
REMARK UNBOUND:                -2.370
REMARK  Name = lig_assembled_87.pdb
REMARK  17 active torsions:
REMARK  status: ('A' for Active; 'I' for Inactive)
REMARK    1  A    between atoms: _2  and  _10
REMARK    2  A    between atoms: _3  and  _13
REMARK    3  A    between atoms: _5  and  _21
REMARK    4  A    between atoms: _7  and  _8
REMARK    5  A    between atoms: _7  and  _21
REMARK    6  A    between atoms: _17  and  _37
REMARK    7  A    between atoms: _19  and  _25
REMARK    8  A    between atoms: _20  and  _24
REMARK    9  A    between atoms: _24  and  _25
REMARK   10  A    between atoms: _27  and  _28
REMARK   11  A    between atoms: _29  and  _30
REMARK   12  A    between atoms: _31  and  _33
REMARK   13  A    between atoms: _33  and  _34
REMARK   14  A    between atoms: _33  and  _35
REMARK   15  A    between atoms: _35  and  _36
REMARK   16  A    between atoms: _35  and  _37
REMARK   17  A    between atoms: _38  and  _40
REMARK                            x       y       z     vdW  Elec       q    Type
REMARK                         _______ _______ _______ _____ _____    ______ ____
ROOT
ATOM      1  C   UNL     1      18.771  10.134  29.432  0.00  0.00    +0.163 C 
ENDROOT
BRANCH   1   2
ATOM      2  O   UNL     1      17.482  10.762  29.528  0.00  0.00    -0.388 OA
ATOM      3  H   UNL     1      17.189  11.026  28.653  0.00  0.00    +0.210 HD
ENDBRANCH   1   2
BRANCH   1   4
ATOM      4  C   UNL     1      19.045   9.723  27.990  0.00  0.00    +0.141 C 
BRANCH   4   7
ATOM      5  C   UNL     1      19.083   7.488  26.936  0.00  0.00    +0.401 C 
ATOM      6  O   UNL     1      18.293   7.794  26.039  0.00  0.00    -0.226 OA
ATOM      7  N   UNL     1      19.485   8.325  27.893  0.00  0.00    -0.279 N 
ATOM      8  H   UNL     1      20.128   7.978  28.591  0.00  0.00    +0.152 HD
BRANCH   5   9
ATOM      9  O   UNL     1      19.610   6.159  26.974  0.00  0.00    -0.444 OA
BRANCH   9  10
ATOM     10  C   UNL     1      18.858   5.374  27.903  0.00  0.00    +0.292 C 
BRANCH  10  12
ATOM     11  N   UNL     1      17.528   3.292  27.911  0.00  0.00    -0.131 NA
ATOM     12  C   UNL     1      18.354   4.155  27.246  0.00  0.00    +0.120 A 
ATOM     13  C   UNL     1      18.564   3.685  25.969  0.00  0.00    +0.137 A 
ATOM     14  N   UNL     1      17.740   2.595  25.870  0.00  0.00    -0.248 N 
ATOM     15  N   UNL     1      17.219   2.310  27.082  0.00  0.00    -0.065 NA
BRANCH  14  16
ATOM     16  C   UNL     1      17.386   1.750  24.715  0.00  0.00    +0.112 C 
ATOM     17  C   UNL     1      18.302   0.514  24.505  0.00  0.00    +0.045 C 
ATOM     18  C   UNL     1      19.039   0.452  23.156  0.00  0.00    +0.059 C 
ATOM     19  C   UNL     1      18.122  -0.023  22.020  0.00  0.00    +0.020 C 
ATOM     20  C   UNL     1      17.625   1.263  21.361  0.00  0.00    +0.020 C 
ATOM     21  C   UNL     1      18.147   2.371  22.276  0.00  0.00    +0.059 C 
ATOM     22  N   UNL     1      19.420   1.769  22.663  0.00  0.00    -0.299 NA
ATOM     23  C   UNL     1      20.314   2.558  23.483  0.00  0.00    +0.105 C 
ATOM     24  C   UNL     1      17.176   2.614  23.433  0.00  0.00    +0.045 C 
ENDBRANCH  14  16
ENDBRANCH  10  12
ENDBRANCH   9  10
ENDBRANCH   5   9
ENDBRANCH   4   7
ENDBRANCH   1   4
BRANCH   1  25
ATOM     25  C   UNL     1      18.850   8.897  30.343  0.00  0.00    +0.175 C 
BRANCH  25  26
ATOM     26  C   UNL     1      17.925   9.018  31.564  0.00  0.00    +0.176 C 
ATOM     27  O   UNL     1      18.163  10.314  32.178  0.00  0.00    -0.332 OA
ATOM     28  C   UNL     1      17.288  10.652  33.304  0.00  0.00    +0.277 C 
ATOM     29  C   UNL     1      17.344   9.544  34.384  0.00  0.00    +0.110 C 
ATOM     30  C   UNL     1      17.128   8.143  33.774  0.00  0.00    +0.143 C 
ATOM     31  C   UNL     1      18.088   7.898  32.609  0.00  0.00    +0.133 C 
BRANCH  31  32
ATOM     32  N   UNL     1      17.814   6.596  31.981  0.00  0.00    -0.308 N 
ATOM     33  H   UNL     1      16.922   6.472  31.523  0.00  0.00    +0.149 HD
ATOM     34  C   UNL     1      18.667   5.569  31.976  0.00  0.00    +0.210 C 
ATOM     35  C   UNL     1      20.007   5.782  32.704  0.00  0.00    +0.109 C 
ATOM     36  O   UNL     1      18.417   4.494  31.429  0.00  0.00    -0.276 OA
ENDBRANCH  31  32
BRANCH  28  37
ATOM     37  C   UNL     1      15.832  10.837  32.830  0.00  0.00    +0.414 C 
ATOM     38  O   UNL     1      14.904  10.336  33.464  0.00  0.00    -0.240 OA
ATOM     39  O   UNL     1      15.584  11.487  31.813  0.00  0.00    -0.240 OA
ENDBRANCH  28  37
BRANCH  30  40
ATOM     40  O   UNL     1      17.337   7.145  34.773  0.00  0.00    -0.390 OA
ATOM     41  H   UNL     1      16.509   6.695  34.955  0.00  0.00    +0.210 HD
ENDBRANCH  30  40
BRANCH  28  42
ATOM     42  O   UNL     1      17.771  11.888  33.892  0.00  0.00    -0.343 OA
ATOM     43  C   UNL     1      17.459  12.060  35.298  0.00  0.00    +0.198 C 
ENDBRANCH  28  42
ENDBRANCH  25  26
BRANCH  25  44
ATOM     44  O   UNL     1      20.209   8.679  30.770  0.00  0.00    -0.387 OA
ATOM     45  H   UNL     1      20.257   7.875  31.291  0.00  0.00    +0.210 HD
ENDBRANCH  25  44
ENDBRANCH   1  25
TORSDOF 14
