REMARK VINA RESULT:    -4.646      3.216      7.782
REMARK INTER + INTRA:         -13.033
REMARK INTER:                 -10.218
REMARK INTRA:                  -2.815
REMARK UNBOUND:                -4.177
REMARK  Name = lig_assembled_50.pdb
REMARK  20 active torsions:
REMARK  status: ('A' for Active; 'I' for Inactive)
REMARK    1  A    between atoms: _2  and  _9
REMARK    2  A    between atoms: _4  and  _17
REMARK    3  A    between atoms: _5  and  _10
REMARK    4  A    between atoms: _5  and  _11
REMARK    5  A    between atoms: _6  and  _7
REMARK    6  A    between atoms: _6  and  _17
REMARK    7  A    between atoms: _9  and  _10
REMARK    8  A    between atoms: _10  and  _12
REMARK    9  A    between atoms: _13  and  _33
REMARK   10  A    between atoms: _15  and  _21
REMARK   11  A    between atoms: _16  and  _20
REMARK   12  A    between atoms: _20  and  _21
REMARK   13  A    between atoms: _23  and  _24
REMARK   14  A    between atoms: _25  and  _26
REMARK   15  A    between atoms: _27  and  _29
REMARK   16  A    between atoms: _29  and  _30
REMARK   17  A    between atoms: _29  and  _31
REMARK   18  A    between atoms: _31  and  _32
REMARK   19  A    between atoms: _31  and  _33
REMARK   20  A    between atoms: _34  and  _36
REMARK                            x       y       z     vdW  Elec       q    Type
REMARK                         _______ _______ _______ _____ _____    ______ ____
ROOT
ATOM      1  C   UNL     1      17.077   1.848  26.602  0.00  0.00    +0.163 C 
ENDROOT
BRANCH   1   2
ATOM      2  O   UNL     1      17.536   2.885  25.720  0.00  0.00    -0.388 OA
ATOM      3  H   UNL     1      16.876   3.581  25.672  0.00  0.00    +0.210 HD
ENDBRANCH   1   2
BRANCH   1   4
ATOM      4  C   UNL     1      16.637   0.605  25.809  0.00  0.00    +0.175 C 
BRANCH   4   5
ATOM      5  C   UNL     1      17.527   0.357  24.583  0.00  0.00    +0.176 C 
ATOM      6  O   UNL     1      17.118   1.282  23.538  0.00  0.00    -0.332 OA
ATOM      7  C   UNL     1      17.933   1.262  22.319  0.00  0.00    +0.277 C 
ATOM      8  C   UNL     1      18.013  -0.174  21.745  0.00  0.00    +0.110 C 
ATOM      9  C   UNL     1      18.414  -1.198  22.827  0.00  0.00    +0.143 C 
ATOM     10  C   UNL     1      17.504  -1.088  24.051  0.00  0.00    +0.133 C 
BRANCH  10  11
ATOM     11  N   UNL     1      17.949  -2.009  25.109  0.00  0.00    -0.308 N 
ATOM     12  H   UNL     1      18.895  -1.911  25.452  0.00  0.00    +0.149 HD
ATOM     13  C   UNL     1      17.186  -2.965  25.646  0.00  0.00    +0.210 C 
ATOM     14  C   UNL     1      15.759  -3.105  25.083  0.00  0.00    +0.109 C 
ATOM     15  O   UNL     1      17.581  -3.712  26.541  0.00  0.00    -0.276 OA
ENDBRANCH  10  11
BRANCH   7  16
ATOM     16  C   UNL     1      19.357   1.784  22.605  0.00  0.00    +0.414 C 
ATOM     17  O   UNL     1      20.288   1.482  21.860  0.00  0.00    -0.240 OA
ATOM     18  O   UNL     1      19.574   2.506  23.579  0.00  0.00    -0.240 OA
ENDBRANCH   7  16
BRANCH   9  19
ATOM     19  O   UNL     1      18.328  -2.520  22.294  0.00  0.00    -0.390 OA
ATOM     20  H   UNL     1      18.134  -3.139  23.002  0.00  0.00    +0.210 HD
ENDBRANCH   9  19
BRANCH   7  21
ATOM     21  O   UNL     1      17.289   2.113  21.336  0.00  0.00    -0.343 OA
ATOM     22  C   UNL     1      16.734   3.345  21.862  0.00  0.00    +0.198 C 
ENDBRANCH   7  21
ENDBRANCH   4   5
BRANCH   4  23
ATOM     23  O   UNL     1      15.259   0.736  25.404  0.00  0.00    -0.387 OA
ATOM     24  H   UNL     1      15.005   1.662  25.427  0.00  0.00    +0.210 HD
ENDBRANCH   4  23
ENDBRANCH   1   4
BRANCH   1  25
ATOM     25  C   UNL     1      18.185   1.464  27.577  0.00  0.00    +0.141 C 
BRANCH  25  28
ATOM     26  C   UNL     1      20.495   2.173  27.062  0.00  0.00    +0.401 C 
ATOM     27  O   UNL     1      20.818   1.089  26.569  0.00  0.00    -0.226 OA
ATOM     28  N   UNL     1      19.287   2.433  27.563  0.00  0.00    -0.279 N 
ATOM     29  H   UNL     1      19.120   3.350  27.954  0.00  0.00    +0.152 HD
BRANCH  26  30
ATOM     30  O   UNL     1      21.460   3.227  27.114  0.00  0.00    -0.444 OA
BRANCH  30  31
ATOM     31  C   UNL     1      21.274   4.100  25.996  0.00  0.00    +0.292 C 
BRANCH  31  33
ATOM     32  N   UNL     1      19.159   5.387  25.860  0.00  0.00    -0.131 NA
ATOM     33  C   UNL     1      20.424   5.247  26.375  0.00  0.00    +0.120 A 
ATOM     34  C   UNL     1      20.678   6.296  27.234  0.00  0.00    +0.137 A 
ATOM     35  N   UNL     1      19.541   7.036  27.190  0.00  0.00    -0.249 N 
ATOM     36  N   UNL     1      18.622   6.480  26.378  0.00  0.00    -0.065 NA
BRANCH  35  37
ATOM     37  C   UNL     1      19.249   8.275  27.875  0.00  0.00    +0.178 C 
BRANCH  37  38
ATOM     38  C   UNL     1      19.565   9.532  27.055  0.00  0.00    +0.161 C 
BRANCH  38  39
ATOM     39  O   UNL     1      19.804   9.244  25.675  0.00  0.00    -0.388 OA
ATOM     40  H   UNL     1      18.979   8.890  25.283  0.00  0.00    +0.210 HD
ENDBRANCH  38  39
BRANCH  38  41
ATOM     41  C   UNL     1      18.499  10.629  27.178  0.00  0.00    +0.189 C 
BRANCH  41  42
ATOM     42  O   UNL     1      17.422  10.411  26.268  0.00  0.00    -0.392 OA
ATOM     43  H   UNL     1      16.924   9.627  26.568  0.00  0.00    +0.210 HD
ENDBRANCH  41  42
ENDBRANCH  38  41
ENDBRANCH  37  38
ENDBRANCH  35  37
ENDBRANCH  31  33
ENDBRANCH  30  31
ENDBRANCH  26  30
ENDBRANCH  25  28
ENDBRANCH   1  25
TORSDOF 18
