REMARK VINA RESULT:    -5.061     14.491     17.260
REMARK INTER + INTRA:         -11.874
REMARK INTER:                  -9.377
REMARK INTRA:                  -2.497
REMARK UNBOUND:                -2.671
REMARK  Name = lig_assembled_1.pdb
REMARK  18 active torsions:
REMARK  status: ('A' for Active; 'I' for Inactive)
REMARK    1  A    between atoms: _2  and  _9
REMARK    2  A    between atoms: _4  and  _15
REMARK    3  A    between atoms: _5  and  _9
REMARK    4  A    between atoms: _5  and  _10
REMARK    5  A    between atoms: _6  and  _7
REMARK    6  A    between atoms: _6  and  _15
REMARK    7  A    between atoms: _11  and  _31
REMARK    8  A    between atoms: _13  and  _19
REMARK    9  A    between atoms: _14  and  _18
REMARK   10  A    between atoms: _18  and  _19
REMARK   11  A    between atoms: _21  and  _22
REMARK   12  A    between atoms: _23  and  _24
REMARK   13  A    between atoms: _25  and  _27
REMARK   14  A    between atoms: _27  and  _28
REMARK   15  A    between atoms: _27  and  _29
REMARK   16  A    between atoms: _29  and  _30
REMARK   17  A    between atoms: _29  and  _31
REMARK   18  A    between atoms: _32  and  _34
REMARK                            x       y       z     vdW  Elec       q    Type
REMARK                         _______ _______ _______ _____ _____    ______ ____
ROOT
ATOM      1  C   UNL     1       7.790   3.835  33.756  0.00  0.00    +0.175 C 
ENDROOT
BRANCH   1   2
ATOM      2  C   UNL     1       7.165   5.009  34.524  0.00  0.00    +0.176 C 
ATOM      3  O   UNL     1       7.889   5.160  35.776  0.00  0.00    -0.332 OA
ATOM      4  C   UNL     1       7.496   6.307  36.600  0.00  0.00    +0.277 C 
ATOM      5  C   UNL     1       5.973   6.280  36.876  0.00  0.00    +0.110 C 
ATOM      6  C   UNL     1       5.162   6.088  35.577  0.00  0.00    +0.143 C 
ATOM      7  C   UNL     1       5.656   4.869  34.797  0.00  0.00    +0.133 C 
BRANCH   7   8
ATOM      8  N   UNL     1       4.935   4.748  33.520  0.00  0.00    -0.308 N 
ATOM      9  H   UNL     1       5.117   5.441  32.807  0.00  0.00    +0.149 HD
ATOM     10  C   UNL     1       4.055   3.782  33.241  0.00  0.00    +0.210 C 
ATOM     11  C   UNL     1       3.779   2.757  34.357  0.00  0.00    +0.109 C 
ATOM     12  O   UNL     1       3.477   3.697  32.157  0.00  0.00    -0.276 OA
ENDBRANCH   7   8
BRANCH   4  13
ATOM     13  C   UNL     1       7.870   7.633  35.906  0.00  0.00    +0.414 C 
ATOM     14  O   UNL     1       7.867   7.713  34.678  0.00  0.00    -0.240 OA
ATOM     15  O   UNL     1       8.175   8.623  36.572  0.00  0.00    -0.240 OA
ENDBRANCH   4  13
BRANCH   4  16
ATOM     16  O   UNL     1       8.192   6.208  37.869  0.00  0.00    -0.343 OA
ATOM     17  C   UNL     1       7.338   6.231  39.040  0.00  0.00    +0.198 C 
ENDBRANCH   4  16
BRANCH   6  18
ATOM     18  O   UNL     1       3.780   5.917  35.892  0.00  0.00    -0.390 OA
ATOM     19  H   UNL     1       3.315   5.580  35.123  0.00  0.00    +0.210 HD
ENDBRANCH   6  18
ENDBRANCH   1   2
BRANCH   1  20
ATOM     20  O   UNL     1       7.394   3.879  32.371  0.00  0.00    -0.387 OA
ATOM     21  H   UNL     1       7.169   2.995  32.073  0.00  0.00    +0.210 HD
ENDBRANCH   1  20
BRANCH   1  22
ATOM     22  C   UNL     1       7.416   2.476  34.371  0.00  0.00    +0.163 C 
BRANCH  22  23
ATOM     23  O   UNL     1       8.045   2.300  35.651  0.00  0.00    -0.388 OA
ATOM     24  H   UNL     1       8.749   1.651  35.576  0.00  0.00    +0.210 HD
ENDBRANCH  22  23
BRANCH  22  25
ATOM     25  C   UNL     1       7.835   1.355  33.425  0.00  0.00    +0.141 C 
BRANCH  25  28
ATOM     26  C   UNL     1       6.645  -0.506  32.318  0.00  0.00    +0.401 C 
ATOM     27  O   UNL     1       7.574  -1.305  32.454  0.00  0.00    -0.226 OA
ATOM     28  N   UNL     1       6.683   0.760  32.737  0.00  0.00    -0.279 N 
ATOM     29  H   UNL     1       5.874   1.342  32.571  0.00  0.00    +0.152 HD
BRANCH  26  30
ATOM     30  O   UNL     1       5.445  -0.938  31.672  0.00  0.00    -0.444 OA
BRANCH  30  31
ATOM     31  C   UNL     1       4.313  -0.542  32.451  0.00  0.00    +0.292 C 
BRANCH  31  33
ATOM     32  N   UNL     1       2.109   0.534  32.101  0.00  0.00    -0.131 NA
ATOM     33  C   UNL     1       3.341   0.185  31.613  0.00  0.00    +0.120 A 
ATOM     34  C   UNL     1       3.449   0.620  30.310  0.00  0.00    +0.137 A 
ATOM     35  N   UNL     1       2.249   1.218  30.065  0.00  0.00    -0.249 N 
ATOM     36  N   UNL     1       1.445   1.161  31.140  0.00  0.00    -0.065 NA
BRANCH  35  37
ATOM     37  C   UNL     1       1.809   1.863  28.849  0.00  0.00    +0.173 C 
BRANCH  37  38
ATOM     38  C   UNL     1       0.997   3.125  29.114  0.00  0.00    +0.179 C 
BRANCH  38  39
ATOM     39  O   UNL     1       1.756   4.081  29.853  0.00  0.00    -0.393 OA
ATOM     40  H   UNL     1       1.280   4.931  29.789  0.00  0.00    +0.209 HD
ENDBRANCH  38  39
ENDBRANCH  37  38
ENDBRANCH  35  37
ENDBRANCH  31  33
ENDBRANCH  30  31
ENDBRANCH  26  30
ENDBRANCH  25  28
ENDBRANCH  22  25
ENDBRANCH   1  22
TORSDOF 16
