REMARK VINA RESULT:    -5.855      5.181      7.920
REMARK INTER + INTRA:         -12.730
REMARK INTER:                 -10.659
REMARK INTRA:                  -2.071
REMARK UNBOUND:                -2.083
REMARK  Name = lig_assembled_35.pdb
REMARK  19 active torsions:
REMARK  status: ('A' for Active; 'I' for Inactive)
REMARK    1  A    between atoms: _2  and  _9
REMARK    2  A    between atoms: _4  and  _17
REMARK    3  A    between atoms: _5  and  _9
REMARK    4  A    between atoms: _5  and  _11
REMARK    5  A    between atoms: _6  and  _7
REMARK    6  A    between atoms: _6  and  _17
REMARK    7  A    between atoms: _9  and  _10
REMARK    8  A    between atoms: _13  and  _33
REMARK    9  A    between atoms: _15  and  _21
REMARK   10  A    between atoms: _16  and  _20
REMARK   11  A    between atoms: _20  and  _21
REMARK   12  A    between atoms: _23  and  _24
REMARK   13  A    between atoms: _25  and  _26
REMARK   14  A    between atoms: _27  and  _29
REMARK   15  A    between atoms: _29  and  _30
REMARK   16  A    between atoms: _29  and  _31
REMARK   17  A    between atoms: _31  and  _32
REMARK   18  A    between atoms: _31  and  _33
REMARK   19  A    between atoms: _34  and  _36
REMARK                            x       y       z     vdW  Elec       q    Type
REMARK                         _______ _______ _______ _____ _____    ______ ____
ROOT
ATOM      1  C   UNL     1      18.943   6.323  28.974  0.00  0.00    +0.163 C 
ENDROOT
BRANCH   1   2
ATOM      2  O   UNL     1      18.331   6.238  30.271  0.00  0.00    -0.388 OA
ATOM      3  H   UNL     1      17.411   5.982  30.175  0.00  0.00    +0.210 HD
ENDBRANCH   1   2
BRANCH   1   4
ATOM      4  C   UNL     1      20.250   7.133  29.033  0.00  0.00    +0.175 C 
BRANCH   4   5
ATOM      5  C   UNL     1      20.012   8.630  28.789  0.00  0.00    +0.176 C 
ATOM      6  O   UNL     1      19.201   9.139  29.884  0.00  0.00    -0.332 OA
ATOM      7  C   UNL     1      18.960  10.585  29.875  0.00  0.00    +0.277 C 
ATOM      8  C   UNL     1      18.347  11.023  28.523  0.00  0.00    +0.110 C 
ATOM      9  C   UNL     1      19.158  10.479  27.327  0.00  0.00    +0.143 C 
ATOM     10  C   UNL     1      19.352   8.967  27.439  0.00  0.00    +0.133 C 
BRANCH  10  11
ATOM     11  N   UNL     1      20.199   8.474  26.342  0.00  0.00    -0.308 N 
ATOM     12  H   UNL     1      21.159   8.786  26.310  0.00  0.00    +0.149 HD
ATOM     13  C   UNL     1      19.781   7.640  25.385  0.00  0.00    +0.210 C 
ATOM     14  C   UNL     1      18.306   7.203  25.446  0.00  0.00    +0.109 C 
ATOM     15  O   UNL     1      20.517   7.232  24.486  0.00  0.00    -0.276 OA
ENDBRANCH  10  11
BRANCH   7  16
ATOM     16  C   UNL     1      20.270  11.360  30.123  0.00  0.00    +0.414 C 
ATOM     17  O   UNL     1      20.568  12.318  29.411  0.00  0.00    -0.240 OA
ATOM     18  O   UNL     1      21.030  11.027  31.034  0.00  0.00    -0.240 OA
ENDBRANCH   7  16
BRANCH   7  19
ATOM     19  O   UNL     1      18.008  10.887  30.928  0.00  0.00    -0.343 OA
ATOM     20  C   UNL     1      17.715   9.785  31.824  0.00  0.00    +0.198 C 
ENDBRANCH   7  19
BRANCH   9  21
ATOM     21  O   UNL     1      18.477  10.777  26.108  0.00  0.00    -0.390 OA
ATOM     22  H   UNL     1      17.762  10.149  25.978  0.00  0.00    +0.210 HD
ENDBRANCH   9  21
ENDBRANCH   4   5
BRANCH   4  23
ATOM     23  O   UNL     1      21.198   6.618  28.077  0.00  0.00    -0.387 OA
ATOM     24  H   UNL     1      21.699   5.903  28.477  0.00  0.00    +0.210 HD
ENDBRANCH   4  23
ENDBRANCH   1   4
BRANCH   1  25
ATOM     25  C   UNL     1      19.236   4.923  28.443  0.00  0.00    +0.141 C 
BRANCH  25  28
ATOM     26  C   UNL     1      17.773   3.029  27.828  0.00  0.00    +0.401 C 
ATOM     27  O   UNL     1      18.462   2.186  28.407  0.00  0.00    -0.226 OA
ATOM     28  N   UNL     1      18.063   4.330  27.788  0.00  0.00    -0.279 N 
ATOM     29  H   UNL     1      17.441   4.942  27.279  0.00  0.00    +0.152 HD
BRANCH  26  30
ATOM     30  O   UNL     1      16.588   2.607  27.147  0.00  0.00    -0.444 OA
BRANCH  30  31
ATOM     31  C   UNL     1      16.808   1.325  26.554  0.00  0.00    +0.292 C 
BRANCH  31  33
ATOM     32  N   UNL     1      16.424   1.966  24.195  0.00  0.00    -0.131 NA
ATOM     33  C   UNL     1      17.265   1.477  25.159  0.00  0.00    +0.120 A 
ATOM     34  C   UNL     1      18.485   1.191  24.589  0.00  0.00    +0.138 A 
ATOM     35  N   UNL     1      18.328   1.543  23.280  0.00  0.00    -0.238 N 
ATOM     36  N   UNL     1      17.081   1.987  23.045  0.00  0.00    -0.065 NA
BRANCH  35  37
ATOM     37  C   UNL     1      19.272   1.468  22.181  0.00  0.00    +0.214 C 
ATOM     38  C   UNL     1      20.440   0.549  22.526  0.00  0.00    +0.045 C 
BRANCH  37  39
ATOM     39  C   UNL     1      18.589   1.066  20.891  0.00  0.00    +0.329 C 
ATOM     40  O   UNL     1      18.335  -0.089  20.573  0.00  0.00    -0.249 OA
BRANCH  39  41
ATOM     41  O   UNL     1      18.291   2.101  20.067  0.00  0.00    -0.479 OA
ATOM     42  H   UNL     1      17.347   2.193  19.824  0.00  0.00    +0.295 HD
ENDBRANCH  39  41
ENDBRANCH  37  39
ENDBRANCH  35  37
ENDBRANCH  31  33
ENDBRANCH  30  31
ENDBRANCH  26  30
ENDBRANCH  25  28
ENDBRANCH   1  25
TORSDOF 16
