REMARK VINA RESULT:    -6.741      0.000      0.000
REMARK INTER + INTRA:         -13.835
REMARK INTER:                 -12.070
REMARK INTRA:                  -1.766
REMARK UNBOUND:                -1.775
REMARK  Name = lig_assembled_69.pdb
REMARK  18 active torsions:
REMARK  status: ('A' for Active; 'I' for Inactive)
REMARK    1  A    between atoms: _2  and  _9
REMARK    2  A    between atoms: _4  and  _21
REMARK    3  A    between atoms: _6  and  _7
REMARK    4  A    between atoms: _6  and  _21
REMARK    5  A    between atoms: _11  and  _16
REMARK    6  A    between atoms: _14  and  _15
REMARK    7  A    between atoms: _17  and  _37
REMARK    8  A    between atoms: _19  and  _25
REMARK    9  A    between atoms: _20  and  _24
REMARK   10  A    between atoms: _24  and  _25
REMARK   11  A    between atoms: _27  and  _28
REMARK   12  A    between atoms: _29  and  _30
REMARK   13  A    between atoms: _31  and  _33
REMARK   14  A    between atoms: _33  and  _34
REMARK   15  A    between atoms: _33  and  _35
REMARK   16  A    between atoms: _35  and  _36
REMARK   17  A    between atoms: _35  and  _37
REMARK   18  A    between atoms: _38  and  _40
REMARK                            x       y       z     vdW  Elec       q    Type
REMARK                         _______ _______ _______ _____ _____    ______ ____
ROOT
ATOM      1  C   UNL     1       4.840   3.271  32.430  0.00  0.00    +0.163 C 
ENDROOT
BRANCH   1   2
ATOM      2  O   UNL     1       3.983   4.067  33.265  0.00  0.00    -0.388 OA
ATOM      3  H   UNL     1       3.147   3.611  33.392  0.00  0.00    +0.210 HD
ENDBRANCH   1   2
BRANCH   1   4
ATOM      4  C   UNL     1       6.221   3.081  33.082  0.00  0.00    +0.175 C 
BRANCH   4   5
ATOM      5  C   UNL     1       6.372   3.907  34.367  0.00  0.00    +0.176 C 
ATOM      6  O   UNL     1       6.250   5.312  34.013  0.00  0.00    -0.332 OA
ATOM      7  C   UNL     1       6.263   6.253  35.137  0.00  0.00    +0.277 C 
ATOM      8  C   UNL     1       7.527   6.040  36.006  0.00  0.00    +0.110 C 
ATOM      9  C   UNL     1       7.716   4.556  36.382  0.00  0.00    +0.143 C 
ATOM     10  C   UNL     1       7.683   3.667  35.138  0.00  0.00    +0.133 C 
BRANCH  10  11
ATOM     11  N   UNL     1       7.777   2.248  35.517  0.00  0.00    -0.308 N 
ATOM     12  H   UNL     1       6.990   1.834  35.997  0.00  0.00    +0.149 HD
ATOM     13  C   UNL     1       8.835   1.471  35.267  0.00  0.00    +0.210 C 
ATOM     14  C   UNL     1      10.028   2.137  34.557  0.00  0.00    +0.109 C 
ATOM     15  O   UNL     1       8.880   0.281  35.583  0.00  0.00    -0.276 OA
ENDBRANCH  10  11
BRANCH   7  16
ATOM     16  C   UNL     1       5.002   6.081  36.009  0.00  0.00    +0.414 C 
ATOM     17  O   UNL     1       3.956   5.664  35.513  0.00  0.00    -0.240 OA
ATOM     18  O   UNL     1       5.031   6.358  37.209  0.00  0.00    -0.240 OA
ENDBRANCH   7  16
BRANCH   7  19
ATOM     19  O   UNL     1       6.301   7.599  34.595  0.00  0.00    -0.343 OA
ATOM     20  C   UNL     1       7.576   8.276  34.729  0.00  0.00    +0.198 C 
ENDBRANCH   7  19
BRANCH   9  21
ATOM     21  O   UNL     1       8.966   4.384  37.050  0.00  0.00    -0.390 OA
ATOM     22  H   UNL     1       9.027   5.003  37.781  0.00  0.00    +0.210 HD
ENDBRANCH   9  21
ENDBRANCH   4   5
BRANCH   4  23
ATOM     23  O   UNL     1       7.263   3.423  32.146  0.00  0.00    -0.387 OA
ATOM     24  H   UNL     1       7.166   2.894  31.351  0.00  0.00    +0.210 HD
ENDBRANCH   4  23
ENDBRANCH   1   4
BRANCH   1  25
ATOM     25  C   UNL     1       4.204   1.908  32.178  0.00  0.00    +0.141 C 
BRANCH  25  28
ATOM     26  C   UNL     1       2.373   1.267  30.647  0.00  0.00    +0.401 C 
ATOM     27  O   UNL     1       1.701   0.725  31.527  0.00  0.00    -0.226 OA
ATOM     28  N   UNL     1       3.558   1.840  30.861  0.00  0.00    -0.279 N 
ATOM     29  H   UNL     1       4.039   2.251  30.073  0.00  0.00    +0.152 HD
BRANCH  26  30
ATOM     30  O   UNL     1       1.874   1.292  29.307  0.00  0.00    -0.444 OA
BRANCH  30  31
ATOM     31  C   UNL     1       0.982   2.398  29.150  0.00  0.00    +0.292 C 
BRANCH  31  33
ATOM     32  N   UNL     1       2.338   3.662  27.516  0.00  0.00    -0.131 NA
ATOM     33  C   UNL     1       1.168   3.024  27.828  0.00  0.00    +0.120 A 
ATOM     34  C   UNL     1       0.310   3.104  26.753  0.00  0.00    +0.137 A 
ATOM     35  N   UNL     1       1.012   3.814  25.825  0.00  0.00    -0.248 N 
ATOM     36  N   UNL     1       2.229   4.147  26.288  0.00  0.00    -0.065 NA
BRANCH  35  37
ATOM     37  C   UNL     1       0.569   4.254  24.503  0.00  0.00    +0.114 C 
ATOM     38  C   UNL     1       0.105   3.073  23.643  0.00  0.00    +0.062 C 
ATOM     39  C   UNL     1       1.198   2.317  22.885  0.00  0.00    +0.139 C 
ATOM     40  C   UNL     1       1.837   3.042  21.735  0.00  0.00    +0.002 C 
ATOM     41  C   UNL     1       1.887   4.362  21.498  0.00  0.00    +0.002 C 
ATOM     42  C   UNL     1       1.442   5.473  22.399  0.00  0.00    +0.139 C 
ATOM     43  C   UNL     1       1.618   5.191  23.887  0.00  0.00    +0.062 C 
BRANCH  39  44
ATOM     44  O   UNL     1       0.584   1.156  22.312  0.00  0.00    -0.388 OA
ATOM     45  H   UNL     1       1.118   0.895  21.543  0.00  0.00    +0.210 HD
ENDBRANCH  39  44
BRANCH  42  46
ATOM     46  O   UNL     1       0.091   5.799  22.112  0.00  0.00    -0.388 OA
ATOM     47  H   UNL     1      -0.454   5.038  22.378  0.00  0.00    +0.210 HD
ENDBRANCH  42  46
ENDBRANCH  35  37
ENDBRANCH  31  33
ENDBRANCH  30  31
ENDBRANCH  26  30
ENDBRANCH  25  28
ENDBRANCH   1  25
TORSDOF 16
