REMARK VINA RESULT:    -6.030      1.717      2.698
REMARK INTER + INTRA:         -12.927
REMARK INTER:                 -11.484
REMARK INTRA:                  -1.443
REMARK UNBOUND:                -2.491
REMARK  Name = lig_assembled_57.pdb
REMARK  17 active torsions:
REMARK  status: ('A' for Active; 'I' for Inactive)
REMARK    1  A    between atoms: _2  and  _10
REMARK    2  A    between atoms: _3  and  _13
REMARK    3  A    between atoms: _5  and  _19
REMARK    4  A    between atoms: _7  and  _8
REMARK    5  A    between atoms: _7  and  _19
REMARK    6  A    between atoms: _15  and  _35
REMARK    7  A    between atoms: _17  and  _23
REMARK    8  A    between atoms: _18  and  _22
REMARK    9  A    between atoms: _22  and  _23
REMARK   10  A    between atoms: _25  and  _26
REMARK   11  A    between atoms: _27  and  _28
REMARK   12  A    between atoms: _29  and  _31
REMARK   13  A    between atoms: _31  and  _32
REMARK   14  A    between atoms: _31  and  _33
REMARK   15  A    between atoms: _33  and  _34
REMARK   16  A    between atoms: _33  and  _35
REMARK   17  A    between atoms: _36  and  _38
REMARK                            x       y       z     vdW  Elec       q    Type
REMARK                         _______ _______ _______ _____ _____    ______ ____
ROOT
ATOM      1  C   UNL     1       6.258   2.928  32.743  0.00  0.00    +0.163 C 
ENDROOT
BRANCH   1   2
ATOM      2  O   UNL     1       6.129   3.211  31.340  0.00  0.00    -0.388 OA
ATOM      3  H   UNL     1       7.002   3.312  30.951  0.00  0.00    +0.210 HD
ENDBRANCH   1   2
BRANCH   1   4
ATOM      4  C   UNL     1       4.991   3.353  33.479  0.00  0.00    +0.141 C 
BRANCH   4   7
ATOM      5  C   UNL     1       2.761   3.600  32.445  0.00  0.00    +0.401 C 
ATOM      6  O   UNL     1       2.271   2.643  33.048  0.00  0.00    -0.226 OA
ATOM      7  N   UNL     1       4.027   3.999  32.581  0.00  0.00    -0.279 N 
ATOM      8  H   UNL     1       4.339   4.790  32.035  0.00  0.00    +0.152 HD
BRANCH   5   9
ATOM      9  O   UNL     1       1.943   4.341  31.535  0.00  0.00    -0.444 OA
BRANCH   9  10
ATOM     10  C   UNL     1       0.962   3.473  30.960  0.00  0.00    +0.292 C 
BRANCH  10  12
ATOM     11  N   UNL     1       2.280   3.745  28.889  0.00  0.00    -0.131 NA
ATOM     12  C   UNL     1       1.083   3.480  29.490  0.00  0.00    +0.120 A 
ATOM     13  C   UNL     1       0.137   3.224  28.520  0.00  0.00    +0.137 A 
ATOM     14  N   UNL     1       0.840   3.260  27.353  0.00  0.00    -0.248 N 
ATOM     15  N   UNL     1       2.113   3.647  27.580  0.00  0.00    -0.065 NA
BRANCH  14  16
ATOM     16  C   UNL     1       0.456   2.900  25.992  0.00  0.00    +0.111 C 
ATOM     17  C   UNL     1      -0.910   3.504  25.634  0.00  0.00    +0.042 C 
ATOM     18  C   UNL     1      -0.783   5.006  25.387  0.00  0.00    +0.086 C 
ATOM     19  N   UNL     1       0.155   5.329  24.307  0.00  0.00    -0.305 NA
ATOM     20  C   UNL     1       1.477   4.737  24.514  0.00  0.00    +0.086 C 
ATOM     21  C   UNL     1      -0.397   5.039  22.987  0.00  0.00    +0.104 C 
ATOM     22  C   UNL     1       1.468   3.247  24.887  0.00  0.00    +0.042 C 
ENDBRANCH  14  16
ENDBRANCH  10  12
ENDBRANCH   9  10
ENDBRANCH   5   9
ENDBRANCH   4   7
ENDBRANCH   1   4
BRANCH   1  23
ATOM     23  C   UNL     1       7.471   3.661  33.342  0.00  0.00    +0.175 C 
BRANCH  23  24
ATOM     24  C   UNL     1       7.190   4.177  34.761  0.00  0.00    +0.176 C 
ATOM     25  O   UNL     1       7.396   5.616  34.762  0.00  0.00    -0.332 OA
ATOM     26  C   UNL     1       7.071   6.303  36.016  0.00  0.00    +0.277 C 
ATOM     27  C   UNL     1       7.840   5.663  37.199  0.00  0.00    +0.110 C 
ATOM     28  C   UNL     1       7.677   4.129  37.220  0.00  0.00    +0.143 C 
ATOM     29  C   UNL     1       8.039   3.519  35.866  0.00  0.00    +0.133 C 
BRANCH  29  30
ATOM     30  N   UNL     1       7.796   2.068  35.872  0.00  0.00    -0.308 N 
ATOM     31  H   UNL     1       6.868   1.746  36.108  0.00  0.00    +0.149 HD
ATOM     32  C   UNL     1       8.722   1.148  35.587  0.00  0.00    +0.210 C 
ATOM     33  C   UNL     1      10.134   1.670  35.258  0.00  0.00    +0.109 C 
ATOM     34  O   UNL     1       8.487  -0.060  35.587  0.00  0.00    -0.276 OA
ENDBRANCH  29  30
BRANCH  26  35
ATOM     35  C   UNL     1       5.555   6.243  36.295  0.00  0.00    +0.414 C 
ATOM     36  O   UNL     1       4.757   6.142  35.364  0.00  0.00    -0.240 OA
ATOM     37  O   UNL     1       5.129   6.295  37.450  0.00  0.00    -0.240 OA
ENDBRANCH  26  35
BRANCH  28  38
ATOM     38  O   UNL     1       8.519   3.569  38.229  0.00  0.00    -0.390 OA
ATOM     39  H   UNL     1       9.263   4.155  38.387  0.00  0.00    +0.210 HD
ENDBRANCH  28  38
BRANCH  26  40
ATOM     40  O   UNL     1       7.490   7.686  35.893  0.00  0.00    -0.343 OA
ATOM     41  C   UNL     1       8.349   8.163  36.960  0.00  0.00    +0.198 C 
ENDBRANCH  26  40
ENDBRANCH  23  24
BRANCH  23  42
ATOM     42  O   UNL     1       7.866   4.751  32.486  0.00  0.00    -0.387 OA
ATOM     43  H   UNL     1       8.230   5.462  33.020  0.00  0.00    +0.210 HD
ENDBRANCH  23  42
ENDBRANCH   1  23
TORSDOF 14
