REMARK VINA RESULT:    -6.676     11.229     13.629
REMARK INTER + INTRA:         -15.930
REMARK INTER:                 -12.618
REMARK INTRA:                  -3.312
REMARK UNBOUND:                -2.424
REMARK  Name = lig_assembled_81.pdb
REMARK  22 active torsions:
REMARK  status: ('A' for Active; 'I' for Inactive)
REMARK    1  A    between atoms: _2  and  _12
REMARK    2  A    between atoms: _7  and  _30
REMARK    3  A    between atoms: _8  and  _24
REMARK    4  A    between atoms: _9  and  _10
REMARK    5  A    between atoms: _9  and  _30
REMARK    6  A    between atoms: _14  and  _15
REMARK    7  A    between atoms: _21  and  _22
REMARK    8  A    between atoms: _22  and  _23
REMARK    9  A    between atoms: _23  and  _25
REMARK   10  A    between atoms: _24  and  _25
REMARK   11  A    between atoms: _26  and  _46
REMARK   12  A    between atoms: _28  and  _34
REMARK   13  A    between atoms: _29  and  _33
REMARK   14  A    between atoms: _33  and  _34
REMARK   15  A    between atoms: _36  and  _37
REMARK   16  A    between atoms: _38  and  _39
REMARK   17  A    between atoms: _40  and  _42
REMARK   18  A    between atoms: _42  and  _43
REMARK   19  A    between atoms: _42  and  _44
REMARK   20  A    between atoms: _44  and  _45
REMARK   21  A    between atoms: _44  and  _46
REMARK   22  A    between atoms: _47  and  _49
REMARK                            x       y       z     vdW  Elec       q    Type
REMARK                         _______ _______ _______ _____ _____    ______ ____
ROOT
ATOM      1  C   UNL     1       7.016  -0.778  33.337  0.00  0.00    +0.401 C 
ATOM      2  O   UNL     1       7.480  -1.229  34.388  0.00  0.00    -0.226 OA
ATOM      3  N   UNL     1       7.419   0.360  32.772  0.00  0.00    -0.279 N 
ATOM      4  H   UNL     1       6.985   0.642  31.905  0.00  0.00    +0.152 HD
ENDROOT
BRANCH   1   5
ATOM      5  O   UNL     1       5.987  -1.507  32.664  0.00  0.00    -0.444 OA
BRANCH   5   6
ATOM      6  C   UNL     1       5.459  -0.714  31.598  0.00  0.00    +0.289 C 
BRANCH   6   8
ATOM      7  N   UNL     1       7.221  -1.623  30.154  0.00  0.00    -0.130 NA
ATOM      8  C   UNL     1       5.923  -1.231  30.295  0.00  0.00    +0.100 C 
ATOM      9  C   UNL     1       5.281  -1.388  29.081  0.00  0.00    +0.124 C 
ATOM     10  N   UNL     1       6.213  -2.019  28.268  0.00  0.00    -0.187 N 
ATOM     11  N   UNL     1       7.407  -1.965  28.891  0.00  0.00    -0.010 NA
BRANCH  10  12
ATOM     12  C   UNL     1       6.049  -2.464  26.914  0.00  0.00    +0.150 A 
ATOM     13  C   UNL     1       6.691  -3.583  26.328  0.00  0.00    +0.022 A 
ATOM     14  C   UNL     1       6.401  -3.737  24.947  0.00  0.00    +0.081 A 
ATOM     15  N   UNL     1       5.639  -2.834  24.272  0.00  0.00    -0.214 NA
ATOM     16  C   UNL     1       5.114  -1.811  24.924  0.00  0.00    +0.215 A 
ATOM     17  N   UNL     1       4.424  -0.863  24.206  0.00  0.00    -0.327 N 
ATOM     18  H   UNL     1       4.092  -1.237  23.330  0.00  0.00    +0.145 HD
ATOM     19  H   UNL     1       3.786  -0.342  24.789  0.00  0.00    +0.145 HD
ATOM     20  N   UNL     1       5.209  -1.641  26.229  0.00  0.00    -0.198 NA
BRANCH  14  21
ATOM     21  C   UNL     1       6.866  -4.833  24.014  0.00  0.00    +0.001 A 
ATOM     22  C   UNL     1       8.046  -4.797  23.250  0.00  0.00    +0.010 A 
ATOM     23  C   UNL     1       8.432  -5.854  22.408  0.00  0.00    +0.001 A 
ATOM     24  C   UNL     1       7.683  -7.014  22.346  0.00  0.00    +0.000 A 
ATOM     25  C   UNL     1       6.535  -7.120  23.127  0.00  0.00    +0.001 A 
ATOM     26  C   UNL     1       6.135  -6.042  23.931  0.00  0.00    +0.010 A 
ENDBRANCH  14  21
BRANCH  13  27
ATOM     27  C   UNL     1       7.536  -4.665  27.009  0.00  0.00    +0.069 C 
BRANCH  27  28
ATOM     28  C   UNL     1       9.031  -4.492  27.195  0.00  0.00    +0.164 C 
BRANCH  28  29
ATOM     29  O   UNL     1       9.819  -5.687  27.154  0.00  0.00    -0.380 OA
BRANCH  29  30
ATOM     30  C   UNL     1       8.937  -6.737  26.711  0.00  0.00    +0.156 C 
ATOM     31  C   UNL     1       9.520  -7.504  25.547  0.00  0.00    +0.034 C 
ENDBRANCH  29  30
ENDBRANCH  28  29
ENDBRANCH  27  28
ENDBRANCH  13  27
ENDBRANCH  10  12
ENDBRANCH   6   8
ENDBRANCH   5   6
ENDBRANCH   1   5
BRANCH   3  32
ATOM     32  C   UNL     1       8.458   1.228  33.341  0.00  0.00    +0.141 C 
BRANCH  32  33
ATOM     33  C   UNL     1       7.861   2.382  34.140  0.00  0.00    +0.163 C 
BRANCH  33  34
ATOM     34  O   UNL     1       8.639   2.613  35.326  0.00  0.00    -0.388 OA
ATOM     35  H   UNL     1       8.089   3.031  35.993  0.00  0.00    +0.210 HD
ENDBRANCH  33  34
BRANCH  33  36
ATOM     36  C   UNL     1       7.810   3.644  33.261  0.00  0.00    +0.175 C 
BRANCH  36  37
ATOM     37  C   UNL     1       6.972   4.760  33.901  0.00  0.00    +0.176 C 
ATOM     38  O   UNL     1       7.743   5.324  34.999  0.00  0.00    -0.332 OA
ATOM     39  C   UNL     1       7.141   6.482  35.666  0.00  0.00    +0.277 C 
ATOM     40  C   UNL     1       5.710   6.144  36.151  0.00  0.00    +0.110 C 
ATOM     41  C   UNL     1       4.862   5.513  35.026  0.00  0.00    +0.143 C 
ATOM     42  C   UNL     1       5.584   4.319  34.400  0.00  0.00    +0.133 C 
BRANCH  42  43
ATOM     43  N   UNL     1       4.806   3.780  33.273  0.00  0.00    -0.308 N 
ATOM     44  H   UNL     1       4.717   4.352  32.445  0.00  0.00    +0.149 HD
ATOM     45  C   UNL     1       4.210   2.585  33.274  0.00  0.00    +0.210 C 
ATOM     46  C   UNL     1       4.342   1.748  34.560  0.00  0.00    +0.109 C 
ATOM     47  O   UNL     1       3.577   2.153  32.310  0.00  0.00    -0.276 OA
ENDBRANCH  42  43
BRANCH  39  48
ATOM     48  C   UNL     1       7.090   7.696  34.715  0.00  0.00    +0.414 C 
ATOM     49  O   UNL     1       8.132   8.208  34.307  0.00  0.00    -0.240 OA
ATOM     50  O   UNL     1       6.009   8.163  34.356  0.00  0.00    -0.240 OA
ENDBRANCH  39  48
BRANCH  39  51
ATOM     51  O   UNL     1       7.952   6.803  36.825  0.00  0.00    -0.343 OA
ATOM     52  C   UNL     1       7.595   6.094  38.038  0.00  0.00    +0.198 C 
ENDBRANCH  39  51
BRANCH  41  53
ATOM     53  O   UNL     1       3.608   5.080  35.554  0.00  0.00    -0.390 OA
ATOM     54  H   UNL     1       3.540   4.125  35.479  0.00  0.00    +0.210 HD
ENDBRANCH  41  53
ENDBRANCH  36  37
BRANCH  36  55
ATOM     55  O   UNL     1       7.291   3.319  31.956  0.00  0.00    -0.387 OA
ATOM     56  H   UNL     1       7.795   3.786  31.285  0.00  0.00    +0.210 HD
ENDBRANCH  36  55
ENDBRANCH  33  36
ENDBRANCH  32  33
ENDBRANCH   3  32
TORSDOF 19
