REMARK VINA RESULT:    -5.758      3.938      6.099
REMARK INTER + INTRA:         -12.718
REMARK INTER:                 -10.354
REMARK INTRA:                  -2.364
REMARK UNBOUND:                -2.078
REMARK  Name = lig_assembled_14.pdb
REMARK  18 active torsions:
REMARK  status: ('A' for Active; 'I' for Inactive)
REMARK    1  A    between atoms: _2  and  _10
REMARK    2  A    between atoms: _3  and  _11
REMARK    3  A    between atoms: _5  and  _19
REMARK    4  A    between atoms: _7  and  _8
REMARK    5  A    between atoms: _7  and  _19
REMARK    6  A    between atoms: _10  and  _11
REMARK    7  A    between atoms: _15  and  _35
REMARK    8  A    between atoms: _17  and  _23
REMARK    9  A    between atoms: _18  and  _22
REMARK   10  A    between atoms: _22  and  _23
REMARK   11  A    between atoms: _25  and  _26
REMARK   12  A    between atoms: _27  and  _28
REMARK   13  A    between atoms: _29  and  _31
REMARK   14  A    between atoms: _31  and  _32
REMARK   15  A    between atoms: _31  and  _33
REMARK   16  A    between atoms: _33  and  _34
REMARK   17  A    between atoms: _33  and  _35
REMARK   18  A    between atoms: _36  and  _38
REMARK                            x       y       z     vdW  Elec       q    Type
REMARK                         _______ _______ _______ _____ _____    ______ ____
ROOT
ATOM      1  C   UNL     1      19.269  -1.984  22.416  0.00  0.00    +0.163 C 
ENDROOT
BRANCH   1   2
ATOM      2  O   UNL     1      20.136  -2.765  21.577  0.00  0.00    -0.388 OA
ATOM      3  H   UNL     1      20.132  -2.404  20.688  0.00  0.00    +0.210 HD
ENDBRANCH   1   2
BRANCH   1   4
ATOM      4  C   UNL     1      19.353  -2.450  23.880  0.00  0.00    +0.175 C 
BRANCH   4   5
ATOM      5  C   UNL     1      18.207  -1.887  24.732  0.00  0.00    +0.176 C 
ATOM      6  O   UNL     1      18.778  -1.379  25.969  0.00  0.00    -0.332 OA
ATOM      7  C   UNL     1      17.839  -0.703  26.870  0.00  0.00    +0.277 C 
ATOM      8  C   UNL     1      16.636  -1.624  27.188  0.00  0.00    +0.110 C 
ATOM      9  C   UNL     1      16.015  -2.213  25.905  0.00  0.00    +0.143 C 
ATOM     10  C   UNL     1      17.080  -2.890  25.041  0.00  0.00    +0.133 C 
BRANCH  10  11
ATOM     11  N   UNL     1      16.492  -3.371  23.781  0.00  0.00    -0.308 N 
ATOM     12  H   UNL     1      16.141  -2.682  23.130  0.00  0.00    +0.149 HD
ATOM     13  C   UNL     1      16.391  -4.659  23.441  0.00  0.00    +0.210 C 
ATOM     14  C   UNL     1      16.910  -5.686  24.465  0.00  0.00    +0.109 C 
ATOM     15  O   UNL     1      15.907  -5.033  22.372  0.00  0.00    -0.276 OA
ENDBRANCH  10  11
BRANCH   7  16
ATOM     16  C   UNL     1      17.331   0.612  26.243  0.00  0.00    +0.414 C 
ATOM     17  O   UNL     1      16.223   1.055  26.544  0.00  0.00    -0.240 OA
ATOM     18  O   UNL     1      18.027   1.230  25.437  0.00  0.00    -0.240 OA
ENDBRANCH   7  16
BRANCH   9  19
ATOM     19  O   UNL     1      15.012  -3.169  26.250  0.00  0.00    -0.390 OA
ATOM     20  H   UNL     1      14.625  -3.532  25.450  0.00  0.00    +0.210 HD
ENDBRANCH   9  19
BRANCH   7  21
ATOM     21  O   UNL     1      18.535  -0.415  28.110  0.00  0.00    -0.343 OA
ATOM     22  C   UNL     1      18.946  -1.582  28.867  0.00  0.00    +0.198 C 
ENDBRANCH   7  21
ENDBRANCH   4   5
BRANCH   4  23
ATOM     23  O   UNL     1      20.624  -2.077  24.447  0.00  0.00    -0.387 OA
ATOM     24  H   UNL     1      20.685  -2.412  25.345  0.00  0.00    +0.210 HD
ENDBRANCH   4  23
ENDBRANCH   1   4
BRANCH   1  25
ATOM     25  C   UNL     1      19.647  -0.509  22.328  0.00  0.00    +0.141 C 
BRANCH  25  28
ATOM     26  C   UNL     1      17.940   1.160  21.694  0.00  0.00    +0.401 C 
ATOM     27  O   UNL     1      18.327   1.251  20.527  0.00  0.00    -0.226 OA
ATOM     28  N   UNL     1      18.503   0.367  22.606  0.00  0.00    -0.279 N 
ATOM     29  H   UNL     1      18.120   0.368  23.541  0.00  0.00    +0.152 HD
BRANCH  26  30
ATOM     30  O   UNL     1      16.824   1.948  22.120  0.00  0.00    -0.444 OA
BRANCH  30  31
ATOM     31  C   UNL     1      16.888   3.237  21.506  0.00  0.00    +0.292 C 
BRANCH  31  33
ATOM     32  N   UNL     1      16.988   5.541  22.403  0.00  0.00    -0.131 NA
ATOM     33  C   UNL     1      17.404   4.237  22.459  0.00  0.00    +0.120 A 
ATOM     34  C   UNL     1      18.316   4.099  23.481  0.00  0.00    +0.137 A 
ATOM     35  N   UNL     1      18.420   5.354  23.997  0.00  0.00    -0.250 N 
ATOM     36  N   UNL     1      17.615   6.218  23.353  0.00  0.00    -0.065 NA
BRANCH  35  37
ATOM     37  C   UNL     1      19.294   5.820  25.052  0.00  0.00    +0.160 C 
BRANCH  37  38
ATOM     38  C   UNL     1      20.058   4.666  25.712  0.00  0.00    +0.107 C 
BRANCH  38  39
ATOM     39  N   UNL     1      19.659   4.439  27.112  0.00  0.00    -0.301 NA
ATOM     40  C   UNL     1      18.226   4.171  27.266  0.00  0.00    +0.084 C 
ATOM     41  C   UNL     1      18.152   3.576  28.658  0.00  0.00    +0.017 C 
ATOM     42  C   UNL     1      19.404   2.724  28.756  0.00  0.00    +0.017 C 
ATOM     43  C   UNL     1      20.349   3.277  27.693  0.00  0.00    +0.084 C 
ENDBRANCH  38  39
ENDBRANCH  37  38
ENDBRANCH  35  37
ENDBRANCH  31  33
ENDBRANCH  30  31
ENDBRANCH  26  30
ENDBRANCH  25  28
ENDBRANCH   1  25
TORSDOF 16
