REMARK VINA RESULT:    -5.246     14.638     16.659
REMARK INTER + INTRA:         -12.349
REMARK INTER:                 -10.153
REMARK INTRA:                  -2.196
REMARK UNBOUND:                -2.810
REMARK  Name = lig_assembled_53.pdb
REMARK  18 active torsions:
REMARK  status: ('A' for Active; 'I' for Inactive)
REMARK    1  A    between atoms: _2  and  _9
REMARK    2  A    between atoms: _4  and  _16
REMARK    3  A    between atoms: _5  and  _9
REMARK    4  A    between atoms: _5  and  _10
REMARK    5  A    between atoms: _6  and  _7
REMARK    6  A    between atoms: _6  and  _16
REMARK    7  A    between atoms: _12  and  _32
REMARK    8  A    between atoms: _14  and  _20
REMARK    9  A    between atoms: _15  and  _19
REMARK   10  A    between atoms: _19  and  _20
REMARK   11  A    between atoms: _22  and  _23
REMARK   12  A    between atoms: _24  and  _25
REMARK   13  A    between atoms: _26  and  _28
REMARK   14  A    between atoms: _28  and  _29
REMARK   15  A    between atoms: _28  and  _30
REMARK   16  A    between atoms: _30  and  _31
REMARK   17  A    between atoms: _30  and  _32
REMARK   18  A    between atoms: _33  and  _35
REMARK                            x       y       z     vdW  Elec       q    Type
REMARK                         _______ _______ _______ _____ _____    ______ ____
ROOT
ATOM      1  C   UNL     1       5.774   4.224  34.408  0.00  0.00    +0.175 C 
ENDROOT
BRANCH   1   2
ATOM      2  C   UNL     1       6.099   5.346  35.404  0.00  0.00    +0.176 C 
ATOM      3  O   UNL     1       7.491   5.205  35.800  0.00  0.00    -0.332 OA
ATOM      4  C   UNL     1       8.012   6.260  36.674  0.00  0.00    +0.277 C 
ATOM      5  C   UNL     1       7.123   6.407  37.933  0.00  0.00    +0.110 C 
ATOM      6  C   UNL     1       5.629   6.529  37.564  0.00  0.00    +0.143 C 
ATOM      7  C   UNL     1       5.194   5.383  36.650  0.00  0.00    +0.133 C 
BRANCH   7   8
ATOM      8  N   UNL     1       3.793   5.557  36.236  0.00  0.00    -0.308 N 
ATOM      9  H   UNL     1       3.585   6.295  35.578  0.00  0.00    +0.149 HD
ATOM     10  C   UNL     1       2.780   4.805  36.672  0.00  0.00    +0.210 C 
ATOM     11  C   UNL     1       3.127   3.706  37.694  0.00  0.00    +0.109 C 
ATOM     12  O   UNL     1       1.618   4.964  36.297  0.00  0.00    -0.276 OA
ENDBRANCH   7   8
BRANCH   4  13
ATOM     13  C   UNL     1       8.075   7.608  35.927  0.00  0.00    +0.414 C 
ATOM     14  O   UNL     1       8.248   8.655  36.550  0.00  0.00    -0.240 OA
ATOM     15  O   UNL     1       7.954   7.649  34.702  0.00  0.00    -0.240 OA
ENDBRANCH   4  13
BRANCH   4  16
ATOM     16  O   UNL     1       9.345   5.873  37.098  0.00  0.00    -0.343 OA
ATOM     17  C   UNL     1       9.559   5.886  38.532  0.00  0.00    +0.198 C 
ENDBRANCH   4  16
BRANCH   6  18
ATOM     18  O   UNL     1       4.837   6.510  38.752  0.00  0.00    -0.390 OA
ATOM     19  H   UNL     1       5.395   6.690  39.513  0.00  0.00    +0.210 HD
ENDBRANCH   6  18
ENDBRANCH   1   2
BRANCH   1  20
ATOM     20  O   UNL     1       5.246   3.078  35.105  0.00  0.00    -0.387 OA
ATOM     21  H   UNL     1       5.506   3.117  36.029  0.00  0.00    +0.210 HD
ENDBRANCH   1  20
BRANCH   1  22
ATOM     22  C   UNL     1       7.001   3.818  33.574  0.00  0.00    +0.163 C 
BRANCH  22  23
ATOM     23  O   UNL     1       7.626   4.970  32.984  0.00  0.00    -0.388 OA
ATOM     24  H   UNL     1       7.150   5.762  33.245  0.00  0.00    +0.210 HD
ENDBRANCH  22  23
BRANCH  22  25
ATOM     25  C   UNL     1       6.575   2.840  32.483  0.00  0.00    +0.141 C 
BRANCH  25  28
ATOM     26  C   UNL     1       4.380   2.224  31.530  0.00  0.00    +0.401 C 
ATOM     27  O   UNL     1       4.623   1.015  31.511  0.00  0.00    -0.226 OA
ATOM     28  N   UNL     1       5.238   3.149  31.963  0.00  0.00    -0.279 N 
ATOM     29  H   UNL     1       4.951   4.117  31.931  0.00  0.00    +0.152 HD
BRANCH  26  30
ATOM     30  O   UNL     1       3.111   2.685  31.062  0.00  0.00    -0.444 OA
BRANCH  30  31
ATOM     31  C   UNL     1       2.497   1.668  30.265  0.00  0.00    +0.292 C 
BRANCH  31  33
ATOM     32  N   UNL     1       1.513   3.527  28.956  0.00  0.00    -0.131 NA
ATOM     33  C   UNL     1       1.976   2.240  29.010  0.00  0.00    +0.120 A 
ATOM     34  C   UNL     1       1.856   1.667  27.763  0.00  0.00    +0.137 A 
ATOM     35  N   UNL     1       1.254   2.630  27.011  0.00  0.00    -0.241 N 
ATOM     36  N   UNL     1       1.093   3.764  27.722  0.00  0.00    -0.065 NA
BRANCH  35  37
ATOM     37  C   UNL     1       0.936   2.652  25.598  0.00  0.00    +0.265 C 
BRANCH  37  38
ATOM     38  C   UNL     1       1.852   3.486  24.744  0.00  0.00    +0.326 C 
ATOM     39  O   UNL     1       1.788   3.635  23.533  0.00  0.00    -0.249 OA
BRANCH  38  40
ATOM     40  O   UNL     1       2.829   4.093  25.469  0.00  0.00    -0.479 OA
ATOM     41  H   UNL     1       3.073   3.654  26.306  0.00  0.00    +0.295 HD
ENDBRANCH  38  40
ENDBRANCH  37  38
ENDBRANCH  35  37
ENDBRANCH  31  33
ENDBRANCH  30  31
ENDBRANCH  26  30
ENDBRANCH  25  28
ENDBRANCH  22  25
ENDBRANCH   1  22
TORSDOF 16
