REMARK VINA RESULT:    -6.303     15.372     18.102
REMARK INTER + INTRA:         -15.026
REMARK INTER:                 -11.209
REMARK INTRA:                  -3.817
REMARK UNBOUND:                -2.643
REMARK  Name = lig_assembled_37.pdb
REMARK  21 active torsions:
REMARK  status: ('A' for Active; 'I' for Inactive)
REMARK    1  A    between atoms: _2  and  _9
REMARK    2  A    between atoms: _4  and  _24
REMARK    3  A    between atoms: _6  and  _7
REMARK    4  A    between atoms: _6  and  _24
REMARK    5  A    between atoms: _9  and  _10
REMARK    6  A    between atoms: _9  and  _11
REMARK    7  A    between atoms: _11  and  _18
REMARK    8  A    between atoms: _12  and  _13
REMARK    9  A    between atoms: _12  and  _18
REMARK   10  A    between atoms: _20  and  _40
REMARK   11  A    between atoms: _22  and  _28
REMARK   12  A    between atoms: _23  and  _27
REMARK   13  A    between atoms: _27  and  _28
REMARK   14  A    between atoms: _30  and  _31
REMARK   15  A    between atoms: _32  and  _33
REMARK   16  A    between atoms: _34  and  _36
REMARK   17  A    between atoms: _36  and  _37
REMARK   18  A    between atoms: _36  and  _38
REMARK   19  A    between atoms: _38  and  _39
REMARK   20  A    between atoms: _38  and  _40
REMARK   21  A    between atoms: _41  and  _43
REMARK                            x       y       z     vdW  Elec       q    Type
REMARK                         _______ _______ _______ _____ _____    ______ ____
ROOT
ATOM      1  C   UNL     1      16.718   3.339  21.912  0.00  0.00    +0.141 C 
ENDROOT
BRANCH   1   4
ATOM      2  C   UNL     1      17.341   1.394  20.520  0.00  0.00    +0.401 C 
ATOM      3  O   UNL     1      16.597   1.704  19.587  0.00  0.00    -0.226 OA
ATOM      4  N   UNL     1      17.456   2.098  21.648  0.00  0.00    -0.279 N 
ATOM      5  H   UNL     1      18.087   1.758  22.360  0.00  0.00    +0.152 HD
BRANCH   2   6
ATOM      6  O   UNL     1      18.137   0.211  20.411  0.00  0.00    -0.444 OA
BRANCH   6   7
ATOM      7  C   UNL     1      18.951   0.073  21.578  0.00  0.00    +0.292 C 
BRANCH   7   9
ATOM      8  N   UNL     1      19.397  -2.316  22.067  0.00  0.00    -0.131 NA
ATOM      9  C   UNL     1      18.644  -1.191  22.274  0.00  0.00    +0.120 A 
ATOM     10  C   UNL     1      17.648  -1.478  23.180  0.00  0.00    +0.138 A 
ATOM     11  N   UNL     1      17.829  -2.798  23.467  0.00  0.00    -0.238 N 
ATOM     12  N   UNL     1      18.894  -3.293  22.809  0.00  0.00    -0.065 NA
BRANCH  11  13
ATOM     13  C   UNL     1      17.100  -3.648  24.389  0.00  0.00    +0.214 C 
ATOM     14  C   UNL     1      17.873  -4.930  24.697  0.00  0.00    +0.045 C 
BRANCH  13  15
ATOM     15  C   UNL     1      16.774  -2.912  25.669  0.00  0.00    +0.332 C 
ATOM     16  O   UNL     1      15.638  -2.609  26.016  0.00  0.00    -0.248 OA
BRANCH  15  17
ATOM     17  O   UNL     1      17.902  -2.631  26.374  0.00  0.00    -0.458 OA
BRANCH  17  18
ATOM     18  C   UNL     1      17.709  -2.217  27.736  0.00  0.00    +0.267 C 
BRANCH  18  19
ATOM     19  C   UNL     1      18.298  -0.846  27.946  0.00  0.00    -0.010 A 
ATOM     20  C   UNL     1      17.765   0.266  27.280  0.00  0.00    +0.007 A 
ATOM     21  C   UNL     1      18.292   1.540  27.494  0.00  0.00    +0.000 A 
ATOM     22  C   UNL     1      19.359   1.716  28.374  0.00  0.00    +0.000 A 
ATOM     23  C   UNL     1      19.901   0.618  29.036  0.00  0.00    +0.000 A 
ATOM     24  C   UNL     1      19.377  -0.659  28.822  0.00  0.00    +0.007 A 
ENDBRANCH  18  19
ENDBRANCH  17  18
ENDBRANCH  15  17
ENDBRANCH  13  15
ENDBRANCH  11  13
ENDBRANCH   7   9
ENDBRANCH   6   7
ENDBRANCH   2   6
ENDBRANCH   1   4
BRANCH   1  25
ATOM     25  C   UNL     1      17.579   4.370  22.633  0.00  0.00    +0.163 C 
BRANCH  25  26
ATOM     26  O   UNL     1      16.905   5.639  22.662  0.00  0.00    -0.388 OA
ATOM     27  H   UNL     1      16.614   5.868  21.776  0.00  0.00    +0.210 HD
ENDBRANCH  25  26
BRANCH  25  28
ATOM     28  C   UNL     1      17.886   3.878  24.058  0.00  0.00    +0.175 C 
BRANCH  28  29
ATOM     29  C   UNL     1      19.389   3.653  24.280  0.00  0.00    +0.176 C 
ATOM     30  O   UNL     1      19.646   2.225  24.187  0.00  0.00    -0.332 OA
ATOM     31  C   UNL     1      21.055   1.828  24.269  0.00  0.00    +0.277 C 
ATOM     32  C   UNL     1      21.702   2.393  25.557  0.00  0.00    +0.110 C 
ATOM     33  C   UNL     1      21.428   3.904  25.717  0.00  0.00    +0.143 C 
ATOM     34  C   UNL     1      19.933   4.204  25.611  0.00  0.00    +0.133 C 
BRANCH  34  35
ATOM     35  N   UNL     1      19.693   5.654  25.678  0.00  0.00    -0.308 N 
ATOM     36  H   UNL     1      20.012   6.221  24.904  0.00  0.00    +0.149 HD
ATOM     37  C   UNL     1      19.081   6.271  26.692  0.00  0.00    +0.210 C 
ATOM     38  C   UNL     1      18.630   5.383  27.867  0.00  0.00    +0.109 C 
ATOM     39  O   UNL     1      18.881   7.486  26.714  0.00  0.00    -0.276 OA
ENDBRANCH  34  35
BRANCH  31  40
ATOM     40  C   UNL     1      21.837   2.328  23.037  0.00  0.00    +0.414 C 
ATOM     41  O   UNL     1      21.664   1.803  21.938  0.00  0.00    -0.240 OA
ATOM     42  O   UNL     1      22.640   3.256  23.142  0.00  0.00    -0.240 OA
ENDBRANCH  31  40
BRANCH  31  43
ATOM     43  O   UNL     1      21.110   0.379  24.327  0.00  0.00    -0.343 OA
ATOM     44  C   UNL     1      21.302  -0.173  25.654  0.00  0.00    +0.198 C 
ENDBRANCH  31  43
BRANCH  33  45
ATOM     45  O   UNL     1      21.910   4.349  26.985  0.00  0.00    -0.390 OA
ATOM     46  H   UNL     1      22.401   3.641  27.408  0.00  0.00    +0.210 HD
ENDBRANCH  33  45
ENDBRANCH  28  29
BRANCH  28  47
ATOM     47  O   UNL     1      17.156   2.665  24.332  0.00  0.00    -0.387 OA
ATOM     48  H   UNL     1      16.352   2.649  23.808  0.00  0.00    +0.210 HD
ENDBRANCH  28  47
ENDBRANCH  25  28
ENDBRANCH   1  25
TORSDOF 18
