REMARK VINA RESULT:    -5.928     15.723     18.634
REMARK INTER + INTRA:         -12.629
REMARK INTER:                  -9.202
REMARK INTRA:                  -3.427
REMARK UNBOUND:                -2.370
REMARK  Name = lig_assembled_87.pdb
REMARK  17 active torsions:
REMARK  status: ('A' for Active; 'I' for Inactive)
REMARK    1  A    between atoms: _2  and  _10
REMARK    2  A    between atoms: _3  and  _13
REMARK    3  A    between atoms: _5  and  _21
REMARK    4  A    between atoms: _7  and  _8
REMARK    5  A    between atoms: _7  and  _21
REMARK    6  A    between atoms: _17  and  _37
REMARK    7  A    between atoms: _19  and  _25
REMARK    8  A    between atoms: _20  and  _24
REMARK    9  A    between atoms: _24  and  _25
REMARK   10  A    between atoms: _27  and  _28
REMARK   11  A    between atoms: _29  and  _30
REMARK   12  A    between atoms: _31  and  _33
REMARK   13  A    between atoms: _33  and  _34
REMARK   14  A    between atoms: _33  and  _35
REMARK   15  A    between atoms: _35  and  _36
REMARK   16  A    between atoms: _35  and  _37
REMARK   17  A    between atoms: _38  and  _40
REMARK                            x       y       z     vdW  Elec       q    Type
REMARK                         _______ _______ _______ _____ _____    ______ ____
ROOT
ATOM      1  C   UNL     1      21.965   2.773  24.137  0.00  0.00    +0.163 C 
ENDROOT
BRANCH   1   2
ATOM      2  O   UNL     1      21.850   2.555  22.722  0.00  0.00    -0.388 OA
ATOM      3  H   UNL     1      22.726   2.465  22.339  0.00  0.00    +0.210 HD
ENDBRANCH   1   2
BRANCH   1   4
ATOM      4  C   UNL     1      22.754   1.636  24.778  0.00  0.00    +0.141 C 
BRANCH   4   7
ATOM      5  C   UNL     1      22.212  -0.773  24.870  0.00  0.00    +0.401 C 
ATOM      6  O   UNL     1      22.256  -0.832  26.101  0.00  0.00    -0.226 OA
ATOM      7  N   UNL     1      22.437   0.339  24.169  0.00  0.00    -0.279 N 
ATOM      8  H   UNL     1      22.387   0.285  23.161  0.00  0.00    +0.152 HD
BRANCH   5   9
ATOM      9  O   UNL     1      21.906  -1.957  24.129  0.00  0.00    -0.444 OA
BRANCH   9  10
ATOM     10  C   UNL     1      21.136  -1.612  22.974  0.00  0.00    +0.292 C 
BRANCH  10  12
ATOM     11  N   UNL     1      18.902  -2.094  22.035  0.00  0.00    -0.131 NA
ATOM     12  C   UNL     1      19.783  -2.187  23.077  0.00  0.00    +0.120 A 
ATOM     13  C   UNL     1      19.188  -2.875  24.110  0.00  0.00    +0.137 A 
ATOM     14  N   UNL     1      17.987  -3.287  23.595  0.00  0.00    -0.248 N 
ATOM     15  N   UNL     1      17.788  -2.708  22.393  0.00  0.00    -0.065 NA
BRANCH  14  16
ATOM     16  C   UNL     1      16.959  -4.193  24.141  0.00  0.00    +0.112 C 
ATOM     17  C   UNL     1      15.660  -3.490  24.623  0.00  0.00    +0.045 C 
ATOM     18  C   UNL     1      15.307  -3.687  26.106  0.00  0.00    +0.059 C 
ATOM     19  C   UNL     1      14.674  -5.060  26.371  0.00  0.00    +0.020 C 
ATOM     20  C   UNL     1      15.837  -5.940  26.829  0.00  0.00    +0.020 C 
ATOM     21  C   UNL     1      17.069  -5.060  26.620  0.00  0.00    +0.059 C 
ATOM     22  N   UNL     1      16.487  -3.765  26.958  0.00  0.00    -0.299 NA
ATOM     23  C   UNL     1      17.370  -2.618  26.986  0.00  0.00    +0.105 C 
ATOM     24  C   UNL     1      17.575  -5.178  25.181  0.00  0.00    +0.045 C 
ENDBRANCH  14  16
ENDBRANCH  10  12
ENDBRANCH   9  10
ENDBRANCH   5   9
ENDBRANCH   4   7
ENDBRANCH   1   4
BRANCH   1  25
ATOM     25  C   UNL     1      20.577   2.870  24.794  0.00  0.00    +0.175 C 
BRANCH  25  26
ATOM     26  C   UNL     1      19.523   2.044  24.041  0.00  0.00    +0.176 C 
ATOM     27  O   UNL     1      18.849   2.927  23.103  0.00  0.00    -0.332 OA
ATOM     28  C   UNL     1      17.875   2.285  22.216  0.00  0.00    +0.277 C 
ATOM     29  C   UNL     1      16.826   1.500  23.042  0.00  0.00    +0.110 C 
ATOM     30  C   UNL     1      17.496   0.570  24.075  0.00  0.00    +0.143 C 
ATOM     31  C   UNL     1      18.492   1.340  24.943  0.00  0.00    +0.133 C 
BRANCH  31  32
ATOM     32  N   UNL     1      19.186   0.427  25.864  0.00  0.00    -0.308 N 
ATOM     33  H   UNL     1      19.704  -0.343  25.465  0.00  0.00    +0.149 HD
ATOM     34  C   UNL     1      19.177   0.550  27.194  0.00  0.00    +0.210 C 
ATOM     35  C   UNL     1      18.357   1.719  27.773  0.00  0.00    +0.109 C 
ATOM     36  O   UNL     1      19.780  -0.221  27.941  0.00  0.00    -0.276 OA
ENDBRANCH  31  32
BRANCH  28  37
ATOM     37  C   UNL     1      18.579   1.327  21.232  0.00  0.00    +0.414 C 
ATOM     38  O   UNL     1      19.807   1.293  21.172  0.00  0.00    -0.240 OA
ATOM     39  O   UNL     1      17.919   0.589  20.499  0.00  0.00    -0.240 OA
ENDBRANCH  28  37
BRANCH  30  40
ATOM     40  O   UNL     1      16.498  -0.017  24.912  0.00  0.00    -0.390 OA
ATOM     41  H   UNL     1      16.840  -0.106  25.805  0.00  0.00    +0.210 HD
ENDBRANCH  30  40
BRANCH  28  42
ATOM     42  O   UNL     1      17.188   3.327  21.476  0.00  0.00    -0.343 OA
ATOM     43  C   UNL     1      17.093   4.602  22.158  0.00  0.00    +0.198 C 
ENDBRANCH  28  42
ENDBRANCH  25  26
BRANCH  25  44
ATOM     44  O   UNL     1      20.162   4.247  24.877  0.00  0.00    -0.387 OA
ATOM     45  H   UNL     1      20.682   4.699  25.545  0.00  0.00    +0.210 HD
ENDBRANCH  25  44
ENDBRANCH   1  25
TORSDOF 14
