REMARK VINA RESULT:    -5.585      2.561      8.380
REMARK INTER + INTRA:         -12.966
REMARK INTER:                 -10.796
REMARK INTRA:                  -2.170
REMARK UNBOUND:                -2.810
REMARK  Name = lig_assembled_53.pdb
REMARK  18 active torsions:
REMARK  status: ('A' for Active; 'I' for Inactive)
REMARK    1  A    between atoms: _2  and  _9
REMARK    2  A    between atoms: _4  and  _16
REMARK    3  A    between atoms: _5  and  _9
REMARK    4  A    between atoms: _5  and  _10
REMARK    5  A    between atoms: _6  and  _7
REMARK    6  A    between atoms: _6  and  _16
REMARK    7  A    between atoms: _12  and  _32
REMARK    8  A    between atoms: _14  and  _20
REMARK    9  A    between atoms: _15  and  _19
REMARK   10  A    between atoms: _19  and  _20
REMARK   11  A    between atoms: _22  and  _23
REMARK   12  A    between atoms: _24  and  _25
REMARK   13  A    between atoms: _26  and  _28
REMARK   14  A    between atoms: _28  and  _29
REMARK   15  A    between atoms: _28  and  _30
REMARK   16  A    between atoms: _30  and  _31
REMARK   17  A    between atoms: _30  and  _32
REMARK   18  A    between atoms: _33  and  _35
REMARK                            x       y       z     vdW  Elec       q    Type
REMARK                         _______ _______ _______ _____ _____    ______ ____
ROOT
ATOM      1  C   UNL     1      16.412  -1.075  25.338  0.00  0.00    +0.175 C 
ENDROOT
BRANCH   1   2
ATOM      2  C   UNL     1      17.448  -0.592  24.312  0.00  0.00    +0.176 C 
ATOM      3  O   UNL     1      16.828   0.446  23.505  0.00  0.00    -0.332 OA
ATOM      4  C   UNL     1      17.707   1.104  22.534  0.00  0.00    +0.277 C 
ATOM      5  C   UNL     1      18.376   0.055  21.612  0.00  0.00    +0.110 C 
ATOM      6  C   UNL     1      19.022  -1.087  22.425  0.00  0.00    +0.143 C 
ATOM      7  C   UNL     1      18.021  -1.698  23.405  0.00  0.00    +0.133 C 
BRANCH   7   8
ATOM      8  N   UNL     1      18.672  -2.725  24.234  0.00  0.00    -0.308 N 
ATOM      9  H   UNL     1      19.522  -2.471  24.717  0.00  0.00    +0.149 HD
ATOM     10  C   UNL     1      18.213  -3.969  24.389  0.00  0.00    +0.210 C 
ATOM     11  C   UNL     1      16.929  -4.332  23.618  0.00  0.00    +0.109 C 
ATOM     12  O   UNL     1      18.771  -4.804  25.101  0.00  0.00    -0.276 OA
ENDBRANCH   7   8
BRANCH   4  13
ATOM     13  C   UNL     1      18.795   1.929  23.251  0.00  0.00    +0.414 C 
ATOM     14  O   UNL     1      18.499   2.653  24.201  0.00  0.00    -0.240 OA
ATOM     15  O   UNL     1      19.968   1.870  22.882  0.00  0.00    -0.240 OA
ENDBRANCH   4  13
BRANCH   4  16
ATOM     16  O   UNL     1      16.892   1.980  21.713  0.00  0.00    -0.343 OA
ATOM     17  C   UNL     1      17.057   1.808  20.283  0.00  0.00    +0.198 C 
ENDBRANCH   4  16
BRANCH   6  18
ATOM     18  O   UNL     1      19.492  -2.103  21.538  0.00  0.00    -0.390 OA
ATOM     19  H   UNL     1      18.986  -2.907  21.675  0.00  0.00    +0.210 HD
ENDBRANCH   6  18
ENDBRANCH   1   2
BRANCH   1  20
ATOM     20  O   UNL     1      15.162  -1.367  24.682  0.00  0.00    -0.387 OA
ATOM     21  H   UNL     1      14.525  -0.678  24.885  0.00  0.00    +0.210 HD
ENDBRANCH   1  20
BRANCH   1  22
ATOM     22  C   UNL     1      16.193  -0.052  26.465  0.00  0.00    +0.163 C 
BRANCH  22  23
ATOM     23  O   UNL     1      15.291   0.986  26.049  0.00  0.00    -0.388 OA
ATOM     24  H   UNL     1      14.890   1.392  26.821  0.00  0.00    +0.210 HD
ENDBRANCH  22  23
BRANCH  22  25
ATOM     25  C   UNL     1      17.533   0.554  26.871  0.00  0.00    +0.141 C 
BRANCH  25  28
ATOM     26  C   UNL     1      18.059   2.822  27.698  0.00  0.00    +0.401 C 
ATOM     27  O   UNL     1      18.609   2.422  28.726  0.00  0.00    -0.226 OA
ATOM     28  N   UNL     1      17.523   2.019  26.778  0.00  0.00    -0.279 N 
ATOM     29  H   UNL     1      17.084   2.442  25.972  0.00  0.00    +0.152 HD
BRANCH  26  30
ATOM     30  O   UNL     1      17.976   4.229  27.457  0.00  0.00    -0.444 OA
BRANCH  30  31
ATOM     31  C   UNL     1      19.258   4.723  27.059  0.00  0.00    +0.292 C 
BRANCH  31  33
ATOM     32  N   UNL     1      18.503   6.815  25.967  0.00  0.00    -0.131 NA
ATOM     33  C   UNL     1      19.232   6.193  26.945  0.00  0.00    +0.120 A 
ATOM     34  C   UNL     1      19.865   7.147  27.710  0.00  0.00    +0.137 A 
ATOM     35  N   UNL     1      19.536   8.325  27.111  0.00  0.00    -0.241 N 
ATOM     36  N   UNL     1      18.679   8.123  26.091  0.00  0.00    -0.065 NA
BRANCH  35  37
ATOM     37  C   UNL     1      19.835   9.689  27.498  0.00  0.00    +0.265 C 
BRANCH  37  38
ATOM     38  C   UNL     1      18.738  10.686  27.241  0.00  0.00    +0.326 C 
ATOM     39  O   UNL     1      17.896  11.069  28.040  0.00  0.00    -0.249 OA
BRANCH  38  40
ATOM     40  O   UNL     1      18.746  11.151  25.964  0.00  0.00    -0.479 OA
ATOM     41  H   UNL     1      18.049  11.798  25.741  0.00  0.00    +0.295 HD
ENDBRANCH  38  40
ENDBRANCH  37  38
ENDBRANCH  35  37
ENDBRANCH  31  33
ENDBRANCH  30  31
ENDBRANCH  26  30
ENDBRANCH  25  28
ENDBRANCH  22  25
ENDBRANCH   1  22
TORSDOF 16
