REMARK VINA RESULT:    -7.659      0.000      0.000
REMARK INTER + INTRA:         -15.248
REMARK INTER:                 -13.242
REMARK INTRA:                  -2.006
REMARK UNBOUND:                -1.992
REMARK  Name = lig_assembled_25.pdb
REMARK  16 active torsions:
REMARK  status: ('A' for Active; 'I' for Inactive)
REMARK    1  A    between atoms: _2  and  _9
REMARK    2  A    between atoms: _4  and  _25
REMARK    3  A    between atoms: _6  and  _7
REMARK    4  A    between atoms: _6  and  _25
REMARK    5  A    between atoms: _21  and  _41
REMARK    6  A    between atoms: _23  and  _29
REMARK    7  A    between atoms: _24  and  _28
REMARK    8  A    between atoms: _28  and  _29
REMARK    9  A    between atoms: _31  and  _32
REMARK   10  A    between atoms: _33  and  _34
REMARK   11  A    between atoms: _35  and  _37
REMARK   12  A    between atoms: _37  and  _38
REMARK   13  A    between atoms: _37  and  _39
REMARK   14  A    between atoms: _39  and  _40
REMARK   15  A    between atoms: _39  and  _41
REMARK   16  A    between atoms: _42  and  _44
REMARK                            x       y       z     vdW  Elec       q    Type
REMARK                         _______ _______ _______ _____ _____    ______ ____
ROOT
ATOM      1  C   UNL     1       1.566   3.474  32.555  0.00  0.00    +0.141 C 
ENDROOT
BRANCH   1   4
ATOM      2  C   UNL     1      -0.313   3.954  31.023  0.00  0.00    +0.401 C 
ATOM      3  O   UNL     1      -1.154   3.390  31.727  0.00  0.00    -0.226 OA
ATOM      4  N   UNL     1       0.982   4.036  31.331  0.00  0.00    -0.279 N 
ATOM      5  H   UNL     1       1.597   4.512  30.685  0.00  0.00    +0.152 HD
BRANCH   2   6
ATOM      6  O   UNL     1      -0.728   4.562  29.797  0.00  0.00    -0.444 OA
BRANCH   6   7
ATOM      7  C   UNL     1      -0.931   3.549  28.807  0.00  0.00    +0.292 C 
BRANCH   7   9
ATOM      8  N   UNL     1       1.488   3.862  28.418  0.00  0.00    -0.131 NA
ATOM      9  C   UNL     1       0.282   3.384  27.983  0.00  0.00    +0.120 A 
ATOM     10  C   UNL     1       0.446   2.807  26.744  0.00  0.00    +0.138 A 
ATOM     11  N   UNL     1       1.773   2.981  26.467  0.00  0.00    -0.240 N 
ATOM     12  N   UNL     1       2.396   3.608  27.487  0.00  0.00    -0.064 NA
BRANCH  11  13
ATOM     13  C   UNL     1       2.523   2.674  25.260  0.00  0.00    +0.170 C 
ATOM     14  C   UNL     1       2.058   3.492  24.062  0.00  0.00    -0.011 A 
ATOM     15  C   UNL     1       1.696   2.632  23.001  0.00  0.00    -0.012 A 
ATOM     16  C   UNL     1       1.876   1.258  23.428  0.00  0.00    -0.012 A 
ATOM     17  C   UNL     1       1.690   0.074  22.734  0.00  0.00    +0.009 A 
ATOM     18  C   UNL     1       1.973  -1.130  23.387  0.00  0.00    +0.001 A 
ATOM     19  C   UNL     1       2.429  -1.139  24.716  0.00  0.00    +0.000 A 
ATOM     20  C   UNL     1       2.616   0.055  25.418  0.00  0.00    +0.006 A 
ATOM     21  C   UNL     1       1.262   3.151  21.794  0.00  0.00    +0.009 A 
ATOM     22  C   UNL     1       1.191   4.541  21.654  0.00  0.00    +0.001 A 
ATOM     23  C   UNL     1       1.555   5.392  22.710  0.00  0.00    +0.000 A 
ATOM     24  C   UNL     1       1.997   4.872  23.927  0.00  0.00    +0.006 A 
ATOM     25  C   UNL     1       2.334   1.246  24.765  0.00  0.00    -0.011 A 
ENDBRANCH  11  13
ENDBRANCH   7   9
ENDBRANCH   6   7
ENDBRANCH   2   6
ENDBRANCH   1   4
BRANCH   1  26
ATOM     26  C   UNL     1       3.033   3.104  32.367  0.00  0.00    +0.163 C 
BRANCH  26  27
ATOM     27  O   UNL     1       3.391   3.201  30.979  0.00  0.00    -0.388 OA
ATOM     28  H   UNL     1       4.347   3.231  30.896  0.00  0.00    +0.210 HD
ENDBRANCH  26  27
BRANCH  26  29
ATOM     29  C   UNL     1       3.911   4.028  33.228  0.00  0.00    +0.175 C 
BRANCH  29  30
ATOM     30  C   UNL     1       5.297   3.424  33.497  0.00  0.00    +0.176 C 
ATOM     31  O   UNL     1       5.108   2.052  33.940  0.00  0.00    -0.332 OA
ATOM     32  C   UNL     1       6.335   1.277  34.145  0.00  0.00    +0.277 C 
ATOM     33  C   UNL     1       7.285   2.015  35.120  0.00  0.00    +0.110 C 
ATOM     34  C   UNL     1       7.491   3.488  34.708  0.00  0.00    +0.143 C 
ATOM     35  C   UNL     1       6.150   4.198  34.519  0.00  0.00    +0.133 C 
BRANCH  35  36
ATOM     36  N   UNL     1       6.359   5.575  34.042  0.00  0.00    -0.308 N 
ATOM     37  H   UNL     1       6.709   5.701  33.103  0.00  0.00    +0.149 HD
ATOM     38  C   UNL     1       6.115   6.668  34.770  0.00  0.00    +0.210 C 
ATOM     39  C   UNL     1       5.607   6.442  36.206  0.00  0.00    +0.109 C 
ATOM     40  O   UNL     1       6.285   7.809  34.339  0.00  0.00    -0.276 OA
ENDBRANCH  35  36
BRANCH  32  41
ATOM     41  C   UNL     1       7.060   1.035  32.805  0.00  0.00    +0.414 C 
ATOM     42  O   UNL     1       6.419   0.724  31.801  0.00  0.00    -0.240 OA
ATOM     43  O   UNL     1       8.283   1.150  32.727  0.00  0.00    -0.240 OA
ENDBRANCH  32  41
BRANCH  34  44
ATOM     44  O   UNL     1       8.246   4.168  35.712  0.00  0.00    -0.390 OA
ATOM     45  H   UNL     1       9.172   3.925  35.636  0.00  0.00    +0.210 HD
ENDBRANCH  34  44
BRANCH  32  46
ATOM     46  O   UNL     1       5.969   0.005  34.739  0.00  0.00    -0.343 OA
ATOM     47  C   UNL     1       4.578  -0.370  34.573  0.00  0.00    +0.198 C 
ENDBRANCH  32  46
ENDBRANCH  29  30
BRANCH  29  48
ATOM     48  O   UNL     1       3.248   4.325  34.473  0.00  0.00    -0.387 OA
ATOM     49  H   UNL     1       3.682   3.852  35.187  0.00  0.00    +0.210 HD
ENDBRANCH  29  48
ENDBRANCH  26  29
ENDBRANCH   1  26
TORSDOF 14
