REMARK VINA RESULT:    -6.235      9.044     13.370
REMARK INTER + INTRA:         -13.323
REMARK INTER:                 -11.745
REMARK INTRA:                  -1.578
REMARK UNBOUND:                -1.802
REMARK  Name = lig_assembled_36.pdb
REMARK  18 active torsions:
REMARK  status: ('A' for Active; 'I' for Inactive)
REMARK    1  A    between atoms: _2  and  _10
REMARK    2  A    between atoms: _5  and  _21
REMARK    3  A    between atoms: _7  and  _8
REMARK    4  A    between atoms: _7  and  _21
REMARK    5  A    between atoms: _10  and  _11
REMARK    6  A    between atoms: _14  and  _15
REMARK    7  A    between atoms: _17  and  _37
REMARK    8  A    between atoms: _19  and  _25
REMARK    9  A    between atoms: _20  and  _24
REMARK   10  A    between atoms: _24  and  _25
REMARK   11  A    between atoms: _27  and  _28
REMARK   12  A    between atoms: _29  and  _30
REMARK   13  A    between atoms: _31  and  _33
REMARK   14  A    between atoms: _33  and  _34
REMARK   15  A    between atoms: _33  and  _35
REMARK   16  A    between atoms: _35  and  _36
REMARK   17  A    between atoms: _35  and  _37
REMARK   18  A    between atoms: _38  and  _40
REMARK                            x       y       z     vdW  Elec       q    Type
REMARK                         _______ _______ _______ _____ _____    ______ ____
ROOT
ATOM      1  C   UNL     1       7.426   2.478  34.431  0.00  0.00    +0.163 C 
ENDROOT
BRANCH   1   2
ATOM      2  O   UNL     1       7.244   2.588  35.852  0.00  0.00    -0.388 OA
ATOM      3  H   UNL     1       7.304   3.510  36.113  0.00  0.00    +0.210 HD
ENDBRANCH   1   2
BRANCH   1   4
ATOM      4  C   UNL     1       7.813   3.835  33.819  0.00  0.00    +0.175 C 
BRANCH   4   5
ATOM      5  C   UNL     1       7.180   5.012  34.577  0.00  0.00    +0.176 C 
ATOM      6  O   UNL     1       7.891   5.168  35.835  0.00  0.00    -0.332 OA
ATOM      7  C   UNL     1       7.490   6.318  36.651  0.00  0.00    +0.277 C 
ATOM      8  C   UNL     1       5.964   6.291  36.912  0.00  0.00    +0.110 C 
ATOM      9  C   UNL     1       5.167   6.095  35.605  0.00  0.00    +0.143 C 
ATOM     10  C   UNL     1       5.668   4.873  34.835  0.00  0.00    +0.133 C 
BRANCH  10  11
ATOM     11  N   UNL     1       4.960   4.747  33.551  0.00  0.00    -0.308 N 
ATOM     12  H   UNL     1       5.150   5.437  32.838  0.00  0.00    +0.149 HD
ATOM     13  C   UNL     1       4.082   3.781  33.267  0.00  0.00    +0.210 C 
ATOM     14  C   UNL     1       3.795   2.760  34.384  0.00  0.00    +0.109 C 
ATOM     15  O   UNL     1       3.515   3.692  32.178  0.00  0.00    -0.276 OA
ENDBRANCH  10  11
BRANCH   7  16
ATOM     16  C   UNL     1       7.871   7.642  35.956  0.00  0.00    +0.414 C 
ATOM     17  O   UNL     1       7.868   7.720  34.728  0.00  0.00    -0.240 OA
ATOM     18  O   UNL     1       8.181   8.630  36.622  0.00  0.00    -0.240 OA
ENDBRANCH   7  16
BRANCH   7  19
ATOM     19  O   UNL     1       8.173   6.223  37.928  0.00  0.00    -0.343 OA
ATOM     20  C   UNL     1       9.247   5.249  37.976  0.00  0.00    +0.198 C 
ENDBRANCH   7  19
BRANCH   9  21
ATOM     21  O   UNL     1       3.781   5.925  35.907  0.00  0.00    -0.390 OA
ATOM     22  H   UNL     1       3.690   5.422  36.720  0.00  0.00    +0.210 HD
ENDBRANCH   9  21
ENDBRANCH   4   5
BRANCH   4  23
ATOM     23  O   UNL     1       7.436   3.879  32.429  0.00  0.00    -0.387 OA
ATOM     24  H   UNL     1       7.232   2.992  32.124  0.00  0.00    +0.210 HD
ENDBRANCH   4  23
ENDBRANCH   1   4
BRANCH   1  25
ATOM     25  C   UNL     1       8.512   1.452  34.122  0.00  0.00    +0.141 C 
BRANCH  25  28
ATOM     26  C   UNL     1      10.641   2.368  34.978  0.00  0.00    +0.401 C 
ATOM     27  O   UNL     1      10.369   2.148  36.161  0.00  0.00    -0.226 OA
ATOM     28  N   UNL     1       9.829   2.080  33.960  0.00  0.00    -0.279 N 
ATOM     29  H   UNL     1      10.137   2.307  33.025  0.00  0.00    +0.152 HD
BRANCH  26  30
ATOM     30  O   UNL     1      11.896   2.971  34.655  0.00  0.00    -0.444 OA
BRANCH  30  31
ATOM     31  C   UNL     1      12.937   2.338  35.404  0.00  0.00    +0.292 C 
BRANCH  31  33
ATOM     32  N   UNL     1      15.330   2.967  35.541  0.00  0.00    -0.131 NA
ATOM     33  C   UNL     1      14.011   3.303  35.703  0.00  0.00    +0.120 A 
ATOM     34  C   UNL     1      13.929   4.608  36.135  0.00  0.00    +0.137 A 
ATOM     35  N   UNL     1      15.224   5.036  36.123  0.00  0.00    -0.247 N 
ATOM     36  N   UNL     1      16.067   4.033  35.820  0.00  0.00    -0.065 NA
BRANCH  35  37
ATOM     37  C   UNL     1      15.723   6.374  36.370  0.00  0.00    +0.180 C 
BRANCH  37  38
ATOM     38  C   UNL     1      16.220   7.018  35.095  0.00  0.00    -0.026 A 
ATOM     39  C   UNL     1      17.592   7.200  34.867  0.00  0.00    +0.007 A 
ATOM     40  C   UNL     1      18.043   7.791  33.683  0.00  0.00    +0.019 A 
ATOM     41  C   UNL     1      17.128   8.213  32.713  0.00  0.00    +0.052 A 
ATOM     42  C   UNL     1      15.759   8.058  32.943  0.00  0.00    +0.019 A 
ATOM     43  C   UNL     1      15.308   7.468  34.128  0.00  0.00    +0.007 A 
BRANCH  41  44
ATOM     44  C   UNL     1      17.594   8.801  31.489  0.00  0.00    +0.099 C 
ATOM     45  N   UNL     1      17.980   9.269  30.500  0.00  0.00    -0.191 NA
ENDBRANCH  41  44
ENDBRANCH  37  38
ENDBRANCH  35  37
ENDBRANCH  31  33
ENDBRANCH  30  31
ENDBRANCH  26  30
ENDBRANCH  25  28
ENDBRANCH   1  25
TORSDOF 16
