REMARK VINA RESULT:    -5.929      7.735     11.820
REMARK INTER + INTRA:         -12.596
REMARK INTER:                 -10.204
REMARK INTRA:                  -2.392
REMARK UNBOUND:                -2.334
REMARK  Name = lig_assembled_15.pdb
REMARK  16 active torsions:
REMARK  status: ('A' for Active; 'I' for Inactive)
REMARK    1  A    between atoms: _2  and  _9
REMARK    2  A    between atoms: _4  and  _18
REMARK    3  A    between atoms: _6  and  _7
REMARK    4  A    between atoms: _6  and  _18
REMARK    5  A    between atoms: _14  and  _34
REMARK    6  A    between atoms: _16  and  _22
REMARK    7  A    between atoms: _17  and  _21
REMARK    8  A    between atoms: _21  and  _22
REMARK    9  A    between atoms: _24  and  _25
REMARK   10  A    between atoms: _26  and  _27
REMARK   11  A    between atoms: _28  and  _30
REMARK   12  A    between atoms: _30  and  _31
REMARK   13  A    between atoms: _30  and  _32
REMARK   14  A    between atoms: _32  and  _33
REMARK   15  A    between atoms: _32  and  _34
REMARK   16  A    between atoms: _35  and  _37
REMARK                            x       y       z     vdW  Elec       q    Type
REMARK                         _______ _______ _______ _____ _____    ______ ____
ROOT
ATOM      1  C   UNL     1       8.244   4.064  38.641  0.00  0.00    +0.163 C 
ENDROOT
BRANCH   1   2
ATOM      2  O   UNL     1       8.260   5.478  38.385  0.00  0.00    -0.388 OA
ATOM      3  H   UNL     1       8.524   5.946  39.181  0.00  0.00    +0.210 HD
ENDBRANCH   1   2
BRANCH   1   4
ATOM      4  C   UNL     1       9.601   3.615  39.174  0.00  0.00    +0.141 C 
BRANCH   4   7
ATOM      5  C   UNL     1      11.329   4.117  37.480  0.00  0.00    +0.401 C 
ATOM      6  O   UNL     1      11.382   5.318  37.753  0.00  0.00    -0.226 OA
ATOM      7  N   UNL     1      10.520   3.249  38.090  0.00  0.00    -0.279 N 
ATOM      8  H   UNL     1      10.542   2.284  37.789  0.00  0.00    +0.152 HD
BRANCH   5   9
ATOM      9  O   UNL     1      12.173   3.601  36.448  0.00  0.00    -0.444 OA
BRANCH   9  10
ATOM     10  C   UNL     1      13.543   3.780  36.818  0.00  0.00    +0.292 C 
BRANCH  10  12
ATOM     11  N   UNL     1      14.359   4.398  34.565  0.00  0.00    -0.131 NA
ATOM     12  C   UNL     1      14.208   4.709  35.885  0.00  0.00    +0.121 A 
ATOM     13  C   UNL     1      14.749   5.954  36.117  0.00  0.00    +0.143 A 
ATOM     14  N   UNL     1      15.197   6.381  34.888  0.00  0.00    -0.220 N 
ATOM     15  N   UNL     1      14.966   5.414  33.968  0.00  0.00    -0.060 NA
BRANCH  14  16
ATOM     16  C   UNL     1      15.787   7.626  34.543  0.00  0.00    +0.067 A 
ATOM     17  C   UNL     1      16.438   8.407  35.508  0.00  0.00    +0.029 A 
ATOM     18  C   UNL     1      16.977   9.649  35.156  0.00  0.00    +0.017 A 
ATOM     19  C   UNL     1      16.870  10.108  33.845  0.00  0.00    +0.018 A 
ATOM     20 BR   UNL     1      17.578  11.800  33.385  0.00  0.00    -0.050 Br
ATOM     21  C   UNL     1      16.239   9.333  32.875  0.00  0.00    +0.017 A 
ATOM     22  C   UNL     1      15.700   8.091  33.220  0.00  0.00    +0.029 A 
ENDBRANCH  14  16
ENDBRANCH  10  12
ENDBRANCH   9  10
ENDBRANCH   5   9
ENDBRANCH   4   7
ENDBRANCH   1   4
BRANCH   1  23
ATOM     23  C   UNL     1       7.908   3.277  37.363  0.00  0.00    +0.175 C 
BRANCH  23  24
ATOM     24  C   UNL     1       7.519   4.202  36.200  0.00  0.00    +0.176 C 
ATOM     25  O   UNL     1       6.127   4.584  36.379  0.00  0.00    -0.332 OA
ATOM     26  C   UNL     1       5.608   5.557  35.413  0.00  0.00    +0.277 C 
ATOM     27  C   UNL     1       5.831   5.054  33.966  0.00  0.00    +0.110 C 
ATOM     28  C   UNL     1       7.290   4.607  33.737  0.00  0.00    +0.143 C 
ATOM     29  C   UNL     1       7.727   3.598  34.799  0.00  0.00    +0.133 C 
BRANCH  29  30
ATOM     30  N   UNL     1       9.145   3.244  34.622  0.00  0.00    -0.308 N 
ATOM     31  H   UNL     1       9.822   3.994  34.634  0.00  0.00    +0.149 HD
ATOM     32  C   UNL     1       9.594   1.999  34.447  0.00  0.00    +0.210 C 
ATOM     33  C   UNL     1       8.533   0.882  34.408  0.00  0.00    +0.109 C 
ATOM     34  O   UNL     1      10.789   1.731  34.316  0.00  0.00    -0.276 OA
ENDBRANCH  29  30
BRANCH  26  35
ATOM     35  C   UNL     1       6.294   6.927  35.595  0.00  0.00    +0.414 C 
ATOM     36  O   UNL     1       6.312   7.739  34.670  0.00  0.00    -0.240 OA
ATOM     37  O   UNL     1       6.829   7.220  36.665  0.00  0.00    -0.240 OA
ENDBRANCH  26  35
BRANCH  28  38
ATOM     38  O   UNL     1       7.414   4.012  32.444  0.00  0.00    -0.390 OA
ATOM     39  H   UNL     1       7.903   4.602  31.866  0.00  0.00    +0.210 HD
ENDBRANCH  28  38
BRANCH  26  40
ATOM     40  O   UNL     1       4.181   5.692  35.636  0.00  0.00    -0.343 OA
ATOM     41  C   UNL     1       3.589   4.659  36.463  0.00  0.00    +0.198 C 
ENDBRANCH  26  40
ENDBRANCH  23  24
BRANCH  23  42
ATOM     42  O   UNL     1       6.848   2.335  37.625  0.00  0.00    -0.387 OA
ATOM     43  H   UNL     1       6.000   2.753  37.458  0.00  0.00    +0.210 HD
ENDBRANCH  23  42
ENDBRANCH   1  23
TORSDOF 14
