REMARK VINA RESULT:    -6.544     24.440     27.000
REMARK INTER + INTRA:         -16.686
REMARK INTER:                 -13.739
REMARK INTRA:                  -2.947
REMARK UNBOUND:                -3.256
REMARK  Name = lig_assembled_47.pdb
REMARK  22 active torsions:
REMARK  status: ('A' for Active; 'I' for Inactive)
REMARK    1  A    between atoms: _2  and  _9
REMARK    2  A    between atoms: _4  and  _30
REMARK    3  A    between atoms: _6  and  _7
REMARK    4  A    between atoms: _6  and  _30
REMARK    5  A    between atoms: _9  and  _10
REMARK    6  A    between atoms: _10  and  _11
REMARK    7  A    between atoms: _10  and  _12
REMARK    8  A    between atoms: _11  and  _24
REMARK    9  A    between atoms: _12  and  _13
REMARK   10  A    between atoms: _12  and  _19
REMARK   11  A    between atoms: _26  and  _46
REMARK   12  A    between atoms: _28  and  _34
REMARK   13  A    between atoms: _29  and  _33
REMARK   14  A    between atoms: _33  and  _34
REMARK   15  A    between atoms: _36  and  _37
REMARK   16  A    between atoms: _38  and  _39
REMARK   17  A    between atoms: _40  and  _42
REMARK   18  A    between atoms: _42  and  _43
REMARK   19  A    between atoms: _42  and  _44
REMARK   20  A    between atoms: _44  and  _45
REMARK   21  A    between atoms: _44  and  _46
REMARK   22  A    between atoms: _47  and  _49
REMARK                            x       y       z     vdW  Elec       q    Type
REMARK                         _______ _______ _______ _____ _____    ______ ____
ROOT
ATOM      1  C   UNL     1      19.497   4.520  25.441  0.00  0.00    +0.401 C 
ATOM      2  O   UNL     1      20.544   4.285  26.049  0.00  0.00    -0.226 OA
ATOM      3  N   UNL     1      18.443   3.703  25.429  0.00  0.00    -0.279 N 
ATOM      4  H   UNL     1      17.625   3.988  24.908  0.00  0.00    +0.152 HD
ENDROOT
BRANCH   3   5
ATOM      5  C   UNL     1      18.403   2.414  26.129  0.00  0.00    +0.141 C 
BRANCH   5   6
ATOM      6  C   UNL     1      16.990   1.846  26.196  0.00  0.00    +0.163 C 
BRANCH   6   7
ATOM      7  O   UNL     1      16.107   2.795  26.817  0.00  0.00    -0.388 OA
ATOM      8  H   UNL     1      15.237   2.402  26.923  0.00  0.00    +0.210 HD
ENDBRANCH   6   7
BRANCH   6   9
ATOM      9  C   UNL     1      16.509   1.495  24.777  0.00  0.00    +0.175 C 
BRANCH   9  10
ATOM     10  C   UNL     1      17.613   0.830  23.941  0.00  0.00    +0.176 C 
ATOM     11  O   UNL     1      17.654   1.491  22.647  0.00  0.00    -0.332 OA
ATOM     12  C   UNL     1      18.725   1.056  21.746  0.00  0.00    +0.277 C 
ATOM     13  C   UNL     1      18.676  -0.479  21.548  0.00  0.00    +0.110 C 
ATOM     14  C   UNL     1      18.599  -1.225  22.897  0.00  0.00    +0.143 C 
ATOM     15  C   UNL     1      17.452  -0.691  23.755  0.00  0.00    +0.133 C 
BRANCH  15  16
ATOM     16  N   UNL     1      17.444  -1.348  25.071  0.00  0.00    -0.308 N 
ATOM     17  H   UNL     1      18.179  -1.111  25.722  0.00  0.00    +0.149 HD
ATOM     18  C   UNL     1      16.528  -2.239  25.462  0.00  0.00    +0.210 C 
ATOM     19  C   UNL     1      15.436  -2.599  24.438  0.00  0.00    +0.109 C 
ATOM     20  O   UNL     1      16.538  -2.763  26.576  0.00  0.00    -0.276 OA
ENDBRANCH  15  16
BRANCH  12  21
ATOM     21  C   UNL     1      20.106   1.459  22.303  0.00  0.00    +0.414 C 
ATOM     22  O   UNL     1      20.252   2.538  22.878  0.00  0.00    -0.240 OA
ATOM     23  O   UNL     1      21.073   0.708  22.179  0.00  0.00    -0.240 OA
ENDBRANCH  12  21
BRANCH  12  24
ATOM     24  O   UNL     1      18.514   1.690  20.458  0.00  0.00    -0.343 OA
ATOM     25  C   UNL     1      17.127   1.806  20.053  0.00  0.00    +0.198 C 
ENDBRANCH  12  24
BRANCH  14  26
ATOM     26  O   UNL     1      18.403  -2.621  22.665  0.00  0.00    -0.390 OA
ATOM     27  H   UNL     1      17.765  -2.742  21.959  0.00  0.00    +0.210 HD
ENDBRANCH  14  26
ENDBRANCH   9  10
BRANCH   9  28
ATOM     28  O   UNL     1      16.026   2.678  24.109  0.00  0.00    -0.387 OA
ATOM     29  H   UNL     1      16.580   2.865  23.348  0.00  0.00    +0.210 HD
ENDBRANCH   9  28
ENDBRANCH   6   9
ENDBRANCH   5   6
ENDBRANCH   3   5
BRANCH   1  30
ATOM     30  O   UNL     1      19.383   5.738  24.701  0.00  0.00    -0.444 OA
BRANCH  30  31
ATOM     31  C   UNL     1      18.460   6.611  25.358  0.00  0.00    +0.292 C 
BRANCH  31  33
ATOM     32  N   UNL     1      20.111   8.408  25.815  0.00  0.00    -0.131 NA
ATOM     33  C   UNL     1      19.161   7.533  26.274  0.00  0.00    +0.120 A 
ATOM     34  C   UNL     1      19.047   7.675  27.639  0.00  0.00    +0.137 A 
ATOM     35  N   UNL     1      19.985   8.613  27.955  0.00  0.00    -0.251 N 
ATOM     36  N   UNL     1      20.608   9.067  26.854  0.00  0.00    -0.065 NA
BRANCH  35  37
ATOM     37  C   UNL     1      20.445   9.013  29.278  0.00  0.00    +0.160 C 
BRANCH  37  38
ATOM     38  C   UNL     1      19.479   9.942  30.017  0.00  0.00    +0.131 C 
BRANCH  38  39
ATOM     39  C   UNL     1      18.773  10.794  28.971  0.00  0.00    +0.311 C 
ATOM     40  O   UNL     1      17.565  10.753  28.787  0.00  0.00    -0.251 OA
BRANCH  39  41
ATOM     41  O   UNL     1      19.527  11.697  28.310  0.00  0.00    -0.480 OA
ATOM     42  H   UNL     1      19.510  12.623  28.602  0.00  0.00    +0.295 HD
ENDBRANCH  39  41
ENDBRANCH  38  39
BRANCH  38  43
ATOM     43  C   UNL     1      18.466   9.216  30.958  0.00  0.00    +0.064 C 
BRANCH  43  44
ATOM     44  C   UNL     1      18.942   7.885  31.545  0.00  0.00    -0.039 A 
ATOM     45  C   UNL     1      19.937   7.877  32.542  0.00  0.00    +0.004 A 
ATOM     46  C   UNL     1      20.394   6.678  33.099  0.00  0.00    +0.000 A 
ATOM     47  C   UNL     1      19.878   5.463  32.659  0.00  0.00    +0.000 A 
ATOM     48  C   UNL     1      18.909   5.449  31.661  0.00  0.00    +0.000 A 
ATOM     49  C   UNL     1      18.437   6.649  31.116  0.00  0.00    +0.004 A 
ENDBRANCH  43  44
BRANCH  43  50
ATOM     50  C   UNL     1      17.942  10.187  32.024  0.00  0.00    -0.039 A 
ATOM     51  C   UNL     1      18.678  11.334  32.363  0.00  0.00    +0.004 A 
ATOM     52  C   UNL     1      18.294  12.128  33.448  0.00  0.00    +0.000 A 
ATOM     53  C   UNL     1      17.162  11.803  34.192  0.00  0.00    +0.000 A 
ATOM     54  C   UNL     1      16.403  10.693  33.846  0.00  0.00    +0.000 A 
ATOM     55  C   UNL     1      16.790   9.892  32.772  0.00  0.00    +0.004 A 
ENDBRANCH  43  50
ENDBRANCH  38  43
ENDBRANCH  37  38
ENDBRANCH  35  37
ENDBRANCH  31  33
ENDBRANCH  30  31
ENDBRANCH   1  30
TORSDOF 20
