REMARK VINA RESULT:    -4.911      1.697      2.307
REMARK INTER + INTRA:         -12.675
REMARK INTER:                 -10.633
REMARK INTRA:                  -2.042
REMARK UNBOUND:                -3.888
REMARK  Name = lig_assembled_46.pdb
REMARK  17 active torsions:
REMARK  status: ('A' for Active; 'I' for Inactive)
REMARK    1  A    between atoms: _2  and  _9
REMARK    2  A    between atoms: _4  and  _19
REMARK    3  A    between atoms: _6  and  _7
REMARK    4  A    between atoms: _6  and  _19
REMARK    5  A    between atoms: _9  and  _10
REMARK    6  A    between atoms: _15  and  _35
REMARK    7  A    between atoms: _17  and  _23
REMARK    8  A    between atoms: _18  and  _22
REMARK    9  A    between atoms: _22  and  _23
REMARK   10  A    between atoms: _25  and  _26
REMARK   11  A    between atoms: _27  and  _28
REMARK   12  A    between atoms: _29  and  _31
REMARK   13  A    between atoms: _31  and  _32
REMARK   14  A    between atoms: _31  and  _33
REMARK   15  A    between atoms: _33  and  _34
REMARK   16  A    between atoms: _33  and  _35
REMARK   17  A    between atoms: _36  and  _38
REMARK                            x       y       z     vdW  Elec       q    Type
REMARK                         _______ _______ _______ _____ _____    ______ ____
ROOT
ATOM      1  C   UNL     1       3.817   3.610  32.452  0.00  0.00    +0.163 C 
ENDROOT
BRANCH   1   2
ATOM      2  O   UNL     1       2.872   3.904  33.494  0.00  0.00    -0.388 OA
ATOM      3  H   UNL     1       2.495   4.775  33.349  0.00  0.00    +0.210 HD
ENDBRANCH   1   2
BRANCH   1   4
ATOM      4  C   UNL     1       3.208   2.627  31.457  0.00  0.00    +0.141 C 
BRANCH   4   7
ATOM      5  C   UNL     1       1.187   3.396  30.261  0.00  0.00    +0.401 C 
ATOM      6  O   UNL     1       0.403   2.893  31.069  0.00  0.00    -0.226 OA
ATOM      7  N   UNL     1       2.515   3.315  30.361  0.00  0.00    -0.279 N 
ATOM      8  H   UNL     1       3.075   3.752  29.643  0.00  0.00    +0.152 HD
BRANCH   5   9
ATOM      9  O   UNL     1       0.665   4.110  29.138  0.00  0.00    -0.444 OA
BRANCH   9  10
ATOM     10  C   UNL     1       0.132   3.184  28.188  0.00  0.00    +0.292 C 
BRANCH  10  12
ATOM     11  N   UNL     1       2.024   4.012  26.824  0.00  0.00    -0.131 NA
ATOM     12  C   UNL     1       0.898   3.241  26.928  0.00  0.00    +0.120 A 
ATOM     13  C   UNL     1       0.695   2.577  25.738  0.00  0.00    +0.137 A 
ATOM     14  N   UNL     1       1.764   2.939  24.970  0.00  0.00    -0.247 N 
ATOM     15  N   UNL     1       2.554   3.814  25.623  0.00  0.00    -0.065 NA
BRANCH  14  16
ATOM     16  C   UNL     1       2.222   2.317  23.740  0.00  0.00    +0.180 C 
BRANCH  16  17
ATOM     17  C   UNL     1       2.306   0.813  23.815  0.00  0.00    -0.026 A 
ATOM     18  C   UNL     1       1.425   0.003  23.082  0.00  0.00    +0.005 A 
ATOM     19  C   UNL     1       1.572  -1.387  23.084  0.00  0.00    +0.000 A 
ATOM     20  C   UNL     1       2.599  -1.981  23.812  0.00  0.00    +0.000 A 
ATOM     21  C   UNL     1       3.476  -1.189  24.551  0.00  0.00    +0.000 A 
ATOM     22  C   UNL     1       3.332   0.200  24.552  0.00  0.00    +0.005 A 
ENDBRANCH  16  17
ENDBRANCH  14  16
ENDBRANCH  10  12
ENDBRANCH   9  10
ENDBRANCH   5   9
ENDBRANCH   4   7
ENDBRANCH   1   4
BRANCH   1  23
ATOM     23  C   UNL     1       5.111   3.017  33.034  0.00  0.00    +0.175 C 
BRANCH  23  24
ATOM     24  C   UNL     1       5.543   3.728  34.325  0.00  0.00    +0.176 C 
ATOM     25  O   UNL     1       5.517   5.161  34.077  0.00  0.00    -0.332 OA
ATOM     26  C   UNL     1       5.801   6.010  35.237  0.00  0.00    +0.277 C 
ATOM     27  C   UNL     1       7.154   5.615  35.879  0.00  0.00    +0.110 C 
ATOM     28  C   UNL     1       7.241   4.095  36.133  0.00  0.00    +0.143 C 
ATOM     29  C   UNL     1       6.924   3.308  34.861  0.00  0.00    +0.133 C 
BRANCH  29  30
ATOM     30  N   UNL     1       6.925   1.862  35.136  0.00  0.00    -0.308 N 
ATOM     31  H   UNL     1       6.195   1.494  35.729  0.00  0.00    +0.149 HD
ATOM     32  C   UNL     1       7.829   1.005  34.654  0.00  0.00    +0.210 C 
ATOM     33  C   UNL     1       8.945   1.601  33.775  0.00  0.00    +0.109 C 
ATOM     34  O   UNL     1       7.797  -0.204  34.889  0.00  0.00    -0.276 OA
ENDBRANCH  29  30
BRANCH  26  35
ATOM     35  C   UNL     1       4.678   5.894  36.288  0.00  0.00    +0.414 C 
ATOM     36  O   UNL     1       4.901   6.167  37.467  0.00  0.00    -0.240 OA
ATOM     37  O   UNL     1       3.549   5.528  35.958  0.00  0.00    -0.240 OA
ENDBRANCH  26  35
BRANCH  26  38
ATOM     38  O   UNL     1       5.898   7.383  34.775  0.00  0.00    -0.343 OA
ATOM     39  C   UNL     1       7.241   7.829  34.459  0.00  0.00    +0.198 C 
ENDBRANCH  26  38
BRANCH  28  40
ATOM     40  O   UNL     1       8.554   3.756  36.581  0.00  0.00    -0.390 OA
ATOM     41  H   UNL     1       8.916   4.484  37.092  0.00  0.00    +0.210 HD
ENDBRANCH  28  40
ENDBRANCH  23  24
BRANCH  23  42
ATOM     42  O   UNL     1       6.169   3.078  32.056  0.00  0.00    -0.387 OA
ATOM     43  H   UNL     1       6.183   3.949  31.652  0.00  0.00    +0.210 HD
ENDBRANCH  23  42
ENDBRANCH   1  23
TORSDOF 15
