REMARK VINA RESULT:    -5.535      8.302     12.140
REMARK INTER + INTRA:         -12.152
REMARK INTER:                  -9.904
REMARK INTRA:                  -2.248
REMARK UNBOUND:                -2.248
REMARK  Name = lig_assembled_61.pdb
REMARK  17 active torsions:
REMARK  status: ('A' for Active; 'I' for Inactive)
REMARK    1  A    between atoms: _2  and  _9
REMARK    2  A    between atoms: _4  and  _17
REMARK    3  A    between atoms: _6  and  _7
REMARK    4  A    between atoms: _6  and  _17
REMARK    5  A    between atoms: _9  and  _10
REMARK    6  A    between atoms: _13  and  _33
REMARK    7  A    between atoms: _15  and  _21
REMARK    8  A    between atoms: _16  and  _20
REMARK    9  A    between atoms: _20  and  _21
REMARK   10  A    between atoms: _23  and  _24
REMARK   11  A    between atoms: _25  and  _26
REMARK   12  A    between atoms: _27  and  _29
REMARK   13  A    between atoms: _29  and  _30
REMARK   14  A    between atoms: _29  and  _31
REMARK   15  A    between atoms: _31  and  _32
REMARK   16  A    between atoms: _31  and  _33
REMARK   17  A    between atoms: _34  and  _36
REMARK                            x       y       z     vdW  Elec       q    Type
REMARK                         _______ _______ _______ _____ _____    ______ ____
ROOT
ATOM      1  C   UNL     1       7.959   4.138  38.727  0.00  0.00    +0.163 C 
ENDROOT
BRANCH   1   2
ATOM      2  O   UNL     1       7.752   5.540  38.490  0.00  0.00    -0.388 OA
ATOM      3  H   UNL     1       6.830   5.760  38.648  0.00  0.00    +0.210 HD
ENDBRANCH   1   2
BRANCH   1   4
ATOM      4  C   UNL     1       9.294   3.920  39.430  0.00  0.00    +0.141 C 
BRANCH   4   7
ATOM      5  C   UNL     1      11.311   4.687  38.226  0.00  0.00    +0.401 C 
ATOM      6  O   UNL     1      11.325   5.797  38.764  0.00  0.00    -0.226 OA
ATOM      7  N   UNL     1      10.395   3.750  38.474  0.00  0.00    -0.279 N 
ATOM      8  H   UNL     1      10.462   2.874  37.975  0.00  0.00    +0.152 HD
BRANCH   5   9
ATOM      9  O   UNL     1      12.327   4.365  37.273  0.00  0.00    -0.444 OA
BRANCH   9  10
ATOM     10  C   UNL     1      13.515   5.102  37.574  0.00  0.00    +0.292 C 
BRANCH  10  12
ATOM     11  N   UNL     1      14.012   4.701  35.182  0.00  0.00    -0.131 NA
ATOM     12  C   UNL     1      14.269   5.390  36.339  0.00  0.00    +0.120 A 
ATOM     13  C   UNL     1      15.274   6.303  36.108  0.00  0.00    +0.137 A 
ATOM     14  N   UNL     1      15.625   6.080  34.809  0.00  0.00    -0.247 N 
ATOM     15  N   UNL     1      14.837   5.147  34.244  0.00  0.00    -0.065 NA
BRANCH  14  16
ATOM     16  C   UNL     1      16.663   6.735  34.032  0.00  0.00    +0.180 C 
BRANCH  16  17
ATOM     17  C   UNL     1      16.425   8.215  33.918  0.00  0.00    -0.019 A 
ATOM     18  C   UNL     1      15.263   8.810  33.319  0.00  0.00    +0.013 A 
ATOM     19  C   UNL     1      15.312  10.187  33.308  0.00  0.00    +0.045 A 
ATOM     20  S   UNL     1      16.742  10.781  34.027  0.00  0.00    -0.105 S 
ATOM     21  C   UNL     1      17.304   9.199  34.342  0.00  0.00    +0.050 A 
ENDBRANCH  16  17
ENDBRANCH  14  16
ENDBRANCH  10  12
ENDBRANCH   9  10
ENDBRANCH   5   9
ENDBRANCH   4   7
ENDBRANCH   1   4
BRANCH   1  22
ATOM     22  C   UNL     1       7.937   3.348  37.408  0.00  0.00    +0.175 C 
BRANCH  22  23
ATOM     23  C   UNL     1       7.534   4.226  36.214  0.00  0.00    +0.176 C 
ATOM     24  O   UNL     1       6.122   4.546  36.351  0.00  0.00    -0.332 OA
ATOM     25  C   UNL     1       5.582   5.471  35.350  0.00  0.00    +0.277 C 
ATOM     26  C   UNL     1       5.864   4.947  33.921  0.00  0.00    +0.110 C 
ATOM     27  C   UNL     1       7.347   4.563  33.737  0.00  0.00    +0.143 C 
ATOM     28  C   UNL     1       7.805   3.601  34.833  0.00  0.00    +0.133 C 
BRANCH  28  29
ATOM     29  N   UNL     1       9.241   3.311  34.698  0.00  0.00    -0.308 N 
ATOM     30  H   UNL     1       9.884   4.090  34.726  0.00  0.00    +0.149 HD
ATOM     31  C   UNL     1       9.751   2.087  34.540  0.00  0.00    +0.210 C 
ATOM     32  C   UNL     1       8.743   0.923  34.474  0.00  0.00    +0.109 C 
ATOM     33  O   UNL     1      10.960   1.873  34.444  0.00  0.00    -0.276 OA
ENDBRANCH  28  29
BRANCH  25  34
ATOM     34  C   UNL     1       6.198   6.876  35.515  0.00  0.00    +0.414 C 
ATOM     35  O   UNL     1       6.203   7.665  34.571  0.00  0.00    -0.240 OA
ATOM     36  O   UNL     1       6.690   7.220  36.590  0.00  0.00    -0.240 OA
ENDBRANCH  25  34
BRANCH  25  37
ATOM     37  O   UNL     1       4.145   5.544  35.535  0.00  0.00    -0.343 OA
ATOM     38  C   UNL     1       3.690   5.310  36.892  0.00  0.00    +0.198 C 
ENDBRANCH  25  37
BRANCH  27  39
ATOM     39  O   UNL     1       7.531   3.946  32.462  0.00  0.00    -0.390 OA
ATOM     40  H   UNL     1       6.850   4.251  31.857  0.00  0.00    +0.210 HD
ENDBRANCH  27  39
ENDBRANCH  22  23
BRANCH  22  41
ATOM     41  O   UNL     1       7.045   2.221  37.518  0.00  0.00    -0.387 OA
ATOM     42  H   UNL     1       6.765   2.122  38.432  0.00  0.00    +0.210 HD
ENDBRANCH  22  41
ENDBRANCH   1  22
TORSDOF 15
