REMARK VINA RESULT:    -6.216      1.515      3.864
REMARK INTER + INTRA:         -13.369
REMARK INTER:                 -12.018
REMARK INTRA:                  -1.351
REMARK UNBOUND:                -2.248
REMARK  Name = lig_assembled_61.pdb
REMARK  17 active torsions:
REMARK  status: ('A' for Active; 'I' for Inactive)
REMARK    1  A    between atoms: _2  and  _9
REMARK    2  A    between atoms: _4  and  _17
REMARK    3  A    between atoms: _6  and  _7
REMARK    4  A    between atoms: _6  and  _17
REMARK    5  A    between atoms: _9  and  _10
REMARK    6  A    between atoms: _13  and  _33
REMARK    7  A    between atoms: _15  and  _21
REMARK    8  A    between atoms: _16  and  _20
REMARK    9  A    between atoms: _20  and  _21
REMARK   10  A    between atoms: _23  and  _24
REMARK   11  A    between atoms: _25  and  _26
REMARK   12  A    between atoms: _27  and  _29
REMARK   13  A    between atoms: _29  and  _30
REMARK   14  A    between atoms: _29  and  _31
REMARK   15  A    between atoms: _31  and  _32
REMARK   16  A    between atoms: _31  and  _33
REMARK   17  A    between atoms: _34  and  _36
REMARK                            x       y       z     vdW  Elec       q    Type
REMARK                         _______ _______ _______ _____ _____    ______ ____
ROOT
ATOM      1  C   UNL     1       3.106   2.904  32.767  0.00  0.00    +0.163 C 
ENDROOT
BRANCH   1   2
ATOM      2  O   UNL     1       3.855   2.076  31.863  0.00  0.00    -0.388 OA
ATOM      3  H   UNL     1       4.794   2.222  31.998  0.00  0.00    +0.210 HD
ENDBRANCH   1   2
BRANCH   1   4
ATOM      4  C   UNL     1       1.981   3.611  32.018  0.00  0.00    +0.141 C 
BRANCH   4   7
ATOM      5  C   UNL     1       1.357   3.544  29.628  0.00  0.00    +0.401 C 
ATOM      6  O   UNL     1       0.182   3.242  29.847  0.00  0.00    -0.226 OA
ATOM      7  N   UNL     1       2.269   3.730  30.584  0.00  0.00    -0.279 N 
ATOM      8  H   UNL     1       3.211   3.965  30.304  0.00  0.00    +0.152 HD
BRANCH   5   9
ATOM      9  O   UNL     1       1.793   3.705  28.276  0.00  0.00    -0.444 OA
BRANCH   9  10
ATOM     10  C   UNL     1       0.752   3.294  27.386  0.00  0.00    +0.292 C 
BRANCH  10  12
ATOM     11  N   UNL     1      -0.148   4.972  25.805  0.00  0.00    -0.131 NA
ATOM     12  C   UNL     1       0.820   4.056  26.126  0.00  0.00    +0.120 A 
ATOM     13  C   UNL     1       1.759   4.019  25.118  0.00  0.00    +0.137 A 
ATOM     14  N   UNL     1       1.274   4.892  24.188  0.00  0.00    -0.247 N 
ATOM     15  N   UNL     1       0.151   5.493  24.622  0.00  0.00    -0.065 NA
BRANCH  14  16
ATOM     16  C   UNL     1       1.838   5.231  22.894  0.00  0.00    +0.180 C 
BRANCH  16  17
ATOM     17  C   UNL     1       1.777   4.073  21.937  0.00  0.00    -0.019 A 
ATOM     18  C   UNL     1       1.842   4.193  20.507  0.00  0.00    +0.013 A 
ATOM     19  C   UNL     1       1.725   2.979  19.863  0.00  0.00    +0.045 A 
ATOM     20  S   UNL     1       1.549   1.686  20.964  0.00  0.00    -0.105 S 
ATOM     21  C   UNL     1       1.617   2.745  22.302  0.00  0.00    +0.050 A 
ENDBRANCH  16  17
ENDBRANCH  14  16
ENDBRANCH  10  12
ENDBRANCH   9  10
ENDBRANCH   5   9
ENDBRANCH   4   7
ENDBRANCH   1   4
BRANCH   1  22
ATOM     22  C   UNL     1       4.014   3.950  33.437  0.00  0.00    +0.175 C 
BRANCH  22  23
ATOM     23  C   UNL     1       5.439   3.421  33.658  0.00  0.00    +0.176 C 
ATOM     24  O   UNL     1       5.338   2.054  34.145  0.00  0.00    -0.332 OA
ATOM     25  C   UNL     1       6.610   1.346  34.314  0.00  0.00    +0.277 C 
ATOM     26  C   UNL     1       7.565   2.157  35.224  0.00  0.00    +0.110 C 
ATOM     27  C   UNL     1       7.680   3.626  34.763  0.00  0.00    +0.143 C 
ATOM     28  C   UNL     1       6.298   4.264  34.618  0.00  0.00    +0.133 C 
BRANCH  28  29
ATOM     29  N   UNL     1       6.417   5.635  34.095  0.00  0.00    -0.308 N 
ATOM     30  H   UNL     1       6.709   5.750  33.135  0.00  0.00    +0.149 HD
ATOM     31  C   UNL     1       6.163   6.736  34.807  0.00  0.00    +0.210 C 
ATOM     32  C   UNL     1       5.745   6.528  36.275  0.00  0.00    +0.109 C 
ATOM     33  O   UNL     1       6.257   7.872  34.339  0.00  0.00    -0.276 OA
ENDBRANCH  28  29
BRANCH  25  34
ATOM     34  C   UNL     1       7.285   1.100  32.948  0.00  0.00    +0.414 C 
ATOM     35  O   UNL     1       8.509   1.160  32.841  0.00  0.00    -0.240 OA
ATOM     36  O   UNL     1       6.605   0.842  31.954  0.00  0.00    -0.240 OA
ENDBRANCH  25  34
BRANCH  25  37
ATOM     37  O   UNL     1       6.335   0.075  34.958  0.00  0.00    -0.343 OA
ATOM     38  C   UNL     1       5.152  -0.611  34.476  0.00  0.00    +0.198 C 
ENDBRANCH  25  37
BRANCH  27  39
ATOM     39  O   UNL     1       8.445   4.370  35.712  0.00  0.00    -0.390 OA
ATOM     40  H   UNL     1       8.441   3.913  36.557  0.00  0.00    +0.210 HD
ENDBRANCH  27  39
ENDBRANCH  22  23
BRANCH  22  41
ATOM     41  O   UNL     1       3.443   4.375  34.690  0.00  0.00    -0.387 OA
ATOM     42  H   UNL     1       3.219   3.605  35.218  0.00  0.00    +0.210 HD
ENDBRANCH  22  41
ENDBRANCH   1  22
TORSDOF 15
