REMARK VINA RESULT:    -5.489      3.885      7.703
REMARK INTER + INTRA:         -13.957
REMARK INTER:                 -11.190
REMARK INTRA:                  -2.767
REMARK UNBOUND:                -2.852
REMARK  Name = lig_assembled_11.pdb
REMARK  22 active torsions:
REMARK  status: ('A' for Active; 'I' for Inactive)
REMARK    1  A    between atoms: _2  and  _9
REMARK    2  A    between atoms: _4  and  _21
REMARK    3  A    between atoms: _5  and  _9
REMARK    4  A    between atoms: _5  and  _13
REMARK    5  A    between atoms: _6  and  _7
REMARK    6  A    between atoms: _6  and  _21
REMARK    7  A    between atoms: _9  and  _10
REMARK    8  A    between atoms: _10  and  _11
REMARK    9  A    between atoms: _11  and  _12
REMARK   10  A    between atoms: _12  and  _15
REMARK   11  A    between atoms: _17  and  _37
REMARK   12  A    between atoms: _19  and  _25
REMARK   13  A    between atoms: _20  and  _24
REMARK   14  A    between atoms: _24  and  _25
REMARK   15  A    between atoms: _27  and  _28
REMARK   16  A    between atoms: _29  and  _30
REMARK   17  A    between atoms: _31  and  _33
REMARK   18  A    between atoms: _33  and  _34
REMARK   19  A    between atoms: _33  and  _35
REMARK   20  A    between atoms: _35  and  _36
REMARK   21  A    between atoms: _35  and  _37
REMARK   22  A    between atoms: _38  and  _40
REMARK                            x       y       z     vdW  Elec       q    Type
REMARK                         _______ _______ _______ _____ _____    ______ ____
ROOT
ATOM      1  C   UNL     1      20.887   6.343  28.507  0.00  0.00    +0.163 C 
ENDROOT
BRANCH   1   2
ATOM      2  O   UNL     1      21.604   6.322  29.752  0.00  0.00    -0.388 OA
ATOM      3  H   UNL     1      21.695   5.415  30.054  0.00  0.00    +0.210 HD
ENDBRANCH   1   2
BRANCH   1   4
ATOM      4  C   UNL     1      20.124   7.668  28.335  0.00  0.00    +0.175 C 
BRANCH   4   5
ATOM      5  C   UNL     1      19.624   8.226  29.675  0.00  0.00    +0.176 C 
ATOM      6  O   UNL     1      18.961   7.148  30.390  0.00  0.00    -0.332 OA
ATOM      7  C   UNL     1      18.508   7.470  31.746  0.00  0.00    +0.277 C 
ATOM      8  C   UNL     1      17.600   8.723  31.730  0.00  0.00    +0.110 C 
ATOM      9  C   UNL     1      18.250   9.888  30.954  0.00  0.00    +0.143 C 
ATOM     10  C   UNL     1      18.685   9.441  29.558  0.00  0.00    +0.133 C 
BRANCH  10  11
ATOM     11  N   UNL     1      19.381  10.534  28.861  0.00  0.00    -0.308 N 
ATOM     12  H   UNL     1      20.229  10.894  29.275  0.00  0.00    +0.149 HD
ATOM     13  C   UNL     1      18.965  11.082  27.716  0.00  0.00    +0.210 C 
ATOM     14  C   UNL     1      17.655  10.530  27.123  0.00  0.00    +0.109 C 
ATOM     15  O   UNL     1      19.576  11.987  27.146  0.00  0.00    -0.276 OA
ENDBRANCH  10  11
BRANCH   7  16
ATOM     16  C   UNL     1      19.711   7.717  32.680  0.00  0.00    +0.414 C 
ATOM     17  O   UNL     1      19.566   8.353  33.723  0.00  0.00    -0.240 OA
ATOM     18  O   UNL     1      20.826   7.281  32.390  0.00  0.00    -0.240 OA
ENDBRANCH   7  16
BRANCH   7  19
ATOM     19  O   UNL     1      17.731   6.348  32.238  0.00  0.00    -0.343 OA
ATOM     20  C   UNL     1      18.389   5.059  32.145  0.00  0.00    +0.198 C 
ENDBRANCH   7  19
BRANCH   9  21
ATOM     21  O   UNL     1      17.320  10.966  30.834  0.00  0.00    -0.390 OA
ATOM     22  H   UNL     1      16.607  10.710  30.244  0.00  0.00    +0.210 HD
ENDBRANCH   9  21
ENDBRANCH   4   5
BRANCH   4  23
ATOM     23  O   UNL     1      19.017   7.489  27.428  0.00  0.00    -0.387 OA
ATOM     24  H   UNL     1      18.195   7.479  27.924  0.00  0.00    +0.210 HD
ENDBRANCH   4  23
ENDBRANCH   1   4
BRANCH   1  25
ATOM     25  C   UNL     1      21.855   6.158  27.344  0.00  0.00    +0.141 C 
BRANCH  25  28
ATOM     26  C   UNL     1      21.331   6.983  25.074  0.00  0.00    +0.401 C 
ATOM     27  O   UNL     1      22.088   7.954  25.151  0.00  0.00    -0.226 OA
ATOM     28  N   UNL     1      21.156   6.096  26.054  0.00  0.00    -0.279 N 
ATOM     29  H   UNL     1      20.506   5.338  25.901  0.00  0.00    +0.152 HD
BRANCH  26  30
ATOM     30  O   UNL     1      20.583   6.779  23.873  0.00  0.00    -0.444 OA
BRANCH  30  31
ATOM     31  C   UNL     1      19.186   6.759  24.178  0.00  0.00    +0.292 C 
BRANCH  31  33
ATOM     32  N   UNL     1      17.407   5.776  22.765  0.00  0.00    -0.131 NA
ATOM     33  C   UNL     1      18.532   5.610  23.525  0.00  0.00    +0.120 A 
ATOM     34  C   UNL     1      18.878   4.278  23.528  0.00  0.00    +0.138 A 
ATOM     35  N   UNL     1      17.900   3.674  22.790  0.00  0.00    -0.238 N 
ATOM     36  N   UNL     1      17.035   4.587  22.309  0.00  0.00    -0.065 NA
BRANCH  35  37
ATOM     37  C   UNL     1      17.761   2.287  22.360  0.00  0.00    +0.217 C 
BRANCH  37  38
ATOM     38  C   UNL     1      17.529   2.127  20.865  0.00  0.00    +0.330 C 
ATOM     39  O   UNL     1      18.345   1.717  20.055  0.00  0.00    -0.249 OA
BRANCH  38  40
ATOM     40  O   UNL     1      16.289   2.496  20.457  0.00  0.00    -0.479 OA
ATOM     41  H   UNL     1      15.838   3.193  20.973  0.00  0.00    +0.295 HD
ENDBRANCH  38  40
ENDBRANCH  37  38
BRANCH  37  42
ATOM     42  C   UNL     1      16.724   1.527  23.206  0.00  0.00    +0.049 C 
BRANCH  42  43
ATOM     43  C   UNL     1      17.294   0.805  24.433  0.00  0.00    +0.123 C 
BRANCH  43  44
ATOM     44  C   UNL     1      16.599   1.254  25.698  0.00  0.00    +0.305 C 
ATOM     45  O   UNL     1      16.259   0.514  26.606  0.00  0.00    -0.251 OA
BRANCH  44  46
ATOM     46  O   UNL     1      16.362   2.585  25.716  0.00  0.00    -0.481 OA
ATOM     47  H   UNL     1      17.117   3.126  26.015  0.00  0.00    +0.295 HD
ENDBRANCH  44  46
ENDBRANCH  43  44
ENDBRANCH  42  43
ENDBRANCH  37  42
ENDBRANCH  35  37
ENDBRANCH  31  33
ENDBRANCH  30  31
ENDBRANCH  26  30
ENDBRANCH  25  28
ENDBRANCH   1  25
TORSDOF 20
