REMARK VINA RESULT:    -5.741     15.184     17.989
REMARK INTER + INTRA:         -12.521
REMARK INTER:                 -10.328
REMARK INTRA:                  -2.193
REMARK UNBOUND:                -2.248
REMARK  Name = lig_assembled_61.pdb
REMARK  17 active torsions:
REMARK  status: ('A' for Active; 'I' for Inactive)
REMARK    1  A    between atoms: _2  and  _9
REMARK    2  A    between atoms: _4  and  _17
REMARK    3  A    between atoms: _6  and  _7
REMARK    4  A    between atoms: _6  and  _17
REMARK    5  A    between atoms: _9  and  _10
REMARK    6  A    between atoms: _13  and  _33
REMARK    7  A    between atoms: _15  and  _21
REMARK    8  A    between atoms: _16  and  _20
REMARK    9  A    between atoms: _20  and  _21
REMARK   10  A    between atoms: _23  and  _24
REMARK   11  A    between atoms: _25  and  _26
REMARK   12  A    between atoms: _27  and  _29
REMARK   13  A    between atoms: _29  and  _30
REMARK   14  A    between atoms: _29  and  _31
REMARK   15  A    between atoms: _31  and  _32
REMARK   16  A    between atoms: _31  and  _33
REMARK   17  A    between atoms: _34  and  _36
REMARK                            x       y       z     vdW  Elec       q    Type
REMARK                         _______ _______ _______ _____ _____    ______ ____
ROOT
ATOM      1  C   UNL     1      16.287   0.310  26.164  0.00  0.00    +0.163 C 
ENDROOT
BRANCH   1   2
ATOM      2  O   UNL     1      16.063   1.561  25.493  0.00  0.00    -0.388 OA
ATOM      3  H   UNL     1      16.899   1.903  25.165  0.00  0.00    +0.210 HD
ENDBRANCH   1   2
BRANCH   1   4
ATOM      4  C   UNL     1      17.523   0.407  27.052  0.00  0.00    +0.141 C 
BRANCH   4   7
ATOM      5  C   UNL     1      19.253   2.110  27.517  0.00  0.00    +0.401 C 
ATOM      6  O   UNL     1      20.126   1.283  27.789  0.00  0.00    -0.226 OA
ATOM      7  N   UNL     1      18.006   1.789  27.168  0.00  0.00    -0.279 N 
ATOM      8  H   UNL     1      17.358   2.539  26.972  0.00  0.00    +0.152 HD
BRANCH   5   9
ATOM      9  O   UNL     1      19.571   3.502  27.576  0.00  0.00    -0.444 OA
BRANCH   9  10
ATOM     10  C   UNL     1      18.461   4.267  27.100  0.00  0.00    +0.292 C 
BRANCH  10  12
ATOM     11  N   UNL     1      18.873   5.718  25.138  0.00  0.00    -0.131 NA
ATOM     12  C   UNL     1      18.926   5.529  26.494  0.00  0.00    +0.120 A 
ATOM     13  C   UNL     1      19.450   6.656  27.088  0.00  0.00    +0.137 A 
ATOM     14  N   UNL     1      19.750   7.470  26.035  0.00  0.00    -0.247 N 
ATOM     15  N   UNL     1      19.364   6.921  24.868  0.00  0.00    -0.065 NA
BRANCH  14  16
ATOM     16  C   UNL     1      20.363   8.786  26.062  0.00  0.00    +0.180 C 
BRANCH  16  17
ATOM     17  C   UNL     1      19.775   9.654  27.140  0.00  0.00    -0.019 A 
ATOM     18  C   UNL     1      18.451  10.210  27.107  0.00  0.00    +0.013 A 
ATOM     19  C   UNL     1      18.176  11.001  28.202  0.00  0.00    +0.045 A 
ATOM     20  S   UNL     1      19.494  11.075  29.284  0.00  0.00    -0.105 S 
ATOM     21  C   UNL     1      20.439  10.060  28.286  0.00  0.00    +0.050 A 
ENDBRANCH  16  17
ENDBRANCH  14  16
ENDBRANCH  10  12
ENDBRANCH   9  10
ENDBRANCH   5   9
ENDBRANCH   4   7
ENDBRANCH   1   4
BRANCH   1  22
ATOM     22  C   UNL     1      16.470  -0.832  25.150  0.00  0.00    +0.175 C 
BRANCH  22  23
ATOM     23  C   UNL     1      17.566  -0.520  24.120  0.00  0.00    +0.176 C 
ATOM     24  O   UNL     1      17.051   0.494  23.213  0.00  0.00    -0.332 OA
ATOM     25  C   UNL     1      18.002   0.997  22.218  0.00  0.00    +0.277 C 
ATOM     26  C   UNL     1      18.605  -0.175  21.405  0.00  0.00    +0.110 C 
ATOM     27  C   UNL     1      19.138  -1.292  22.326  0.00  0.00    +0.143 C 
ATOM     28  C   UNL     1      18.067  -1.738  23.323  0.00  0.00    +0.133 C 
BRANCH  28  29
ATOM     29  N   UNL     1      18.613  -2.741  24.251  0.00  0.00    -0.308 N 
ATOM     30  H   UNL     1      19.446  -2.500  24.770  0.00  0.00    +0.149 HD
ATOM     31  C   UNL     1      18.080  -3.949  24.452  0.00  0.00    +0.210 C 
ATOM     32  C   UNL     1      16.826  -4.296  23.628  0.00  0.00    +0.109 C 
ATOM     33  O   UNL     1      18.551  -4.764  25.247  0.00  0.00    -0.276 OA
ENDBRANCH  28  29
BRANCH  25  34
ATOM     34  C   UNL     1      19.137   1.790  22.899  0.00  0.00    +0.414 C 
ATOM     35  O   UNL     1      18.985   2.240  24.034  0.00  0.00    -0.240 OA
ATOM     36  O   UNL     1      20.205   1.979  22.314  0.00  0.00    -0.240 OA
ENDBRANCH  25  34
BRANCH  25  37
ATOM     37  O   UNL     1      17.281   1.864  21.305  0.00  0.00    -0.343 OA
ATOM     38  C   UNL     1      16.676   3.031  21.918  0.00  0.00    +0.198 C 
ENDBRANCH  25  37
BRANCH  27  39
ATOM     39  O   UNL     1      19.544  -2.413  21.539  0.00  0.00    -0.390 OA
ATOM     40  H   UNL     1      18.795  -2.736  21.032  0.00  0.00    +0.210 HD
ENDBRANCH  27  39
ENDBRANCH  22  23
BRANCH  22  41
ATOM     41  O   UNL     1      15.223  -1.108  24.481  0.00  0.00    -0.387 OA
ATOM     42  H   UNL     1      14.513  -1.136  25.127  0.00  0.00    +0.210 HD
ENDBRANCH  22  41
ENDBRANCH   1  22
TORSDOF 15
