REMARK VINA RESULT:    -5.597      8.308     13.215
REMARK INTER + INTRA:         -12.624
REMARK INTER:                 -10.881
REMARK INTRA:                  -1.744
REMARK UNBOUND:                -2.936
REMARK  Name = lig_assembled_93.pdb
REMARK  16 active torsions:
REMARK  status: ('A' for Active; 'I' for Inactive)
REMARK    1  A    between atoms: _2  and  _9
REMARK    2  A    between atoms: _4  and  _18
REMARK    3  A    between atoms: _6  and  _7
REMARK    4  A    between atoms: _6  and  _18
REMARK    5  A    between atoms: _14  and  _34
REMARK    6  A    between atoms: _16  and  _22
REMARK    7  A    between atoms: _17  and  _21
REMARK    8  A    between atoms: _21  and  _22
REMARK    9  A    between atoms: _24  and  _25
REMARK   10  A    between atoms: _26  and  _27
REMARK   11  A    between atoms: _28  and  _30
REMARK   12  A    between atoms: _30  and  _31
REMARK   13  A    between atoms: _30  and  _32
REMARK   14  A    between atoms: _32  and  _33
REMARK   15  A    between atoms: _32  and  _34
REMARK   16  A    between atoms: _35  and  _37
REMARK                            x       y       z     vdW  Elec       q    Type
REMARK                         _______ _______ _______ _____ _____    ______ ____
ROOT
ATOM      1  C   UNL     1       1.632   2.234  20.522  0.00  0.00    +0.163 C 
ENDROOT
BRANCH   1   2
ATOM      2  O   UNL     1       1.920   3.600  20.862  0.00  0.00    -0.388 OA
ATOM      3  H   UNL     1       1.324   3.889  21.558  0.00  0.00    +0.210 HD
ENDBRANCH   1   2
BRANCH   1   4
ATOM      4  C   UNL     1       0.584   2.182  19.414  0.00  0.00    +0.141 C 
BRANCH   4   7
ATOM      5  C   UNL     1       1.665   1.267  17.389  0.00  0.00    +0.401 C 
ATOM      6  O   UNL     1       2.243   2.319  17.108  0.00  0.00    -0.226 OA
ATOM      7  N   UNL     1       0.865   1.115  18.445  0.00  0.00    -0.279 N 
ATOM      8  H   UNL     1       0.428   0.216  18.587  0.00  0.00    +0.152 HD
BRANCH   5   9
ATOM      9  O   UNL     1       1.845   0.128  16.543  0.00  0.00    -0.444 OA
BRANCH   9  10
ATOM     10  C   UNL     1       2.234   0.560  15.236  0.00  0.00    +0.292 C 
BRANCH  10  12
ATOM     11  N   UNL     1       3.885  -1.274  15.220  0.00  0.00    -0.131 NA
ATOM     12  C   UNL     1       3.552   0.001  14.884  0.00  0.00    +0.121 A 
ATOM     13  C   UNL     1       4.607   0.572  14.211  0.00  0.00    +0.143 A 
ATOM     14  N   UNL     1       5.580  -0.410  14.139  0.00  0.00    -0.219 N 
ATOM     15  N   UNL     1       5.109  -1.508  14.771  0.00  0.00    -0.060 NA
BRANCH  14  16
ATOM     16  C   UNL     1       6.862  -0.340  13.508  0.00  0.00    +0.080 A 
ATOM     17  C   UNL     1       7.870   0.412  14.158  0.00  0.00    +0.029 A 
ATOM     18  C   UNL     1       9.149   0.555  13.611  0.00  0.00    +0.002 A 
ATOM     19  C   UNL     1       9.457  -0.049  12.404  0.00  0.00    +0.001 A 
ATOM     20  C   UNL     1       8.487  -0.800  11.746  0.00  0.00    +0.016 A 
ATOM     21  C   UNL     1       7.191  -0.957  12.283  0.00  0.00    +0.039 A 
ATOM     22  I   UNL     1       5.951  -2.155  11.057  0.00  0.00    -0.042 I 
ENDBRANCH  14  16
ENDBRANCH  10  12
ENDBRANCH   9  10
ENDBRANCH   5   9
ENDBRANCH   4   7
ENDBRANCH   1   4
BRANCH   1  23
ATOM     23  C   UNL     1       1.122   1.457  21.748  0.00  0.00    +0.175 C 
BRANCH  23  24
ATOM     24  C   UNL     1       0.536   2.389  22.819  0.00  0.00    +0.176 C 
ATOM     25  O   UNL     1       1.584   2.672  23.787  0.00  0.00    -0.332 OA
ATOM     26  C   UNL     1       1.236   3.636  24.834  0.00  0.00    +0.277 C 
ATOM     27  C   UNL     1      -0.052   3.194  25.572  0.00  0.00    +0.110 C 
ATOM     28  C   UNL     1      -1.185   2.851  24.582  0.00  0.00    +0.143 C 
ATOM     29  C   UNL     1      -0.713   1.842  23.535  0.00  0.00    +0.133 C 
BRANCH  29  30
ATOM     30  N   UNL     1      -1.775   1.590  22.547  0.00  0.00    -0.308 N 
ATOM     31  H   UNL     1      -2.089   2.368  21.984  0.00  0.00    +0.149 HD
ATOM     32  C   UNL     1      -2.349   0.401  22.347  0.00  0.00    +0.210 C 
ATOM     33  C   UNL     1      -1.866  -0.758  23.239  0.00  0.00    +0.109 C 
ATOM     34  O   UNL     1      -3.226   0.216  21.502  0.00  0.00    -0.276 OA
ENDBRANCH  29  30
BRANCH  26  35
ATOM     35  C   UNL     1       1.029   5.043  24.235  0.00  0.00    +0.414 C 
ATOM     36  O   UNL     1       1.762   5.447  23.333  0.00  0.00    -0.240 OA
ATOM     37  O   UNL     1       0.130   5.774  24.654  0.00  0.00    -0.240 OA
ENDBRANCH  26  35
BRANCH  28  38
ATOM     38  O   UNL     1      -2.297   2.306  25.294  0.00  0.00    -0.390 OA
ATOM     39  H   UNL     1      -2.280   2.616  26.202  0.00  0.00    +0.210 HD
ENDBRANCH  28  38
BRANCH  26  40
ATOM     40  O   UNL     1       2.324   3.669  25.794  0.00  0.00    -0.343 OA
ATOM     41  C   UNL     1       1.945   3.362  27.159  0.00  0.00    +0.198 C 
ENDBRANCH  26  40
ENDBRANCH  23  24
BRANCH  23  42
ATOM     42  O   UNL     1       2.185   0.661  22.309  0.00  0.00    -0.387 OA
ATOM     43  H   UNL     1       2.026   0.529  23.246  0.00  0.00    +0.210 HD
ENDBRANCH  23  42
ENDBRANCH   1  23
TORSDOF 14
