REMARK VINA RESULT:    -6.115      2.023      3.399
REMARK INTER + INTRA:         -13.520
REMARK INTER:                 -11.814
REMARK INTRA:                  -1.706
REMARK UNBOUND:                -2.936
REMARK  Name = lig_assembled_93.pdb
REMARK  16 active torsions:
REMARK  status: ('A' for Active; 'I' for Inactive)
REMARK    1  A    between atoms: _2  and  _9
REMARK    2  A    between atoms: _4  and  _18
REMARK    3  A    between atoms: _6  and  _7
REMARK    4  A    between atoms: _6  and  _18
REMARK    5  A    between atoms: _14  and  _34
REMARK    6  A    between atoms: _16  and  _22
REMARK    7  A    between atoms: _17  and  _21
REMARK    8  A    between atoms: _21  and  _22
REMARK    9  A    between atoms: _24  and  _25
REMARK   10  A    between atoms: _26  and  _27
REMARK   11  A    between atoms: _28  and  _30
REMARK   12  A    between atoms: _30  and  _31
REMARK   13  A    between atoms: _30  and  _32
REMARK   14  A    between atoms: _32  and  _33
REMARK   15  A    between atoms: _32  and  _34
REMARK   16  A    between atoms: _35  and  _37
REMARK                            x       y       z     vdW  Elec       q    Type
REMARK                         _______ _______ _______ _____ _____    ______ ____
ROOT
ATOM      1  C   UNL     1       3.550   3.438  33.649  0.00  0.00    +0.163 C 
ENDROOT
BRANCH   1   2
ATOM      2  O   UNL     1       3.931   4.626  32.937  0.00  0.00    -0.388 OA
ATOM      3  H   UNL     1       3.633   5.400  33.422  0.00  0.00    +0.210 HD
ENDBRANCH   1   2
BRANCH   1   4
ATOM      4  C   UNL     1       2.260   2.871  33.065  0.00  0.00    +0.141 C 
BRANCH   4   7
ATOM      5  C   UNL     1       1.036   3.147  30.936  0.00  0.00    +0.401 C 
ATOM      6  O   UNL     1       0.661   1.973  30.891  0.00  0.00    -0.226 OA
ATOM      7  N   UNL     1       1.791   3.651  31.913  0.00  0.00    -0.279 N 
ATOM      8  H   UNL     1       2.056   4.625  31.857  0.00  0.00    +0.152 HD
BRANCH   5   9
ATOM      9  O   UNL     1       0.653   4.039  29.887  0.00  0.00    -0.444 OA
BRANCH   9  10
ATOM     10  C   UNL     1       0.072   3.293  28.813  0.00  0.00    +0.292 C 
BRANCH  10  12
ATOM     11  N   UNL     1       2.172   3.728  27.592  0.00  0.00    -0.131 NA
ATOM     12  C   UNL     1       0.830   3.514  27.568  0.00  0.00    +0.121 A 
ATOM     13  C   UNL     1       0.400   3.539  26.262  0.00  0.00    +0.143 A 
ATOM     14  N   UNL     1       1.536   3.760  25.500  0.00  0.00    -0.219 N 
ATOM     15  N   UNL     1       2.585   3.881  26.343  0.00  0.00    -0.060 NA
BRANCH  14  16
ATOM     16  C   UNL     1       1.642   3.839  24.075  0.00  0.00    +0.080 A 
ATOM     17  C   UNL     1       1.630   5.128  23.489  0.00  0.00    +0.029 A 
ATOM     18  C   UNL     1       1.711   5.307  22.105  0.00  0.00    +0.002 A 
ATOM     19  C   UNL     1       1.808   4.208  21.269  0.00  0.00    +0.001 A 
ATOM     20  C   UNL     1       1.829   2.928  21.818  0.00  0.00    +0.016 A 
ATOM     21  C   UNL     1       1.750   2.728  23.214  0.00  0.00    +0.039 A 
ATOM     22  I   UNL     1       1.811   0.678  23.737  0.00  0.00    -0.042 I 
ENDBRANCH  14  16
ENDBRANCH  10  12
ENDBRANCH   9  10
ENDBRANCH   5   9
ENDBRANCH   4   7
ENDBRANCH   1   4
BRANCH   1  23
ATOM     23  C   UNL     1       3.351   3.732  35.145  0.00  0.00    +0.175 C 
BRANCH  23  24
ATOM     24  C   UNL     1       4.260   4.869  35.636  0.00  0.00    +0.176 C 
ATOM     25  O   UNL     1       5.584   4.657  35.075  0.00  0.00    -0.332 OA
ATOM     26  C   UNL     1       6.566   5.710  35.352  0.00  0.00    +0.277 C 
ATOM     27  C   UNL     1       6.677   5.959  36.876  0.00  0.00    +0.110 C 
ATOM     28  C   UNL     1       5.291   6.159  37.523  0.00  0.00    +0.143 C 
ATOM     29  C   UNL     1       4.348   5.008  37.167  0.00  0.00    +0.133 C 
BRANCH  29  30
ATOM     30  N   UNL     1       3.006   5.253  37.717  0.00  0.00    -0.308 N 
ATOM     31  H   UNL     1       2.466   6.011  37.323  0.00  0.00    +0.149 HD
ATOM     32  C   UNL     1       2.454   4.540  38.702  0.00  0.00    +0.210 C 
ATOM     33  C   UNL     1       3.313   3.408  39.299  0.00  0.00    +0.109 C 
ATOM     34  O   UNL     1       1.321   4.758  39.133  0.00  0.00    -0.276 OA
ENDBRANCH  29  30
BRANCH  26  35
ATOM     35  C   UNL     1       6.175   7.023  34.642  0.00  0.00    +0.414 C 
ATOM     36  O   UNL     1       5.168   7.070  33.936  0.00  0.00    -0.240 OA
ATOM     37  O   UNL     1       6.866   8.034  34.775  0.00  0.00    -0.240 OA
ENDBRANCH  26  35
BRANCH  28  38
ATOM     38  O   UNL     1       5.428   6.233  38.942  0.00  0.00    -0.390 OA
ATOM     39  H   UNL     1       5.171   5.395  39.334  0.00  0.00    +0.210 HD
ENDBRANCH  28  38
BRANCH  26  40
ATOM     40  O   UNL     1       7.857   5.258  34.867  0.00  0.00    -0.343 OA
ATOM     41  C   UNL     1       7.949   3.835  34.606  0.00  0.00    +0.198 C 
ENDBRANCH  26  40
ENDBRANCH  23  24
BRANCH  23  42
ATOM     42  O   UNL     1       3.584   2.540  35.921  0.00  0.00    -0.387 OA
ATOM     43  H   UNL     1       4.280   2.706  36.562  0.00  0.00    +0.210 HD
ENDBRANCH  23  42
ENDBRANCH   1  23
TORSDOF 14
