REMARK VINA RESULT:    -5.704     15.799     18.035
REMARK INTER + INTRA:         -14.074
REMARK INTER:                 -11.514
REMARK INTRA:                  -2.560
REMARK UNBOUND:                -3.868
REMARK  Name = lig_assembled_85.pdb
REMARK  19 active torsions:
REMARK  status: ('A' for Active; 'I' for Inactive)
REMARK    1  A    between atoms: _2  and  _10
REMARK    2  A    between atoms: _3  and  _6
REMARK    3  A    between atoms: _3  and  _17
REMARK    4  A    between atoms: _5  and  _23
REMARK    5  A    between atoms: _7  and  _8
REMARK    6  A    between atoms: _7  and  _23
REMARK    7  A    between atoms: _15  and  _16
REMARK    8  A    between atoms: _19  and  _39
REMARK    9  A    between atoms: _21  and  _27
REMARK   10  A    between atoms: _22  and  _26
REMARK   11  A    between atoms: _26  and  _27
REMARK   12  A    between atoms: _29  and  _30
REMARK   13  A    between atoms: _31  and  _32
REMARK   14  A    between atoms: _33  and  _35
REMARK   15  A    between atoms: _35  and  _36
REMARK   16  A    between atoms: _35  and  _37
REMARK   17  A    between atoms: _37  and  _38
REMARK   18  A    between atoms: _37  and  _39
REMARK   19  A    between atoms: _40  and  _42
REMARK                            x       y       z     vdW  Elec       q    Type
REMARK                         _______ _______ _______ _____ _____    ______ ____
ROOT
ATOM      1  C   UNL     1       1.426   2.908  31.431  0.00  0.00    +0.141 C 
ENDROOT
BRANCH   1   4
ATOM      2  C   UNL     1       2.041   2.878  29.038  0.00  0.00    +0.401 C 
ATOM      3  O   UNL     1       2.577   1.768  29.093  0.00  0.00    -0.226 OA
ATOM      4  N   UNL     1       1.483   3.489  30.083  0.00  0.00    -0.279 N 
ATOM      5  H   UNL     1       1.077   4.403  29.941  0.00  0.00    +0.152 HD
BRANCH   2   6
ATOM      6  O   UNL     1       2.008   3.572  27.788  0.00  0.00    -0.444 OA
BRANCH   6   7
ATOM      7  C   UNL     1       1.521   2.696  26.768  0.00  0.00    +0.292 C 
BRANCH   7   9
ATOM      8  N   UNL     1       1.417   4.808  25.494  0.00  0.00    -0.131 NA
ATOM      9  C   UNL     1       1.232   3.456  25.539  0.00  0.00    +0.121 A 
ATOM     10  C   UNL     1       0.821   3.011  24.304  0.00  0.00    +0.143 A 
ATOM     11  N   UNL     1       0.773   4.141  23.525  0.00  0.00    -0.219 N 
ATOM     12  N   UNL     1       1.162   5.212  24.258  0.00  0.00    -0.060 NA
BRANCH  11  13
ATOM     13  C   UNL     1       0.487   4.274  22.149  0.00  0.00    +0.080 A 
ATOM     14  C   UNL     1      -0.784   4.570  21.633  0.00  0.00    +0.062 A 
ATOM     15  C   UNL     1      -0.977   4.425  20.239  0.00  0.00    +0.016 A 
ATOM     16  C   UNL     1       0.057   4.028  19.386  0.00  0.00    +0.021 A 
ATOM     17  C   UNL     1       1.324   3.812  19.906  0.00  0.00    +0.043 A 
ATOM     18 CL   UNL     1       2.600   3.288  18.878  0.00  0.00    -0.083 Cl
ATOM     19  C   UNL     1       1.550   3.959  21.272  0.00  0.00    +0.048 A 
BRANCH  14  20
ATOM     20  C   UNL     1      -2.024   4.953  22.373  0.00  0.00    +0.248 C 
ATOM     21  O   UNL     1      -2.266   6.162  22.394  0.00  0.00    -0.270 OA
ATOM     22  N   UNL     1      -2.835   4.043  23.059  0.00  0.00    -0.304 N 
ATOM     23  C   UNL     1      -2.768   2.588  23.031  0.00  0.00    +0.132 C 
ATOM     24  C   UNL     1      -4.002   4.598  23.737  0.00  0.00    +0.132 C 
ENDBRANCH  14  20
ENDBRANCH  11  13
ENDBRANCH   7   9
ENDBRANCH   6   7
ENDBRANCH   2   6
ENDBRANCH   1   4
BRANCH   1  25
ATOM     25  C   UNL     1       2.330   3.650  32.409  0.00  0.00    +0.163 C 
BRANCH  25  26
ATOM     26  O   UNL     1       1.594   3.995  33.594  0.00  0.00    -0.388 OA
ATOM     27  H   UNL     1       1.786   4.904  33.838  0.00  0.00    +0.210 HD
ENDBRANCH  25  26
BRANCH  25  28
ATOM     28  C   UNL     1       3.546   2.773  32.752  0.00  0.00    +0.175 C 
BRANCH  28  29
ATOM     29  C   UNL     1       4.383   3.366  33.895  0.00  0.00    +0.176 C 
ATOM     30  O   UNL     1       4.537   4.790  33.644  0.00  0.00    -0.332 OA
ATOM     31  C   UNL     1       5.225   5.548  34.693  0.00  0.00    +0.277 C 
ATOM     32  C   UNL     1       6.606   4.918  35.000  0.00  0.00    +0.110 C 
ATOM     33  C   UNL     1       6.497   3.398  35.243  0.00  0.00    +0.143 C 
ATOM     34  C   UNL     1       5.762   2.710  34.092  0.00  0.00    +0.133 C 
BRANCH  34  35
ATOM     35  N   UNL     1       5.589   1.277  34.376  0.00  0.00    -0.308 N 
ATOM     36  H   UNL     1       4.923   1.014  35.089  0.00  0.00    +0.149 HD
ATOM     37  C   UNL     1       6.253   0.300  33.752  0.00  0.00    +0.210 C 
ATOM     38  C   UNL     1       7.279   0.734  32.689  0.00  0.00    +0.109 C 
ATOM     39  O   UNL     1       6.076  -0.893  34.001  0.00  0.00    -0.276 OA
ENDBRANCH  34  35
BRANCH  31  40
ATOM     40  C   UNL     1       4.379   5.588  35.983  0.00  0.00    +0.414 C 
ATOM     41  O   UNL     1       4.915   5.797  37.070  0.00  0.00    -0.240 OA
ATOM     42  O   UNL     1       3.161   5.411  35.936  0.00  0.00    -0.240 OA
ENDBRANCH  31  40
BRANCH  33  43
ATOM     43  O   UNL     1       7.804   2.836  35.370  0.00  0.00    -0.390 OA
ATOM     44  H   UNL     1       8.439   3.536  35.537  0.00  0.00    +0.210 HD
ENDBRANCH  33  43
BRANCH  31  45
ATOM     45  O   UNL     1       5.436   6.899  34.206  0.00  0.00    -0.343 OA
ATOM     46  C   UNL     1       6.776   7.418  34.402  0.00  0.00    +0.198 C 
ENDBRANCH  31  45
ENDBRANCH  28  29
BRANCH  28  47
ATOM     47  O   UNL     1       4.367   2.582  31.583  0.00  0.00    -0.387 OA
ATOM     48  H   UNL     1       5.018   1.898  31.756  0.00  0.00    +0.210 HD
ENDBRANCH  28  47
ENDBRANCH  25  28
ENDBRANCH   1  25
TORSDOF 15
