REMARK VINA RESULT:    -7.054     20.967     24.285
REMARK INTER + INTRA:         -15.100
REMARK INTER:                 -12.521
REMARK INTRA:                  -2.578
REMARK UNBOUND:                -2.067
REMARK  Name = lig_assembled_79.pdb
REMARK  20 active torsions:
REMARK  status: ('A' for Active; 'I' for Inactive)
REMARK    1  A    between atoms: _2  and  _10
REMARK    2  A    between atoms: _5  and  _26
REMARK    3  A    between atoms: _7  and  _8
REMARK    4  A    between atoms: _7  and  _26
REMARK    5  A    between atoms: _10  and  _11
REMARK    6  A    between atoms: _10  and  _12
REMARK    7  A    between atoms: _10  and  _13
REMARK    8  A    between atoms: _13  and  _14
REMARK    9  A    between atoms: _22  and  _42
REMARK   10  A    between atoms: _24  and  _30
REMARK   11  A    between atoms: _25  and  _29
REMARK   12  A    between atoms: _29  and  _30
REMARK   13  A    between atoms: _32  and  _33
REMARK   14  A    between atoms: _34  and  _35
REMARK   15  A    between atoms: _36  and  _38
REMARK   16  A    between atoms: _38  and  _39
REMARK   17  A    between atoms: _38  and  _40
REMARK   18  A    between atoms: _40  and  _41
REMARK   19  A    between atoms: _40  and  _42
REMARK   20  A    between atoms: _43  and  _45
REMARK                            x       y       z     vdW  Elec       q    Type
REMARK                         _______ _______ _______ _____ _____    ______ ____
ROOT
ATOM      1  C   UNL     1      18.991   4.944  26.354  0.00  0.00    +0.401 C 
ATOM      2  O   UNL     1      20.152   4.610  26.601  0.00  0.00    -0.226 OA
ATOM      3  N   UNL     1      17.917   4.343  26.866  0.00  0.00    -0.279 N 
ATOM      4  H   UNL     1      17.005   4.696  26.611  0.00  0.00    +0.152 HD
ENDROOT
BRANCH   3   5
ATOM      5  C   UNL     1      17.984   3.196  27.780  0.00  0.00    +0.141 C 
BRANCH   5   6
ATOM      6  C   UNL     1      18.091   1.874  27.026  0.00  0.00    +0.163 C 
BRANCH   6   7
ATOM      7  O   UNL     1      18.870   0.936  27.788  0.00  0.00    -0.388 OA
ATOM      8  H   UNL     1      19.332   0.343  27.190  0.00  0.00    +0.210 HD
ENDBRANCH   6   7
BRANCH   6   9
ATOM      9  C   UNL     1      16.681   1.324  26.751  0.00  0.00    +0.175 C 
BRANCH   9  10
ATOM     10  C   UNL     1      16.681   0.267  25.637  0.00  0.00    +0.176 C 
ATOM     11  O   UNL     1      17.291  -0.942  26.167  0.00  0.00    -0.332 OA
ATOM     12  C   UNL     1      17.283  -2.102  25.271  0.00  0.00    +0.277 C 
ATOM     13  C   UNL     1      17.931  -1.741  23.912  0.00  0.00    +0.110 C 
ATOM     14  C   UNL     1      17.337  -0.444  23.324  0.00  0.00    +0.143 C 
ATOM     15  C   UNL     1      17.394   0.696  24.341  0.00  0.00    +0.133 C 
BRANCH  15  16
ATOM     16  N   UNL     1      16.746   1.902  23.800  0.00  0.00    -0.308 N 
ATOM     17  H   UNL     1      15.737   1.912  23.748  0.00  0.00    +0.149 HD
ATOM     18  C   UNL     1      17.404   2.983  23.374  0.00  0.00    +0.210 C 
ATOM     19  C   UNL     1      18.942   2.926  23.443  0.00  0.00    +0.109 C 
ATOM     20  O   UNL     1      16.835   3.985  22.940  0.00  0.00    -0.276 OA
ENDBRANCH  15  16
BRANCH  12  21
ATOM     21  C   UNL     1      15.842  -2.602  25.037  0.00  0.00    +0.414 C 
ATOM     22  O   UNL     1      15.259  -3.243  25.911  0.00  0.00    -0.240 OA
ATOM     23  O   UNL     1      15.263  -2.365  23.977  0.00  0.00    -0.240 OA
ENDBRANCH  12  21
BRANCH  14  24
ATOM     24  O   UNL     1      18.064  -0.068  22.154  0.00  0.00    -0.390 OA
ATOM     25  H   UNL     1      17.859  -0.675  21.439  0.00  0.00    +0.210 HD
ENDBRANCH  14  24
BRANCH  12  26
ATOM     26  O   UNL     1      18.070  -3.153  25.889  0.00  0.00    -0.343 OA
ATOM     27  C   UNL     1      18.490  -2.883  27.250  0.00  0.00    +0.198 C 
ENDBRANCH  12  26
ENDBRANCH   9  10
BRANCH   9  28
ATOM     28  O   UNL     1      15.785   2.401  26.414  0.00  0.00    -0.387 OA
ATOM     29  H   UNL     1      14.884   2.071  26.385  0.00  0.00    +0.210 HD
ENDBRANCH   9  28
ENDBRANCH   6   9
ENDBRANCH   5   6
ENDBRANCH   3   5
BRANCH   1  30
ATOM     30  O   UNL     1      18.758   6.044  25.470  0.00  0.00    -0.444 OA
BRANCH  30  31
ATOM     31  C   UNL     1      19.993   6.718  25.211  0.00  0.00    +0.292 C 
BRANCH  31  33
ATOM     32  N   UNL     1      21.343   8.481  26.286  0.00  0.00    -0.131 NA
ATOM     33  C   UNL     1      20.129   7.886  26.100  0.00  0.00    +0.120 A 
ATOM     34  C   UNL     1      19.183   8.546  26.852  0.00  0.00    +0.138 A 
ATOM     35  N   UNL     1      19.859   9.597  27.409  0.00  0.00    -0.238 N 
ATOM     36  N   UNL     1      21.180   9.494  27.120  0.00  0.00    -0.064 NA
BRANCH  35  37
ATOM     37  C   UNL     1      19.415  10.637  28.382  0.00  0.00    +0.122 C 
ATOM     38  C   UNL     1      17.889  10.799  28.187  0.00  0.00    +0.044 C 
ATOM     39  C   UNL     1      20.247  11.888  28.034  0.00  0.00    +0.044 C 
BRANCH  37  40
ATOM     40  C   UNL     1      19.652  10.242  29.855  0.00  0.00    +0.192 C 
ATOM     41  O   UNL     1      20.660  10.634  30.451  0.00  0.00    -0.289 OA
BRANCH  40  42
ATOM     42  C   UNL     1      18.711   9.369  30.615  0.00  0.00    +0.045 A 
ATOM     43  C   UNL     1      18.720   7.994  30.406  0.00  0.00    +0.095 A 
ATOM     44  N   UNL     1      17.767   7.405  31.178  0.00  0.00    -0.360 N 
ATOM     45  H   UNL     1      17.564   6.414  31.204  0.00  0.00    +0.165 HD
ATOM     46  C   UNL     1      17.108   8.354  31.915  0.00  0.00    +0.047 A 
ATOM     47  C   UNL     1      16.055   8.185  32.826  0.00  0.00    +0.026 A 
ATOM     48  C   UNL     1      15.539   9.317  33.455  0.00  0.00    +0.002 A 
ATOM     49  C   UNL     1      16.061  10.572  33.184  0.00  0.00    +0.001 A 
ATOM     50  C   UNL     1      17.113  10.719  32.272  0.00  0.00    +0.011 A 
ATOM     51  C   UNL     1      17.670   9.600  31.601  0.00  0.00    +0.010 A 
ENDBRANCH  40  42
ENDBRANCH  37  40
ENDBRANCH  35  37
ENDBRANCH  31  33
ENDBRANCH  30  31
ENDBRANCH   1  30
TORSDOF 16
