REMARK VINA RESULT:    -6.575      3.696      5.776
REMARK INTER + INTRA:         -14.763
REMARK INTER:                 -12.735
REMARK INTRA:                  -2.029
REMARK UNBOUND:                -2.230
REMARK  Name = lig_assembled_9.pdb
REMARK  20 active torsions:
REMARK  status: ('A' for Active; 'I' for Inactive)
REMARK    1  A    between atoms: _2  and  _9
REMARK    2  A    between atoms: _4  and  _23
REMARK    3  A    between atoms: _6  and  _7
REMARK    4  A    between atoms: _6  and  _23
REMARK    5  A    between atoms: _11  and  _12
REMARK    6  A    between atoms: _12  and  _17
REMARK    7  A    between atoms: _13  and  _14
REMARK    8  A    between atoms: _13  and  _17
REMARK    9  A    between atoms: _19  and  _39
REMARK   10  A    between atoms: _21  and  _27
REMARK   11  A    between atoms: _22  and  _26
REMARK   12  A    between atoms: _26  and  _27
REMARK   13  A    between atoms: _29  and  _30
REMARK   14  A    between atoms: _31  and  _32
REMARK   15  A    between atoms: _33  and  _35
REMARK   16  A    between atoms: _35  and  _36
REMARK   17  A    between atoms: _35  and  _37
REMARK   18  A    between atoms: _37  and  _38
REMARK   19  A    between atoms: _37  and  _39
REMARK   20  A    between atoms: _40  and  _42
REMARK                            x       y       z     vdW  Elec       q    Type
REMARK                         _______ _______ _______ _____ _____    ______ ____
ROOT
ATOM      1  C   UNL     1       7.667   2.587  34.482  0.00  0.00    +0.163 C 
ENDROOT
BRANCH   1   2
ATOM      2  O   UNL     1       8.405   2.468  35.709  0.00  0.00    -0.388 OA
ATOM      3  H   UNL     1       8.231   3.232  36.264  0.00  0.00    +0.210 HD
ENDBRANCH   1   2
BRANCH   1   4
ATOM      4  C   UNL     1       7.921   3.951  33.817  0.00  0.00    +0.175 C 
BRANCH   4   5
ATOM      5  C   UNL     1       7.270   5.104  34.596  0.00  0.00    +0.176 C 
ATOM      6  O   UNL     1       8.000   5.271  35.842  0.00  0.00    -0.332 OA
ATOM      7  C   UNL     1       7.583   6.403  36.675  0.00  0.00    +0.277 C 
ATOM      8  C   UNL     1       6.064   6.331  36.964  0.00  0.00    +0.110 C 
ATOM      9  C   UNL     1       5.247   6.122  35.671  0.00  0.00    +0.143 C 
ATOM     10  C   UNL     1       5.768   4.921  34.882  0.00  0.00    +0.133 C 
BRANCH  10  11
ATOM     11  N   UNL     1       5.039   4.784  33.611  0.00  0.00    -0.308 N 
ATOM     12  H   UNL     1       5.180   5.496  32.907  0.00  0.00    +0.149 HD
ATOM     13  C   UNL     1       4.202   3.782  33.326  0.00  0.00    +0.210 C 
ATOM     14  C   UNL     1       3.988   2.729  34.429  0.00  0.00    +0.109 C 
ATOM     15  O   UNL     1       3.617   3.686  32.248  0.00  0.00    -0.276 OA
ENDBRANCH  10  11
BRANCH   7  16
ATOM     16  C   UNL     1       7.913   7.742  35.982  0.00  0.00    +0.414 C 
ATOM     17  O   UNL     1       8.211   8.729  36.653  0.00  0.00    -0.240 OA
ATOM     18  O   UNL     1       7.882   7.834  34.755  0.00  0.00    -0.240 OA
ENDBRANCH   7  16
BRANCH   7  19
ATOM     19  O   UNL     1       8.293   6.318  37.937  0.00  0.00    -0.343 OA
ATOM     20  C   UNL     1       9.476   5.478  37.919  0.00  0.00    +0.198 C 
ENDBRANCH   7  19
BRANCH   9  21
ATOM     21  O   UNL     1       3.873   5.911  35.998  0.00  0.00    -0.390 OA
ATOM     22  H   UNL     1       3.330   6.077  35.224  0.00  0.00    +0.210 HD
ENDBRANCH   9  21
ENDBRANCH   4   5
BRANCH   4  23
ATOM     23  O   UNL     1       7.443   3.937  32.458  0.00  0.00    -0.387 OA
ATOM     24  H   UNL     1       8.181   4.067  31.857  0.00  0.00    +0.210 HD
ENDBRANCH   4  23
ENDBRANCH   1   4
BRANCH   1  25
ATOM     25  C   UNL     1       8.065   1.471  33.523  0.00  0.00    +0.141 C 
BRANCH  25  28
ATOM     26  C   UNL     1       6.224  -0.171  33.374  0.00  0.00    +0.401 C 
ATOM     27  O   UNL     1       6.518  -0.737  34.430  0.00  0.00    -0.226 OA
ATOM     28  N   UNL     1       6.897   0.865  32.872  0.00  0.00    -0.279 N 
ATOM     29  H   UNL     1       6.585   1.256  31.994  0.00  0.00    +0.152 HD
BRANCH  26  30
ATOM     30  O   UNL     1       5.101  -0.640  32.624  0.00  0.00    -0.444 OA
BRANCH  30  31
ATOM     31  C   UNL     1       5.346  -1.978  32.182  0.00  0.00    +0.292 C 
BRANCH  31  33
ATOM     32  N   UNL     1       7.272  -2.124  30.633  0.00  0.00    -0.131 NA
ATOM     33  C   UNL     1       5.930  -1.969  30.827  0.00  0.00    +0.121 A 
ATOM     34  C   UNL     1       5.312  -1.830  29.607  0.00  0.00    +0.143 A 
ATOM     35  N   UNL     1       6.325  -1.946  28.681  0.00  0.00    -0.220 N 
ATOM     36  N   UNL     1       7.505  -2.100  29.328  0.00  0.00    -0.060 NA
BRANCH  35  37
ATOM     37  C   UNL     1       6.236  -1.949  27.266  0.00  0.00    +0.068 A 
ATOM     38  C   UNL     1       5.031  -1.624  26.627  0.00  0.00    +0.042 A 
ATOM     39  C   UNL     1       4.939  -1.660  25.228  0.00  0.00    +0.061 A 
ATOM     40  C   UNL     1       6.058  -2.017  24.468  0.00  0.00    +0.015 A 
ATOM     41  C   UNL     1       7.263  -2.329  25.101  0.00  0.00    +0.003 A 
ATOM     42  C   UNL     1       7.355  -2.294  26.493  0.00  0.00    +0.028 A 
BRANCH  39  43
ATOM     43  C   UNL     1       3.698  -1.264  24.511  0.00  0.00    +0.339 C 
ATOM     44  O   UNL     1       3.226  -1.891  23.576  0.00  0.00    -0.245 OA
BRANCH  43  45
ATOM     45  O   UNL     1       3.252  -0.076  24.987  0.00  0.00    -0.461 OA
BRANCH  45  46
ATOM     46  C   UNL     1       2.545   0.742  24.045  0.00  0.00    +0.229 C 
ATOM     47  C   UNL     1       2.574   2.172  24.551  0.00  0.00    +0.048 C 
ENDBRANCH  45  46
ENDBRANCH  43  45
ENDBRANCH  39  43
ENDBRANCH  35  37
ENDBRANCH  31  33
ENDBRANCH  30  31
ENDBRANCH  26  30
ENDBRANCH  25  28
ENDBRANCH   1  25
TORSDOF 17
