REMARK VINA RESULT:    -6.740      6.678     10.567
REMARK INTER + INTRA:         -14.129
REMARK INTER:                 -11.806
REMARK INTRA:                  -2.323
REMARK UNBOUND:                -1.873
REMARK  Name = lig_assembled_60.pdb
REMARK  18 active torsions:
REMARK  status: ('A' for Active; 'I' for Inactive)
REMARK    1  A    between atoms: _2  and  _10
REMARK    2  A    between atoms: _3  and  _41
REMARK    3  A    between atoms: _5  and  _21
REMARK    4  A    between atoms: _7  and  _8
REMARK    5  A    between atoms: _7  and  _21
REMARK    6  A    between atoms: _13  and  _41
REMARK    7  A    between atoms: _17  and  _37
REMARK    8  A    between atoms: _19  and  _25
REMARK    9  A    between atoms: _20  and  _24
REMARK   10  A    between atoms: _24  and  _25
REMARK   11  A    between atoms: _27  and  _28
REMARK   12  A    between atoms: _29  and  _30
REMARK   13  A    between atoms: _31  and  _33
REMARK   14  A    between atoms: _33  and  _34
REMARK   15  A    between atoms: _33  and  _35
REMARK   16  A    between atoms: _35  and  _36
REMARK   17  A    between atoms: _35  and  _37
REMARK   18  A    between atoms: _38  and  _40
REMARK                            x       y       z     vdW  Elec       q    Type
REMARK                         _______ _______ _______ _____ _____    ______ ____
ROOT
ATOM      1  C   UNL     1      -0.250   0.110  21.538  0.00  0.00    +0.141 C 
ENDROOT
BRANCH   1   4
ATOM      2  C   UNL     1      -0.917   1.564  19.654  0.00  0.00    +0.401 C 
ATOM      3  O   UNL     1      -2.114   1.280  19.735  0.00  0.00    -0.226 OA
ATOM      4  N   UNL     1       0.025   1.059  20.452  0.00  0.00    -0.279 N 
ATOM      5  H   UNL     1       0.982   1.346  20.301  0.00  0.00    +0.152 HD
BRANCH   2   6
ATOM      6  O   UNL     1      -0.488   2.485  18.648  0.00  0.00    -0.444 OA
BRANCH   6   7
ATOM      7  C   UNL     1      -0.362   1.802  17.398  0.00  0.00    +0.292 C 
BRANCH   7   9
ATOM      8  N   UNL     1       2.048   1.892  17.955  0.00  0.00    -0.131 NA
ATOM      9  C   UNL     1       1.060   1.619  17.054  0.00  0.00    +0.121 A 
ATOM     10  C   UNL     1       1.630   1.168  15.886  0.00  0.00    +0.143 A 
ATOM     11  N   UNL     1       2.984   1.148  16.135  0.00  0.00    -0.220 N 
ATOM     12  N   UNL     1       3.213   1.613  17.387  0.00  0.00    -0.060 NA
BRANCH  11  13
ATOM     13  C   UNL     1       4.031   0.688  15.295  0.00  0.00    +0.067 A 
ATOM     14  C   UNL     1       3.744   0.011  14.100  0.00  0.00    +0.030 A 
ATOM     15  C   UNL     1       4.781  -0.499  13.317  0.00  0.00    +0.030 A 
ATOM     16  C   UNL     1       6.107  -0.320  13.719  0.00  0.00    +0.105 A 
ATOM     17  C   UNL     1       6.406   0.367  14.900  0.00  0.00    +0.030 A 
ATOM     18  C   UNL     1       5.367   0.877  15.684  0.00  0.00    +0.030 A 
BRANCH  16  19
ATOM     19  S   UNL     1       7.408  -1.038  12.759  0.00  0.00    +0.056 S 
ATOM     20  O   UNL     1       7.186  -0.747  11.362  0.00  0.00    -0.153 OA
ATOM     21  O   UNL     1       8.671  -0.789  13.414  0.00  0.00    -0.153 OA
BRANCH  19  22
ATOM     22  N   UNL     1       7.104  -2.677  12.946  0.00  0.00    -0.204 NA
ATOM     23  H   UNL     1       6.210  -2.914  12.517  0.00  0.00    +0.144 HD
ATOM     24  H   UNL     1       7.168  -2.929  13.933  0.00  0.00    +0.144 HD
ENDBRANCH  19  22
ENDBRANCH  16  19
ENDBRANCH  11  13
ENDBRANCH   7   9
ENDBRANCH   6   7
ENDBRANCH   2   6
ENDBRANCH   1   4
BRANCH   1  25
ATOM     25  C   UNL     1      -0.403   0.814  22.883  0.00  0.00    +0.163 C 
BRANCH  25  26
ATOM     26  O   UNL     1      -1.396   0.145  23.677  0.00  0.00    -0.388 OA
ATOM     27  H   UNL     1      -2.270   0.355  23.340  0.00  0.00    +0.210 HD
ENDBRANCH  25  26
BRANCH  25  28
ATOM     28  C   UNL     1       0.955   0.839  23.606  0.00  0.00    +0.175 C 
BRANCH  28  29
ATOM     29  C   UNL     1       1.089   2.049  24.542  0.00  0.00    +0.176 C 
ATOM     30  O   UNL     1       0.204   1.837  25.677  0.00  0.00    -0.332 OA
ATOM     31  C   UNL     1       0.277   2.849  26.735  0.00  0.00    +0.277 C 
ATOM     32  C   UNL     1       0.046   4.263  26.149  0.00  0.00    +0.110 C 
ATOM     33  C   UNL     1       0.942   4.523  24.919  0.00  0.00    +0.143 C 
ATOM     34  C   UNL     1       0.790   3.409  23.884  0.00  0.00    +0.133 C 
BRANCH  34  35
ATOM     35  N   UNL     1       1.712   3.623  22.757  0.00  0.00    -0.308 N 
ATOM     36  H   UNL     1       2.681   3.370  22.887  0.00  0.00    +0.149 HD
ATOM     37  C   UNL     1       1.352   4.130  21.575  0.00  0.00    +0.210 C 
ATOM     38  C   UNL     1      -0.127   4.530  21.418  0.00  0.00    +0.109 C 
ATOM     39  O   UNL     1       2.143   4.284  20.644  0.00  0.00    -0.276 OA
ENDBRANCH  34  35
BRANCH  31  40
ATOM     40  C   UNL     1       1.647   2.802  27.443  0.00  0.00    +0.414 C 
ATOM     41  O   UNL     1       2.259   3.843  27.680  0.00  0.00    -0.240 OA
ATOM     42  O   UNL     1       2.141   1.724  27.777  0.00  0.00    -0.240 OA
ENDBRANCH  31  40
BRANCH  33  43
ATOM     43  O   UNL     1       0.590   5.772  24.322  0.00  0.00    -0.390 OA
ATOM     44  H   UNL     1      -0.212   5.665  23.805  0.00  0.00    +0.210 HD
ENDBRANCH  33  43
BRANCH  31  45
ATOM     45  O   UNL     1      -0.777   2.573  27.693  0.00  0.00    -0.343 OA
ATOM     46  C   UNL     1      -1.209   3.716  28.474  0.00  0.00    +0.198 C 
ENDBRANCH  31  45
ENDBRANCH  28  29
BRANCH  28  47
ATOM     47  O   UNL     1       2.030   0.833  22.646  0.00  0.00    -0.387 OA
ATOM     48  H   UNL     1       2.792   0.385  23.020  0.00  0.00    +0.210 HD
ENDBRANCH  28  47
ENDBRANCH  25  28
ENDBRANCH   1  25
TORSDOF 16
