REMARK VINA RESULT:    -6.650     21.691     24.910
REMARK INTER + INTRA:         -14.088
REMARK INTER:                 -12.228
REMARK INTRA:                  -1.861
REMARK UNBOUND:                -1.802
REMARK  Name = lig_assembled_36.pdb
REMARK  18 active torsions:
REMARK  status: ('A' for Active; 'I' for Inactive)
REMARK    1  A    between atoms: _2  and  _10
REMARK    2  A    between atoms: _5  and  _21
REMARK    3  A    between atoms: _7  and  _8
REMARK    4  A    between atoms: _7  and  _21
REMARK    5  A    between atoms: _10  and  _11
REMARK    6  A    between atoms: _14  and  _15
REMARK    7  A    between atoms: _17  and  _37
REMARK    8  A    between atoms: _19  and  _25
REMARK    9  A    between atoms: _20  and  _24
REMARK   10  A    between atoms: _24  and  _25
REMARK   11  A    between atoms: _27  and  _28
REMARK   12  A    between atoms: _29  and  _30
REMARK   13  A    between atoms: _31  and  _33
REMARK   14  A    between atoms: _33  and  _34
REMARK   15  A    between atoms: _33  and  _35
REMARK   16  A    between atoms: _35  and  _36
REMARK   17  A    between atoms: _35  and  _37
REMARK   18  A    between atoms: _38  and  _40
REMARK                            x       y       z     vdW  Elec       q    Type
REMARK                         _______ _______ _______ _____ _____    ______ ____
ROOT
ATOM      1  C   UNL     1      -3.667   8.253  13.509  0.00  0.00    +0.163 C 
ENDROOT
BRANCH   1   2
ATOM      2  O   UNL     1      -4.829   8.234  14.354  0.00  0.00    -0.388 OA
ATOM      3  H   UNL     1      -4.934   7.359  14.736  0.00  0.00    +0.210 HD
ENDBRANCH   1   2
BRANCH   1   4
ATOM      4  C   UNL     1      -2.741   9.427  13.873  0.00  0.00    +0.175 C 
BRANCH   4   5
ATOM      5  C   UNL     1      -3.037  10.677  13.032  0.00  0.00    +0.176 C 
ATOM      6  O   UNL     1      -1.789  11.115  12.428  0.00  0.00    -0.332 OA
ATOM      7  C   UNL     1      -1.896  12.244  11.499  0.00  0.00    +0.277 C 
ATOM      8  C   UNL     1      -2.595  13.444  12.183  0.00  0.00    +0.110 C 
ATOM      9  C   UNL     1      -3.911  13.021  12.868  0.00  0.00    +0.143 C 
ATOM     10  C   UNL     1      -3.685  11.838  13.810  0.00  0.00    +0.133 C 
BRANCH  10  11
ATOM     11  N   UNL     1      -4.961  11.389  14.389  0.00  0.00    -0.308 N 
ATOM     12  H   UNL     1      -5.633  10.956  13.771  0.00  0.00    +0.149 HD
ATOM     13  C   UNL     1      -5.289  11.517  15.677  0.00  0.00    +0.210 C 
ATOM     14  C   UNL     1      -4.254  12.206  16.587  0.00  0.00    +0.109 C 
ATOM     15  O   UNL     1      -6.360  11.119  16.138  0.00  0.00    -0.276 OA
ENDBRANCH  10  11
BRANCH   7  16
ATOM     16  C   UNL     1      -2.685  11.840  10.236  0.00  0.00    +0.414 C 
ATOM     17  O   UNL     1      -2.464  10.762   9.685  0.00  0.00    -0.240 OA
ATOM     18  O   UNL     1      -3.542  12.591   9.768  0.00  0.00    -0.240 OA
ENDBRANCH   7  16
BRANCH   7  19
ATOM     19  O   UNL     1      -0.553  12.648  11.127  0.00  0.00    -0.343 OA
ATOM     20  C   UNL     1      -0.192  13.999  11.510  0.00  0.00    +0.198 C 
ENDBRANCH   7  19
BRANCH   9  21
ATOM     21  O   UNL     1      -4.442  14.119  13.611  0.00  0.00    -0.390 OA
ATOM     22  H   UNL     1      -5.004  13.788  14.315  0.00  0.00    +0.210 HD
ENDBRANCH   9  21
ENDBRANCH   4   5
BRANCH   4  23
ATOM     23  O   UNL     1      -1.362   9.038  13.718  0.00  0.00    -0.387 OA
ATOM     24  H   UNL     1      -1.123   9.070  12.788  0.00  0.00    +0.210 HD
ENDBRANCH   4  23
ENDBRANCH   1   4
BRANCH   1  25
ATOM     25  C   UNL     1      -2.902   6.940  13.644  0.00  0.00    +0.141 C 
BRANCH  25  28
ATOM     26  C   UNL     1      -3.056   6.087  15.958  0.00  0.00    +0.401 C 
ATOM     27  O   UNL     1      -4.172   5.588  15.800  0.00  0.00    -0.226 OA
ATOM     28  N   UNL     1      -2.391   6.742  15.006  0.00  0.00    -0.279 N 
ATOM     29  H   UNL     1      -1.484   7.125  15.235  0.00  0.00    +0.152 HD
BRANCH  26  30
ATOM     30  O   UNL     1      -2.418   5.971  17.232  0.00  0.00    -0.444 OA
BRANCH  30  31
ATOM     31  C   UNL     1      -2.689   4.681  17.787  0.00  0.00    +0.292 C 
BRANCH  31  33
ATOM     32  N   UNL     1      -1.200   2.763  18.281  0.00  0.00    -0.131 NA
ATOM     33  C   UNL     1      -1.461   4.106  18.367  0.00  0.00    +0.120 A 
ATOM     34  C   UNL     1      -0.420   4.726  19.021  0.00  0.00    +0.137 A 
ATOM     35  N   UNL     1       0.482   3.722  19.219  0.00  0.00    -0.247 N 
ATOM     36  N   UNL     1      -0.013   2.535  18.825  0.00  0.00    -0.065 NA
BRANCH  35  37
ATOM     37  C   UNL     1       1.824   3.822  19.758  0.00  0.00    +0.180 C 
BRANCH  37  38
ATOM     38  C   UNL     1       1.809   3.848  21.269  0.00  0.00    -0.026 A 
ATOM     39  C   UNL     1       1.767   5.063  21.968  0.00  0.00    +0.007 A 
ATOM     40  C   UNL     1       1.748   5.077  23.367  0.00  0.00    +0.019 A 
ATOM     41  C   UNL     1       1.775   3.877  24.084  0.00  0.00    +0.052 A 
ATOM     42  C   UNL     1       1.841   2.663  23.395  0.00  0.00    +0.019 A 
ATOM     43  C   UNL     1       1.862   2.649  21.997  0.00  0.00    +0.007 A 
BRANCH  41  44
ATOM     44  C   UNL     1       1.734   3.893  25.519  0.00  0.00    +0.099 C 
ATOM     45  N   UNL     1       1.713   3.907  26.678  0.00  0.00    -0.191 NA
ENDBRANCH  41  44
ENDBRANCH  37  38
ENDBRANCH  35  37
ENDBRANCH  31  33
ENDBRANCH  30  31
ENDBRANCH  26  30
ENDBRANCH  25  28
ENDBRANCH   1  25
TORSDOF 16
