REMARK VINA RESULT:    -6.494      2.268      3.259
REMARK INTER + INTRA:         -13.683
REMARK INTER:                 -12.001
REMARK INTRA:                  -1.682
REMARK UNBOUND:                -1.873
REMARK  Name = lig_assembled_60.pdb
REMARK  18 active torsions:
REMARK  status: ('A' for Active; 'I' for Inactive)
REMARK    1  A    between atoms: _2  and  _10
REMARK    2  A    between atoms: _3  and  _41
REMARK    3  A    between atoms: _5  and  _21
REMARK    4  A    between atoms: _7  and  _8
REMARK    5  A    between atoms: _7  and  _21
REMARK    6  A    between atoms: _13  and  _41
REMARK    7  A    between atoms: _17  and  _37
REMARK    8  A    between atoms: _19  and  _25
REMARK    9  A    between atoms: _20  and  _24
REMARK   10  A    between atoms: _24  and  _25
REMARK   11  A    between atoms: _27  and  _28
REMARK   12  A    between atoms: _29  and  _30
REMARK   13  A    between atoms: _31  and  _33
REMARK   14  A    between atoms: _33  and  _34
REMARK   15  A    between atoms: _33  and  _35
REMARK   16  A    between atoms: _35  and  _36
REMARK   17  A    between atoms: _35  and  _37
REMARK   18  A    between atoms: _38  and  _40
REMARK                            x       y       z     vdW  Elec       q    Type
REMARK                         _______ _______ _______ _____ _____    ______ ____
ROOT
ATOM      1  C   UNL     1       5.191   3.030  33.562  0.00  0.00    +0.141 C 
ENDROOT
BRANCH   1   4
ATOM      2  C   UNL     1       2.785   3.137  33.013  0.00  0.00    +0.401 C 
ATOM      3  O   UNL     1       2.524   3.959  33.894  0.00  0.00    -0.226 OA
ATOM      4  N   UNL     1       4.003   2.643  32.791  0.00  0.00    -0.279 N 
ATOM      5  H   UNL     1       4.115   1.965  32.050  0.00  0.00    +0.152 HD
BRANCH   2   6
ATOM      6  O   UNL     1       1.731   2.666  32.169  0.00  0.00    -0.444 OA
BRANCH   6   7
ATOM      7  C   UNL     1       2.286   1.924  31.080  0.00  0.00    +0.292 C 
BRANCH   7   9
ATOM      8  N   UNL     1       1.109   3.637  29.733  0.00  0.00    -0.131 NA
ATOM      9  C   UNL     1       1.807   2.465  29.794  0.00  0.00    +0.121 A 
ATOM     10  C   UNL     1       1.958   1.967  28.521  0.00  0.00    +0.143 A 
ATOM     11  N   UNL     1       1.361   2.896  27.700  0.00  0.00    -0.220 N 
ATOM     12  N   UNL     1       0.833   3.887  28.461  0.00  0.00    -0.060 NA
BRANCH  11  13
ATOM     13  C   UNL     1       1.301   2.918  26.283  0.00  0.00    +0.067 A 
ATOM     14  C   UNL     1       2.111   2.061  25.521  0.00  0.00    +0.030 A 
ATOM     15  C   UNL     1       2.096   2.140  24.127  0.00  0.00    +0.030 A 
ATOM     16  C   UNL     1       1.262   3.064  23.492  0.00  0.00    +0.105 A 
ATOM     17  C   UNL     1       0.440   3.912  24.241  0.00  0.00    +0.030 A 
ATOM     18  C   UNL     1       0.455   3.833  25.636  0.00  0.00    +0.030 A 
BRANCH  16  19
ATOM     19  S   UNL     1       1.311   3.208  21.730  0.00  0.00    +0.056 S 
ATOM     20  O   UNL     1      -0.008   2.965  21.195  0.00  0.00    -0.153 OA
ATOM     21  O   UNL     1       2.093   4.369  21.373  0.00  0.00    -0.153 OA
BRANCH  19  22
ATOM     22  N   UNL     1       2.238   1.876  21.306  0.00  0.00    -0.204 NA
ATOM     23  H   UNL     1       2.955   1.714  22.013  0.00  0.00    +0.144 HD
ATOM     24  H   UNL     1       2.608   2.000  20.363  0.00  0.00    +0.144 HD
ENDBRANCH  19  22
ENDBRANCH  16  19
ENDBRANCH  11  13
ENDBRANCH   7   9
ENDBRANCH   6   7
ENDBRANCH   2   6
ENDBRANCH   1   4
BRANCH   1  25
ATOM     25  C   UNL     1       6.476   2.828  32.765  0.00  0.00    +0.163 C 
BRANCH  25  26
ATOM     26  O   UNL     1       6.272   3.216  31.396  0.00  0.00    -0.388 OA
ATOM     27  H   UNL     1       5.396   2.944  31.114  0.00  0.00    +0.210 HD
ENDBRANCH  25  26
BRANCH  25  28
ATOM     28  C   UNL     1       7.611   3.646  33.405  0.00  0.00    +0.175 C 
BRANCH  28  29
ATOM     29  C   UNL     1       7.231   4.173  34.796  0.00  0.00    +0.176 C 
ATOM     30  O   UNL     1       7.346   5.622  34.773  0.00  0.00    -0.332 OA
ATOM     31  C   UNL     1       6.917   6.312  35.994  0.00  0.00    +0.277 C 
ATOM     32  C   UNL     1       7.667   5.747  37.226  0.00  0.00    +0.110 C 
ATOM     33  C   UNL     1       7.599   4.206  37.276  0.00  0.00    +0.143 C 
ATOM     34  C   UNL     1       8.064   3.593  35.955  0.00  0.00    +0.133 C 
BRANCH  34  35
ATOM     35  N   UNL     1       7.913   2.130  35.984  0.00  0.00    -0.308 N 
ATOM     36  H   UNL     1       6.985   1.754  36.119  0.00  0.00    +0.149 HD
ATOM     37  C   UNL     1       8.922   1.266  35.844  0.00  0.00    +0.210 C 
ATOM     38  C   UNL     1      10.328   1.870  35.667  0.00  0.00    +0.109 C 
ATOM     39  O   UNL     1       8.764   0.045  35.859  0.00  0.00    -0.276 OA
ENDBRANCH  34  35
BRANCH  31  40
ATOM     40  C   UNL     1       5.396   6.161  36.202  0.00  0.00    +0.414 C 
ATOM     41  O   UNL     1       4.645   6.053  35.233  0.00  0.00    -0.240 OA
ATOM     42  O   UNL     1       4.920   6.148  37.338  0.00  0.00    -0.240 OA
ENDBRANCH  31  40
BRANCH  33  43
ATOM     43  O   UNL     1       8.425   3.722  38.336  0.00  0.00    -0.390 OA
ATOM     44  H   UNL     1       8.444   4.366  39.048  0.00  0.00    +0.210 HD
ENDBRANCH  33  43
BRANCH  31  45
ATOM     45  O   UNL     1       7.255   7.716  35.858  0.00  0.00    -0.343 OA
ATOM     46  C   UNL     1       7.531   8.151  34.503  0.00  0.00    +0.198 C 
ENDBRANCH  31  45
ENDBRANCH  28  29
BRANCH  28  47
ATOM     47  O   UNL     1       7.981   4.742  32.543  0.00  0.00    -0.387 OA
ATOM     48  H   UNL     1       7.573   4.624  31.682  0.00  0.00    +0.210 HD
ENDBRANCH  28  47
ENDBRANCH  25  28
ENDBRANCH   1  25
TORSDOF 16
