REMARK VINA RESULT:    -6.174     13.521     15.823
REMARK INTER + INTRA:         -14.338
REMARK INTER:                 -11.422
REMARK INTRA:                  -2.916
REMARK UNBOUND:                -2.569
REMARK  Name = lig_assembled_18.pdb
REMARK  19 active torsions:
REMARK  status: ('A' for Active; 'I' for Inactive)
REMARK    1  A    between atoms: _2  and  _10
REMARK    2  A    between atoms: _3  and  _12
REMARK    3  A    between atoms: _5  and  _21
REMARK    4  A    between atoms: _7  and  _8
REMARK    5  A    between atoms: _7  and  _21
REMARK    6  A    between atoms: _10  and  _11
REMARK    7  A    between atoms: _12  and  _13
REMARK    8  A    between atoms: _17  and  _37
REMARK    9  A    between atoms: _19  and  _25
REMARK   10  A    between atoms: _20  and  _24
REMARK   11  A    between atoms: _24  and  _25
REMARK   12  A    between atoms: _27  and  _28
REMARK   13  A    between atoms: _29  and  _30
REMARK   14  A    between atoms: _31  and  _33
REMARK   15  A    between atoms: _33  and  _34
REMARK   16  A    between atoms: _33  and  _35
REMARK   17  A    between atoms: _35  and  _36
REMARK   18  A    between atoms: _35  and  _37
REMARK   19  A    between atoms: _38  and  _40
REMARK                            x       y       z     vdW  Elec       q    Type
REMARK                         _______ _______ _______ _____ _____    ______ ____
ROOT
ATOM      1  C   UNL     1      18.684   6.982  29.140  0.00  0.00    +0.163 C 
ENDROOT
BRANCH   1   2
ATOM      2  O   UNL     1      18.781   6.227  30.359  0.00  0.00    -0.388 OA
ATOM      3  H   UNL     1      19.433   5.530  30.253  0.00  0.00    +0.210 HD
ENDBRANCH   1   2
BRANCH   1   4
ATOM      4  C   UNL     1      19.380   8.347  29.281  0.00  0.00    +0.175 C 
BRANCH   4   5
ATOM      5  C   UNL     1      19.135   8.981  30.658  0.00  0.00    +0.176 C 
ATOM      6  O   UNL     1      17.720   8.851  30.965  0.00  0.00    -0.332 OA
ATOM      7  C   UNL     1      17.315   9.311  32.296  0.00  0.00    +0.277 C 
ATOM      8  C   UNL     1      17.767  10.774  32.525  0.00  0.00    +0.110 C 
ATOM      9  C   UNL     1      19.259  10.969  32.181  0.00  0.00    +0.143 C 
ATOM     10  C   UNL     1      19.570  10.454  30.775  0.00  0.00    +0.133 C 
BRANCH  10  11
ATOM     11  N   UNL     1      21.010  10.566  30.492  0.00  0.00    -0.308 N 
ATOM     12  H   UNL     1      21.643  10.003  31.042  0.00  0.00    +0.149 HD
ATOM     13  C   UNL     1      21.534  11.362  29.556  0.00  0.00    +0.210 C 
ATOM     14  C   UNL     1      20.544  12.226  28.753  0.00  0.00    +0.109 C 
ATOM     15  O   UNL     1      22.743  11.424  29.332  0.00  0.00    -0.276 OA
ENDBRANCH  10  11
BRANCH   7  16
ATOM     16  C   UNL     1      17.917   8.408  33.393  0.00  0.00    +0.414 C 
ATOM     17  O   UNL     1      18.210   8.878  34.492  0.00  0.00    -0.240 OA
ATOM     18  O   UNL     1      18.110   7.210  33.180  0.00  0.00    -0.240 OA
ENDBRANCH   7  16
BRANCH   7  19
ATOM     19  O   UNL     1      15.866   9.264  32.366  0.00  0.00    -0.343 OA
ATOM     20  C   UNL     1      15.265  10.232  33.263  0.00  0.00    +0.198 C 
ENDBRANCH   7  19
BRANCH   9  21
ATOM     21  O   UNL     1      19.594  12.355  32.259  0.00  0.00    -0.390 OA
ATOM     22  H   UNL     1      19.380  12.784  31.428  0.00  0.00    +0.210 HD
ENDBRANCH   9  21
ENDBRANCH   4   5
BRANCH   4  23
ATOM     23  O   UNL     1      18.941   9.239  28.237  0.00  0.00    -0.387 OA
ATOM     24  H   UNL     1      18.090   9.615  28.475  0.00  0.00    +0.210 HD
ENDBRANCH   4  23
ENDBRANCH   1   4
BRANCH   1  25
ATOM     25  C   UNL     1      19.317   6.203  27.992  0.00  0.00    +0.141 C 
BRANCH  25  28
ATOM     26  C   UNL     1      18.855   7.100  25.737  0.00  0.00    +0.401 C 
ATOM     27  O   UNL     1      19.845   7.835  25.723  0.00  0.00    -0.226 OA
ATOM     28  N   UNL     1      18.528   6.308  26.759  0.00  0.00    -0.279 N 
ATOM     29  H   UNL     1      17.690   5.749  26.680  0.00  0.00    +0.152 HD
BRANCH  26  30
ATOM     30  O   UNL     1      17.987   7.083  24.600  0.00  0.00    -0.444 OA
BRANCH  30  31
ATOM     31  C   UNL     1      18.679   6.526  23.479  0.00  0.00    +0.292 C 
BRANCH  31  33
ATOM     32  N   UNL     1      16.869   5.216  22.406  0.00  0.00    -0.131 NA
ATOM     33  C   UNL     1      18.061   5.247  23.079  0.00  0.00    +0.120 A 
ATOM     34  C   UNL     1      18.500   3.958  23.273  0.00  0.00    +0.137 A 
ATOM     35  N   UNL     1      17.549   3.188  22.672  0.00  0.00    -0.242 N 
ATOM     36  N   UNL     1      16.557   3.948  22.170  0.00  0.00    -0.065 NA
BRANCH  35  37
ATOM     37  C   UNL     1      17.444   1.749  22.635  0.00  0.00    +0.240 C 
BRANCH  37  38
ATOM     38  C   UNL     1      17.031   1.170  23.968  0.00  0.00    +0.235 C 
ATOM     39  O   UNL     1      17.130  -0.029  24.219  0.00  0.00    -0.274 OA
ATOM     40  N   UNL     1      16.591   2.092  24.897  0.00  0.00    -0.309 N 
ATOM     41  H   UNL     1      16.366   3.034  24.612  0.00  0.00    +0.149 HD
BRANCH  40  42
ATOM     42  C   UNL     1      16.177   1.687  26.225  0.00  0.00    +0.146 C 
BRANCH  42  43
ATOM     43  C   UNL     1      17.297   1.909  27.190  0.00  0.00    +0.007 A 
ATOM     44  S   UNL     1      18.489   0.704  27.439  0.00  0.00    -0.100 S 
ATOM     45  C   UNL     1      19.280   1.641  28.631  0.00  0.00    +0.045 A 
ATOM     46  C   UNL     1      18.663   2.856  28.829  0.00  0.00    +0.008 A 
ATOM     47  C   UNL     1      17.522   3.014  27.990  0.00  0.00    +0.013 A 
ENDBRANCH  42  43
ENDBRANCH  40  42
ENDBRANCH  37  38
ENDBRANCH  35  37
ENDBRANCH  31  33
ENDBRANCH  30  31
ENDBRANCH  26  30
ENDBRANCH  25  28
ENDBRANCH   1  25
TORSDOF 17
