REMARK VINA RESULT:    -4.945     15.005     18.499
REMARK INTER + INTRA:         -12.736
REMARK INTER:                 -10.755
REMARK INTRA:                  -1.981
REMARK UNBOUND:                -3.888
REMARK  Name = lig_assembled_46.pdb
REMARK  17 active torsions:
REMARK  status: ('A' for Active; 'I' for Inactive)
REMARK    1  A    between atoms: _2  and  _9
REMARK    2  A    between atoms: _4  and  _19
REMARK    3  A    between atoms: _6  and  _7
REMARK    4  A    between atoms: _6  and  _19
REMARK    5  A    between atoms: _9  and  _10
REMARK    6  A    between atoms: _15  and  _35
REMARK    7  A    between atoms: _17  and  _23
REMARK    8  A    between atoms: _18  and  _22
REMARK    9  A    between atoms: _22  and  _23
REMARK   10  A    between atoms: _25  and  _26
REMARK   11  A    between atoms: _27  and  _28
REMARK   12  A    between atoms: _29  and  _31
REMARK   13  A    between atoms: _31  and  _32
REMARK   14  A    between atoms: _31  and  _33
REMARK   15  A    between atoms: _33  and  _34
REMARK   16  A    between atoms: _33  and  _35
REMARK   17  A    between atoms: _36  and  _38
REMARK                            x       y       z     vdW  Elec       q    Type
REMARK                         _______ _______ _______ _____ _____    ______ ____
ROOT
ATOM      1  C   UNL     1      16.530   1.739  25.742  0.00  0.00    +0.163 C 
ENDROOT
BRANCH   1   2
ATOM      2  O   UNL     1      16.044   2.484  24.613  0.00  0.00    -0.388 OA
ATOM      3  H   UNL     1      15.833   3.380  24.887  0.00  0.00    +0.210 HD
ENDBRANCH   1   2
BRANCH   1   4
ATOM      4  C   UNL     1      17.882   2.288  26.186  0.00  0.00    +0.141 C 
BRANCH   4   7
ATOM      5  C   UNL     1      19.275   4.291  25.793  0.00  0.00    +0.401 C 
ATOM      6  O   UNL     1      20.278   3.813  26.327  0.00  0.00    -0.226 OA
ATOM      7  N   UNL     1      18.110   3.650  25.688  0.00  0.00    -0.279 N 
ATOM      8  H   UNL     1      17.340   4.129  25.241  0.00  0.00    +0.152 HD
BRANCH   5   9
ATOM      9  O   UNL     1      19.339   5.612  25.249  0.00  0.00    -0.444 OA
BRANCH   9  10
ATOM     10  C   UNL     1      20.642   5.842  24.707  0.00  0.00    +0.292 C 
BRANCH  10  12
ATOM     11  N   UNL     1      21.102   8.067  23.724  0.00  0.00    -0.131 NA
ATOM     12  C   UNL     1      21.006   7.266  24.830  0.00  0.00    +0.120 A 
ATOM     13  C   UNL     1      21.255   8.022  25.956  0.00  0.00    +0.137 A 
ATOM     14  N   UNL     1      21.438   9.286  25.473  0.00  0.00    -0.247 N 
ATOM     15  N   UNL     1      21.359   9.305  24.128  0.00  0.00    -0.065 NA
BRANCH  14  16
ATOM     16  C   UNL     1      21.438  10.529  26.224  0.00  0.00    +0.180 C 
BRANCH  16  17
ATOM     17  C   UNL     1      20.300  10.645  27.207  0.00  0.00    -0.026 A 
ATOM     18  C   UNL     1      18.974  10.772  26.764  0.00  0.00    +0.005 A 
ATOM     19  C   UNL     1      17.919  10.782  27.681  0.00  0.00    +0.000 A 
ATOM     20  C   UNL     1      18.175  10.663  29.044  0.00  0.00    +0.000 A 
ATOM     21  C   UNL     1      19.488  10.545  29.497  0.00  0.00    +0.000 A 
ATOM     22  C   UNL     1      20.545  10.536  28.584  0.00  0.00    +0.005 A 
ENDBRANCH  16  17
ENDBRANCH  14  16
ENDBRANCH  10  12
ENDBRANCH   9  10
ENDBRANCH   5   9
ENDBRANCH   4   7
ENDBRANCH   1   4
BRANCH   1  23
ATOM     23  C   UNL     1      16.670   0.246  25.397  0.00  0.00    +0.175 C 
BRANCH  23  24
ATOM     24  C   UNL     1      17.702   0.005  24.285  0.00  0.00    +0.176 C 
ATOM     25  O   UNL     1      17.241   0.693  23.090  0.00  0.00    -0.332 OA
ATOM     26  C   UNL     1      18.158   0.661  21.946  0.00  0.00    +0.277 C 
ATOM     27  C   UNL     1      18.536  -0.799  21.596  0.00  0.00    +0.110 C 
ATOM     28  C   UNL     1      19.002  -1.581  22.842  0.00  0.00    +0.143 C 
ATOM     29  C   UNL     1      17.976  -1.478  23.971  0.00  0.00    +0.133 C 
BRANCH  29  30
ATOM     30  N   UNL     1      18.470  -2.154  25.181  0.00  0.00    -0.308 N 
ATOM     31  H   UNL     1      19.327  -1.813  25.594  0.00  0.00    +0.149 HD
ATOM     32  C   UNL     1      17.861  -3.187  25.768  0.00  0.00    +0.210 C 
ATOM     33  C   UNL     1      16.571  -3.698  25.099  0.00  0.00    +0.109 C 
ATOM     34  O   UNL     1      18.291  -3.724  26.790  0.00  0.00    -0.276 OA
ENDBRANCH  29  30
BRANCH  26  35
ATOM     35  C   UNL     1      19.438   1.467  22.249  0.00  0.00    +0.414 C 
ATOM     36  O   UNL     1      19.450   2.293  23.161  0.00  0.00    -0.240 OA
ATOM     37  O   UNL     1      20.459   1.291  21.583  0.00  0.00    -0.240 OA
ENDBRANCH  26  35
BRANCH  26  38
ATOM     38  O   UNL     1      17.474   1.242  20.806  0.00  0.00    -0.343 OA
ATOM     39  C   UNL     1      16.735   2.457  21.090  0.00  0.00    +0.198 C 
ENDBRANCH  26  38
BRANCH  28  40
ATOM     40  O   UNL     1      19.194  -2.955  22.504  0.00  0.00    -0.390 OA
ATOM     41  H   UNL     1      19.461  -3.443  23.287  0.00  0.00    +0.210 HD
ENDBRANCH  28  40
ENDBRANCH  23  24
BRANCH  23  42
ATOM     42  O   UNL     1      15.391  -0.297  25.014  0.00  0.00    -0.387 OA
ATOM     43  H   UNL     1      15.102   0.110  24.194  0.00  0.00    +0.210 HD
ENDBRANCH  23  42
ENDBRANCH   1  23
TORSDOF 15
