REMARK VINA RESULT:    -6.188      9.304     13.964
REMARK INTER + INTRA:         -12.563
REMARK INTER:                 -10.353
REMARK INTRA:                  -2.209
REMARK UNBOUND:                -1.853
REMARK  Name = lig_assembled_86.pdb
REMARK  17 active torsions:
REMARK  status: ('A' for Active; 'I' for Inactive)
REMARK    1  A    between atoms: _2  and  _10
REMARK    2  A    between atoms: _3  and  _13
REMARK    3  A    between atoms: _5  and  _21
REMARK    4  A    between atoms: _7  and  _8
REMARK    5  A    between atoms: _7  and  _21
REMARK    6  A    between atoms: _17  and  _37
REMARK    7  A    between atoms: _19  and  _25
REMARK    8  A    between atoms: _20  and  _24
REMARK    9  A    between atoms: _24  and  _25
REMARK   10  A    between atoms: _27  and  _28
REMARK   11  A    between atoms: _29  and  _30
REMARK   12  A    between atoms: _31  and  _33
REMARK   13  A    between atoms: _33  and  _34
REMARK   14  A    between atoms: _33  and  _35
REMARK   15  A    between atoms: _35  and  _36
REMARK   16  A    between atoms: _35  and  _37
REMARK   17  A    between atoms: _38  and  _40
REMARK                            x       y       z     vdW  Elec       q    Type
REMARK                         _______ _______ _______ _____ _____    ______ ____
ROOT
ATOM      1  C   UNL     1       3.161   4.887  37.408  0.00  0.00    +0.163 C 
ENDROOT
BRANCH   1   2
ATOM      2  O   UNL     1       3.107   5.728  36.244  0.00  0.00    -0.388 OA
ATOM      3  H   UNL     1       3.523   5.278  35.504  0.00  0.00    +0.210 HD
ENDBRANCH   1   2
BRANCH   1   4
ATOM      4  C   UNL     1       2.314   5.487  38.525  0.00  0.00    +0.141 C 
BRANCH   4   7
ATOM      5  C   UNL     1       2.500   7.489  39.961  0.00  0.00    +0.401 C 
ATOM      6  O   UNL     1       2.037   6.932  40.959  0.00  0.00    -0.226 OA
ATOM      7  N   UNL     1       2.659   6.891  38.780  0.00  0.00    -0.279 N 
ATOM      8  H   UNL     1       3.039   7.435  38.018  0.00  0.00    +0.152 HD
BRANCH   5   9
ATOM      9  O   UNL     1       2.894   8.861  40.052  0.00  0.00    -0.444 OA
BRANCH   9  10
ATOM     10  C   UNL     1       2.289   9.457  41.202  0.00  0.00    +0.292 C 
BRANCH  10  12
ATOM     11  N   UNL     1       2.761  11.574  40.001  0.00  0.00    -0.131 NA
ATOM     12  C   UNL     1       2.076  10.899  40.977  0.00  0.00    +0.120 A 
ATOM     13  C   UNL     1       1.229  11.775  41.615  0.00  0.00    +0.137 A 
ATOM     14  N   UNL     1       1.417  12.954  40.960  0.00  0.00    -0.248 N 
ATOM     15  N   UNL     1       2.361  12.840  40.010  0.00  0.00    -0.065 NA
BRANCH  14  16
ATOM     16  C   UNL     1       0.722  14.211  41.190  0.00  0.00    +0.112 C 
ATOM     17  C   UNL     1       1.693  15.410  41.203  0.00  0.00    +0.045 C 
ATOM     18  C   UNL     1       1.230  16.616  40.380  0.00  0.00    +0.059 C 
ATOM     19  C   UNL     1       1.432  16.373  38.881  0.00  0.00    +0.020 C 
ATOM     20  C   UNL     1       0.092  15.823  38.397  0.00  0.00    +0.020 C 
ATOM     21  C   UNL     1      -0.757  15.711  39.665  0.00  0.00    +0.059 C 
ATOM     22  N   UNL     1      -0.216  16.823  40.446  0.00  0.00    -0.299 NA
ATOM     23  C   UNL     1      -0.790  17.026  41.763  0.00  0.00    +0.105 C 
ATOM     24  C   UNL     1      -0.565  14.349  40.346  0.00  0.00    +0.045 C 
ENDBRANCH  14  16
ENDBRANCH  10  12
ENDBRANCH   9  10
ENDBRANCH   5   9
ENDBRANCH   4   7
ENDBRANCH   1   4
BRANCH   1  25
ATOM     25  C   UNL     1       4.610   4.717  37.897  0.00  0.00    +0.175 C 
BRANCH  25  26
ATOM     26  C   UNL     1       5.565   5.722  37.236  0.00  0.00    +0.176 C 
ATOM     27  O   UNL     1       6.166   5.074  36.081  0.00  0.00    -0.332 OA
ATOM     28  C   UNL     1       7.033   5.923  35.258  0.00  0.00    +0.277 C 
ATOM     29  C   UNL     1       8.137   6.572  36.128  0.00  0.00    +0.110 C 
ATOM     30  C   UNL     1       7.550   7.246  37.386  0.00  0.00    +0.143 C 
ATOM     31  C   UNL     1       6.662   6.275  38.165  0.00  0.00    +0.133 C 
BRANCH  31  32
ATOM     32  N   UNL     1       6.039   6.953  39.312  0.00  0.00    -0.308 N 
ATOM     33  H   UNL     1       5.401   7.713  39.121  0.00  0.00    +0.149 HD
ATOM     34  C   UNL     1       6.260   6.629  40.589  0.00  0.00    +0.210 C 
ATOM     35  C   UNL     1       7.257   5.483  40.847  0.00  0.00    +0.109 C 
ATOM     36  O   UNL     1       5.713   7.206  41.529  0.00  0.00    -0.276 OA
ENDBRANCH  31  32
BRANCH  28  37
ATOM     37  C   UNL     1       6.213   7.027  34.558  0.00  0.00    +0.414 C 
ATOM     38  O   UNL     1       5.081   6.788  34.141  0.00  0.00    -0.240 OA
ATOM     39  O   UNL     1       6.684   8.156  34.411  0.00  0.00    -0.240 OA
ENDBRANCH  28  37
BRANCH  30  40
ATOM     40  O   UNL     1       8.609   7.696  38.231  0.00  0.00    -0.390 OA
ATOM     41  H   UNL     1       8.244   8.201  38.962  0.00  0.00    +0.210 HD
ENDBRANCH  30  40
BRANCH  28  42
ATOM     42  O   UNL     1       7.670   5.082  34.262  0.00  0.00    -0.343 OA
ATOM     43  C   UNL     1       6.972   3.846  33.967  0.00  0.00    +0.198 C 
ENDBRANCH  28  42
ENDBRANCH  25  26
BRANCH  25  44
ATOM     44  O   UNL     1       5.061   3.369  37.654  0.00  0.00    -0.387 OA
ATOM     45  H   UNL     1       5.392   2.990  38.471  0.00  0.00    +0.210 HD
ENDBRANCH  25  44
ENDBRANCH   1  25
TORSDOF 14
