REMARK VINA RESULT:    -5.551      2.593      5.375
REMARK INTER + INTRA:         -13.727
REMARK INTER:                 -11.731
REMARK INTRA:                  -1.997
REMARK UNBOUND:                -2.172
REMARK  Name = lig_assembled_54.pdb
REMARK  24 active torsions:
REMARK  status: ('A' for Active; 'I' for Inactive)
REMARK    1  A    between atoms: _2  and  _9
REMARK    2  A    between atoms: _4  and  _21
REMARK    3  A    between atoms: _5  and  _14
REMARK    4  A    between atoms: _6  and  _7
REMARK    5  A    between atoms: _6  and  _21
REMARK    6  A    between atoms: _9  and  _10
REMARK    7  A    between atoms: _10  and  _11
REMARK    8  A    between atoms: _11  and  _15
REMARK    9  A    between atoms: _11  and  _16
REMARK   10  A    between atoms: _12  and  _13
REMARK   11  A    between atoms: _12  and  _16
REMARK   12  A    between atoms: _14  and  _15
REMARK   13  A    between atoms: _17  and  _37
REMARK   14  A    between atoms: _19  and  _25
REMARK   15  A    between atoms: _20  and  _24
REMARK   16  A    between atoms: _24  and  _25
REMARK   17  A    between atoms: _27  and  _28
REMARK   18  A    between atoms: _29  and  _30
REMARK   19  A    between atoms: _31  and  _33
REMARK   20  A    between atoms: _33  and  _34
REMARK   21  A    between atoms: _33  and  _35
REMARK   22  A    between atoms: _35  and  _36
REMARK   23  A    between atoms: _35  and  _37
REMARK   24  A    between atoms: _38  and  _40
REMARK                            x       y       z     vdW  Elec       q    Type
REMARK                         _______ _______ _______ _____ _____    ______ ____
ROOT
ATOM      1  C   UNL     1       7.530   3.317  33.180  0.00  0.00    +0.163 C 
ENDROOT
BRANCH   1   2
ATOM      2  O   UNL     1       7.605   4.643  32.631  0.00  0.00    -0.388 OA
ATOM      3  H   UNL     1       7.418   4.612  31.690  0.00  0.00    +0.210 HD
ENDBRANCH   1   2
BRANCH   1   4
ATOM      4  C   UNL     1       7.263   3.363  34.694  0.00  0.00    +0.175 C 
BRANCH   4   5
ATOM      5  C   UNL     1       8.494   3.830  35.484  0.00  0.00    +0.176 C 
ATOM      6  O   UNL     1       8.958   2.714  36.292  0.00  0.00    -0.332 OA
ATOM      7  C   UNL     1      10.197   2.944  37.040  0.00  0.00    +0.277 C 
ATOM      8  C   UNL     1      10.069   4.210  37.922  0.00  0.00    +0.110 C 
ATOM      9  C   UNL     1       9.549   5.417  37.113  0.00  0.00    +0.143 C 
ATOM     10  C   UNL     1       8.258   5.066  36.373  0.00  0.00    +0.133 C 
BRANCH  10  11
ATOM     11  N   UNL     1       7.819   6.195  35.538  0.00  0.00    -0.308 N 
ATOM     12  H   UNL     1       8.464   6.547  34.844  0.00  0.00    +0.149 HD
ATOM     13  C   UNL     1       6.625   6.785  35.636  0.00  0.00    +0.210 C 
ATOM     14  C   UNL     1       5.675   6.242  36.720  0.00  0.00    +0.109 C 
ATOM     15  O   UNL     1       6.279   7.720  34.913  0.00  0.00    -0.276 OA
ENDBRANCH  10  11
BRANCH   7  16
ATOM     16  C   UNL     1      11.394   3.103  36.080  0.00  0.00    +0.414 C 
ATOM     17  O   UNL     1      11.252   2.907  34.874  0.00  0.00    -0.240 OA
ATOM     18  O   UNL     1      12.501   3.427  36.512  0.00  0.00    -0.240 OA
ENDBRANCH   7  16
BRANCH   9  19
ATOM     19  O   UNL     1       9.303   6.516  37.992  0.00  0.00    -0.390 OA
ATOM     20  H   UNL     1       9.626   7.326  37.591  0.00  0.00    +0.210 HD
ENDBRANCH   9  19
BRANCH   7  21
ATOM     21  O   UNL     1      10.416   1.802  37.909  0.00  0.00    -0.343 OA
ATOM     22  C   UNL     1      10.745   2.132  39.282  0.00  0.00    +0.198 C 
ENDBRANCH   7  21
ENDBRANCH   4   5
BRANCH   4  23
ATOM     23  O   UNL     1       6.835   2.068  35.162  0.00  0.00    -0.387 OA
ATOM     24  H   UNL     1       5.964   1.872  34.809  0.00  0.00    +0.210 HD
ENDBRANCH   4  23
ENDBRANCH   1   4
BRANCH   1  25
ATOM     25  C   UNL     1       6.421   2.529  32.490  0.00  0.00    +0.141 C 
BRANCH  25  28
ATOM     26  C   UNL     1       4.110   3.257  32.971  0.00  0.00    +0.401 C 
ATOM     27  O   UNL     1       3.952   2.460  33.899  0.00  0.00    -0.226 OA
ATOM     28  N   UNL     1       5.230   3.353  32.254  0.00  0.00    -0.279 N 
ATOM     29  H   UNL     1       5.260   4.032  31.506  0.00  0.00    +0.152 HD
BRANCH  26  30
ATOM     30  O   UNL     1       3.039   4.138  32.623  0.00  0.00    -0.444 OA
BRANCH  30  31
ATOM     31  C   UNL     1       1.845   3.379  32.412  0.00  0.00    +0.292 C 
BRANCH  31  33
ATOM     32  N   UNL     1       0.811   4.331  30.372  0.00  0.00    -0.131 NA
ATOM     33  C   UNL     1       1.527   3.329  30.971  0.00  0.00    +0.120 A 
ATOM     34  C   UNL     1       1.861   2.385  30.024  0.00  0.00    +0.137 A 
ATOM     35  N   UNL     1       1.353   2.889  28.865  0.00  0.00    -0.251 N 
ATOM     36  N   UNL     1       0.717   4.055  29.078  0.00  0.00    -0.065 NA
BRANCH  35  37
ATOM     37  C   UNL     1       1.481   2.360  27.522  0.00  0.00    +0.150 C 
BRANCH  37  38
ATOM     38  C   UNL     1       2.118   3.368  26.578  0.00  0.00    +0.084 C 
BRANCH  38  39
ATOM     39  C   UNL     1       1.436   3.435  25.206  0.00  0.00    +0.252 C 
BRANCH  39  40
ATOM     40  O   UNL     1       1.500   2.161  24.560  0.00  0.00    -0.352 OA
BRANCH  40  41
ATOM     41  C   UNL     1       2.824   1.732  24.247  0.00  0.00    +0.159 C 
ATOM     42  C   UNL     1       2.890   0.223  24.372  0.00  0.00    +0.034 C 
ENDBRANCH  40  41
ENDBRANCH  39  40
BRANCH  39  43
ATOM     43  O   UNL     1       2.132   4.413  24.424  0.00  0.00    -0.352 OA
BRANCH  43  44
ATOM     44  C   UNL     1       1.287   5.044  23.459  0.00  0.00    +0.159 C 
ATOM     45  C   UNL     1       1.740   4.649  22.068  0.00  0.00    +0.034 C 
ENDBRANCH  43  44
ENDBRANCH  39  43
ENDBRANCH  38  39
ENDBRANCH  37  38
ENDBRANCH  35  37
ENDBRANCH  31  33
ENDBRANCH  30  31
ENDBRANCH  26  30
ENDBRANCH  25  28
ENDBRANCH   1  25
TORSDOF 20
