REMARK VINA RESULT:    -6.145      6.196      9.342
REMARK INTER + INTRA:         -12.272
REMARK INTER:                 -10.657
REMARK INTRA:                  -1.614
REMARK UNBOUND:                -1.636
REMARK  Name = lig_assembled_52.pdb
REMARK  16 active torsions:
REMARK  status: ('A' for Active; 'I' for Inactive)
REMARK    1  A    between atoms: _2  and  _10
REMARK    2  A    between atoms: _5  and  _18
REMARK    3  A    between atoms: _7  and  _8
REMARK    4  A    between atoms: _7  and  _18
REMARK    5  A    between atoms: _14  and  _34
REMARK    6  A    between atoms: _16  and  _22
REMARK    7  A    between atoms: _17  and  _21
REMARK    8  A    between atoms: _21  and  _22
REMARK    9  A    between atoms: _24  and  _25
REMARK   10  A    between atoms: _26  and  _27
REMARK   11  A    between atoms: _28  and  _30
REMARK   12  A    between atoms: _30  and  _31
REMARK   13  A    between atoms: _30  and  _32
REMARK   14  A    between atoms: _32  and  _33
REMARK   15  A    between atoms: _32  and  _34
REMARK   16  A    between atoms: _35  and  _37
REMARK                            x       y       z     vdW  Elec       q    Type
REMARK                         _______ _______ _______ _____ _____    ______ ____
ROOT
ATOM      1  C   UNL     1       9.705   2.889  34.747  0.00  0.00    +0.163 C 
ENDROOT
BRANCH   1   2
ATOM      2  O   UNL     1       9.391   2.053  33.621  0.00  0.00    -0.388 OA
ATOM      3  H   UNL     1      10.200   1.821  33.159  0.00  0.00    +0.210 HD
ENDBRANCH   1   2
BRANCH   1   4
ATOM      4  C   UNL     1      10.836   2.267  35.559  0.00  0.00    +0.141 C 
BRANCH   4   7
ATOM      5  C   UNL     1      13.087   3.224  35.206  0.00  0.00    +0.401 C 
ATOM      6  O   UNL     1      13.403   2.403  34.342  0.00  0.00    -0.226 OA
ATOM      7  N   UNL     1      11.909   3.231  35.832  0.00  0.00    -0.279 N 
ATOM      8  H   UNL     1      11.746   3.940  36.533  0.00  0.00    +0.152 HD
BRANCH   5   9
ATOM      9  O   UNL     1      14.025   4.237  35.578  0.00  0.00    -0.444 OA
BRANCH   9  10
ATOM     10  C   UNL     1      15.331   3.867  35.128  0.00  0.00    +0.292 C 
BRANCH  10  12
ATOM     11  N   UNL     1      17.331   4.953  34.159  0.00  0.00    -0.131 NA
ATOM     12  C   UNL     1      16.036   5.042  34.582  0.00  0.00    +0.121 A 
ATOM     13  C   UNL     1      15.592   6.331  34.397  0.00  0.00    +0.143 A 
ATOM     14  N   UNL     1      16.656   6.997  33.833  0.00  0.00    -0.218 N 
ATOM     15  N   UNL     1      17.701   6.145  33.709  0.00  0.00    -0.060 NA
BRANCH  14  16
ATOM     16  C   UNL     1      16.730   8.340  33.407  0.00  0.00    +0.085 A 
ATOM     17  C   UNL     1      16.418   9.405  34.256  0.00  0.00    +0.031 A 
ATOM     18  C   UNL     1      16.490  10.709  33.768  0.00  0.00    +0.022 A 
ATOM     19  C   UNL     1      16.874  10.902  32.452  0.00  0.00    +0.111 A 
ATOM     20  N   UNL     1      17.190   9.894  31.610  0.00  0.00    -0.261 NA
ATOM     21  C   UNL     1      17.112   8.634  32.103  0.00  0.00    +0.138 A 
ENDBRANCH  14  16
ENDBRANCH  10  12
ENDBRANCH   9  10
ENDBRANCH   5   9
ENDBRANCH   4   7
ENDBRANCH   1   4
BRANCH   1  22
ATOM     22  C   UNL     1       8.473   3.084  35.647  0.00  0.00    +0.175 C 
BRANCH  22  23
ATOM     23  C   UNL     1       7.710   4.374  35.311  0.00  0.00    +0.176 C 
ATOM     24  O   UNL     1       7.480   5.094  36.553  0.00  0.00    -0.332 OA
ATOM     25  C   UNL     1       6.852   6.411  36.415  0.00  0.00    +0.277 C 
ATOM     26  C   UNL     1       5.527   6.299  35.623  0.00  0.00    +0.110 C 
ATOM     27  C   UNL     1       5.715   5.512  34.308  0.00  0.00    +0.143 C 
ATOM     28  C   UNL     1       6.379   4.160  34.568  0.00  0.00    +0.133 C 
BRANCH  28  29
ATOM     29  N   UNL     1       6.631   3.458  33.299  0.00  0.00    -0.308 N 
ATOM     30  H   UNL     1       7.315   3.854  32.669  0.00  0.00    +0.149 HD
ATOM     31  C   UNL     1       6.016   2.332  32.927  0.00  0.00    +0.210 C 
ATOM     32  C   UNL     1       4.962   1.768  33.897  0.00  0.00    +0.109 C 
ATOM     33  O   UNL     1       6.259   1.758  31.865  0.00  0.00    -0.276 OA
ENDBRANCH  28  29
BRANCH  25  34
ATOM     34  C   UNL     1       7.799   7.397  35.699  0.00  0.00    +0.414 C 
ATOM     35  O   UNL     1       7.363   8.162  34.840  0.00  0.00    -0.240 OA
ATOM     36  O   UNL     1       8.998   7.425  35.979  0.00  0.00    -0.240 OA
ENDBRANCH  25  34
BRANCH  27  37
ATOM     37  O   UNL     1       4.446   5.302  33.687  0.00  0.00    -0.390 OA
ATOM     38  H   UNL     1       4.285   5.996  33.043  0.00  0.00    +0.210 HD
ENDBRANCH  27  37
BRANCH  25  39
ATOM     39  O   UNL     1       6.549   6.905  37.745  0.00  0.00    -0.343 OA
ATOM     40  C   UNL     1       5.441   6.244  38.406  0.00  0.00    +0.198 C 
ENDBRANCH  25  39
ENDBRANCH  22  23
BRANCH  22  41
ATOM     41  O   UNL     1       8.867   3.087  37.034  0.00  0.00    -0.387 OA
ATOM     42  H   UNL     1       9.812   3.242  37.098  0.00  0.00    +0.210 HD
ENDBRANCH  22  41
ENDBRANCH   1  22
TORSDOF 14
