REMARK VINA RESULT:    -6.582     14.435     16.392
REMARK INTER + INTRA:         -13.510
REMARK INTER:                 -10.973
REMARK INTRA:                  -2.538
REMARK UNBOUND:                -2.118
REMARK  Name = lig_assembled_7.pdb
REMARK  19 active torsions:
REMARK  status: ('A' for Active; 'I' for Inactive)
REMARK    1  A    between atoms: _2  and  _9
REMARK    2  A    between atoms: _4  and  _21
REMARK    3  A    between atoms: _5  and  _16
REMARK    4  A    between atoms: _6  and  _7
REMARK    5  A    between atoms: _6  and  _21
REMARK    6  A    between atoms: _10  and  _11
REMARK    7  A    between atoms: _13  and  _14
REMARK    8  A    between atoms: _17  and  _37
REMARK    9  A    between atoms: _19  and  _25
REMARK   10  A    between atoms: _20  and  _24
REMARK   11  A    between atoms: _24  and  _25
REMARK   12  A    between atoms: _27  and  _28
REMARK   13  A    between atoms: _29  and  _30
REMARK   14  A    between atoms: _31  and  _33
REMARK   15  A    between atoms: _33  and  _34
REMARK   16  A    between atoms: _33  and  _35
REMARK   17  A    between atoms: _35  and  _36
REMARK   18  A    between atoms: _35  and  _37
REMARK   19  A    between atoms: _38  and  _40
REMARK                            x       y       z     vdW  Elec       q    Type
REMARK                         _______ _______ _______ _____ _____    ______ ____
ROOT
ATOM      1  C   UNL     1      17.253   3.422  22.928  0.00  0.00    +0.163 C 
ENDROOT
BRANCH   1   2
ATOM      2  O   UNL     1      15.962   3.080  23.459  0.00  0.00    -0.388 OA
ATOM      3  H   UNL     1      15.849   2.127  23.437  0.00  0.00    +0.210 HD
ENDBRANCH   1   2
BRANCH   1   4
ATOM      4  C   UNL     1      17.469   2.721  21.590  0.00  0.00    +0.141 C 
BRANCH   4   7
ATOM      5  C   UNL     1      18.695   0.593  21.320  0.00  0.00    +0.401 C 
ATOM      6  O   UNL     1      19.648   1.108  20.730  0.00  0.00    -0.226 OA
ATOM      7  N   UNL     1      17.631   1.271  21.752  0.00  0.00    -0.279 N 
ATOM      8  H   UNL     1      16.895   0.758  22.217  0.00  0.00    +0.152 HD
BRANCH   5   9
ATOM      9  O   UNL     1      18.708  -0.816  21.563  0.00  0.00    -0.444 OA
BRANCH   9  10
ATOM     10  C   UNL     1      18.758  -1.058  22.971  0.00  0.00    +0.292 C 
BRANCH  10  12
ATOM     11  N   UNL     1      16.430  -1.241  23.759  0.00  0.00    -0.131 NA
ATOM     12  C   UNL     1      17.590  -1.851  23.396  0.00  0.00    +0.121 A 
ATOM     13  C   UNL     1      17.426  -3.218  23.501  0.00  0.00    +0.143 A 
ATOM     14  N   UNL     1      16.146  -3.397  23.984  0.00  0.00    -0.219 N 
ATOM     15  N   UNL     1      15.556  -2.179  24.084  0.00  0.00    -0.060 NA
BRANCH  14  16
ATOM     16  C   UNL     1      15.463  -4.606  24.335  0.00  0.00    +0.073 A 
ATOM     17  C   UNL     1      15.427  -5.019  25.701  0.00  0.00    -0.024 A 
ATOM     18  C   UNL     1      14.756  -6.208  26.057  0.00  0.00    +0.008 A 
ATOM     19  C   UNL     1      14.111  -6.994  25.104  0.00  0.00    -0.050 A 
ATOM     20  C   UNL     1      13.405  -8.250  25.516  0.00  0.00    +0.044 C 
ATOM     21  C   UNL     1      14.147  -6.587  23.773  0.00  0.00    +0.008 A 
ATOM     22  C   UNL     1      16.027  -4.237  26.850  0.00  0.00    +0.046 C 
ATOM     23  C   UNL     1      14.828  -5.418  23.359  0.00  0.00    -0.024 A 
ATOM     24  C   UNL     1      14.850  -5.228  21.864  0.00  0.00    +0.046 C 
ENDBRANCH  14  16
ENDBRANCH  10  12
ENDBRANCH   9  10
ENDBRANCH   5   9
ENDBRANCH   4   7
ENDBRANCH   1   4
BRANCH   1  25
ATOM     25  C   UNL     1      18.373   3.023  23.904  0.00  0.00    +0.175 C 
BRANCH  25  26
ATOM     26  C   UNL     1      18.406   3.926  25.146  0.00  0.00    +0.176 C 
ATOM     27  O   UNL     1      19.716   4.555  25.207  0.00  0.00    -0.332 OA
ATOM     28  C   UNL     1      19.897   5.541  26.277  0.00  0.00    +0.277 C 
ATOM     29  C   UNL     1      19.551   4.917  27.651  0.00  0.00    +0.110 C 
ATOM     30  C   UNL     1      18.180   4.209  27.626  0.00  0.00    +0.143 C 
ATOM     31  C   UNL     1      18.100   3.208  26.473  0.00  0.00    +0.133 C 
BRANCH  31  32
ATOM     32  N   UNL     1      16.760   2.604  26.407  0.00  0.00    -0.308 N 
ATOM     33  H   UNL     1      15.969   3.222  26.290  0.00  0.00    +0.149 HD
ATOM     34  C   UNL     1      16.520   1.293  26.492  0.00  0.00    +0.210 C 
ATOM     35  C   UNL     1      17.744   0.380  26.697  0.00  0.00    +0.109 C 
ATOM     36  O   UNL     1      15.388   0.814  26.419  0.00  0.00    -0.276 OA
ENDBRANCH  31  32
BRANCH  28  37
ATOM     37  C   UNL     1      19.010   6.779  26.035  0.00  0.00    +0.414 C 
ATOM     38  O   UNL     1      18.460   6.946  24.947  0.00  0.00    -0.240 OA
ATOM     39  O   UNL     1      18.844   7.612  26.927  0.00  0.00    -0.240 OA
ENDBRANCH  28  37
BRANCH  30  40
ATOM     40  O   UNL     1      17.970   3.522  28.861  0.00  0.00    -0.390 OA
ATOM     41  H   UNL     1      17.069   3.192  28.895  0.00  0.00    +0.210 HD
ENDBRANCH  30  40
BRANCH  28  42
ATOM     42  O   UNL     1      21.293   5.935  26.292  0.00  0.00    -0.343 OA
ATOM     43  C   UNL     1      22.211   4.921  26.774  0.00  0.00    +0.198 C 
ENDBRANCH  28  42
ENDBRANCH  25  26
BRANCH  25  44
ATOM     44  O   UNL     1      19.649   3.053  23.234  0.00  0.00    -0.387 OA
ATOM     45  H   UNL     1      19.538   2.781  22.320  0.00  0.00    +0.210 HD
ENDBRANCH  25  44
ENDBRANCH   1  25
TORSDOF 14
