REMARK VINA RESULT:    -6.837      1.740      2.521
REMARK INTER + INTRA:         -13.865
REMARK INTER:                 -12.482
REMARK INTRA:                  -1.382
REMARK UNBOUND:                -2.031
REMARK  Name = lig_assembled_42.pdb
REMARK  16 active torsions:
REMARK  status: ('A' for Active; 'I' for Inactive)
REMARK    1  A    between atoms: _2  and  _9
REMARK    2  A    between atoms: _4  and  _21
REMARK    3  A    between atoms: _6  and  _7
REMARK    4  A    between atoms: _6  and  _21
REMARK    5  A    between atoms: _17  and  _37
REMARK    6  A    between atoms: _19  and  _25
REMARK    7  A    between atoms: _20  and  _24
REMARK    8  A    between atoms: _24  and  _25
REMARK    9  A    between atoms: _27  and  _28
REMARK   10  A    between atoms: _29  and  _30
REMARK   11  A    between atoms: _31  and  _33
REMARK   12  A    between atoms: _33  and  _34
REMARK   13  A    between atoms: _33  and  _35
REMARK   14  A    between atoms: _35  and  _36
REMARK   15  A    between atoms: _35  and  _37
REMARK   16  A    between atoms: _38  and  _40
REMARK                            x       y       z     vdW  Elec       q    Type
REMARK                         _______ _______ _______ _____ _____    ______ ____
ROOT
ATOM      1  C   UNL     1       6.314   2.935  33.171  0.00  0.00    +0.163 C 
ENDROOT
BRANCH   1   2
ATOM      2  O   UNL     1       6.203   2.752  31.750  0.00  0.00    -0.388 OA
ATOM      3  H   UNL     1       7.017   2.370  31.412  0.00  0.00    +0.210 HD
ENDBRANCH   1   2
BRANCH   1   4
ATOM      4  C   UNL     1       5.088   3.674  33.699  0.00  0.00    +0.141 C 
BRANCH   4   7
ATOM      5  C   UNL     1       2.918   3.524  32.527  0.00  0.00    +0.401 C 
ATOM      6  O   UNL     1       2.437   2.715  33.324  0.00  0.00    -0.226 OA
ATOM      7  N   UNL     1       4.152   4.020  32.622  0.00  0.00    -0.279 N 
ATOM      8  H   UNL     1       4.460   4.671  31.914  0.00  0.00    +0.152 HD
BRANCH   5   9
ATOM      9  O   UNL     1       2.124   3.967  31.423  0.00  0.00    -0.444 OA
BRANCH   9  10
ATOM     10  C   UNL     1       1.648   2.834  30.692  0.00  0.00    +0.292 C 
BRANCH  10  12
ATOM     11  N   UNL     1       0.057   3.909  29.121  0.00  0.00    -0.131 NA
ATOM     12  C   UNL     1       1.222   3.234  29.337  0.00  0.00    +0.121 A 
ATOM     13  C   UNL     1       1.849   3.027  28.133  0.00  0.00    +0.143 A 
ATOM     14  N   UNL     1       1.024   3.600  27.194  0.00  0.00    -0.220 N 
ATOM     15  N   UNL     1      -0.059   4.129  27.816  0.00  0.00    -0.060 NA
BRANCH  14  16
ATOM     16  C   UNL     1       1.203   3.664  25.790  0.00  0.00    +0.071 A 
ATOM     17  C   UNL     1       0.487   4.603  25.033  0.00  0.00    +0.077 A 
ATOM     18  C   UNL     1       0.696   4.626  23.671  0.00  0.00    +0.168 A 
ATOM     19  O   UNL     1       0.087   5.473  22.800  0.00  0.00    -0.453 OA
ATOM     20  C   UNL     1       0.684   5.054  21.556  0.00  0.00    +0.466 C 
ATOM     21  O   UNL     1       1.623   3.967  21.708  0.00  0.00    -0.453 OA
ATOM     22  C   UNL     1       1.572   3.768  23.052  0.00  0.00    +0.166 A 
ATOM     23  C   UNL     1       2.291   2.832  23.762  0.00  0.00    +0.051 A 
ATOM     24  C   UNL     1       2.105   2.779  25.151  0.00  0.00    +0.031 A 
ENDBRANCH  14  16
ENDBRANCH  10  12
ENDBRANCH   9  10
ENDBRANCH   5   9
ENDBRANCH   4   7
ENDBRANCH   1   4
BRANCH   1  25
ATOM     25  C   UNL     1       7.584   3.727  33.527  0.00  0.00    +0.175 C 
BRANCH  25  26
ATOM     26  C   UNL     1       7.519   4.317  34.943  0.00  0.00    +0.176 C 
ATOM     27  O   UNL     1       7.563   5.766  34.826  0.00  0.00    -0.332 OA
ATOM     28  C   UNL     1       7.404   6.509  36.080  0.00  0.00    +0.277 C 
ATOM     29  C   UNL     1       8.446   6.036  37.124  0.00  0.00    +0.110 C 
ATOM     30  C   UNL     1       8.459   4.499  37.260  0.00  0.00    +0.143 C 
ATOM     31  C   UNL     1       8.626   3.829  35.896  0.00  0.00    +0.133 C 
BRANCH  31  32
ATOM     32  N   UNL     1       8.549   2.365  36.029  0.00  0.00    -0.308 N 
ATOM     33  H   UNL     1       7.734   1.974  36.479  0.00  0.00    +0.149 HD
ATOM     34  C   UNL     1       9.487   1.520  35.592  0.00  0.00    +0.210 C 
ATOM     35  C   UNL     1      10.729   2.148  34.934  0.00  0.00    +0.109 C 
ATOM     36  O   UNL     1       9.389   0.297  35.704  0.00  0.00    -0.276 OA
ENDBRANCH  31  32
BRANCH  28  37
ATOM     37  C   UNL     1       5.983   6.323  36.650  0.00  0.00    +0.414 C 
ATOM     38  O   UNL     1       5.017   6.240  35.892  0.00  0.00    -0.240 OA
ATOM     39  O   UNL     1       5.802   6.255  37.866  0.00  0.00    -0.240 OA
ENDBRANCH  28  37
BRANCH  30  40
ATOM     40  O   UNL     1       9.531   4.100  38.115  0.00  0.00    -0.390 OA
ATOM     41  H   UNL     1       9.754   4.822  38.708  0.00  0.00    +0.210 HD
ENDBRANCH  30  40
BRANCH  28  42
ATOM     42  O   UNL     1       7.639   7.913  35.803  0.00  0.00    -0.343 OA
ATOM     43  C   UNL     1       7.721   8.254  34.396  0.00  0.00    +0.198 C 
ENDBRANCH  28  42
ENDBRANCH  25  26
BRANCH  25  44
ATOM     44  O   UNL     1       7.802   4.775  32.561  0.00  0.00    -0.387 OA
ATOM     45  H   UNL     1       7.078   5.404  32.602  0.00  0.00    +0.210 HD
ENDBRANCH  25  44
ENDBRANCH   1  25
TORSDOF 14
