REMARK VINA RESULT:    -6.411      3.572      8.826
REMARK INTER + INTRA:         -13.405
REMARK INTER:                 -11.472
REMARK INTRA:                  -1.933
REMARK UNBOUND:                -1.933
REMARK  Name = lig_assembled_39.pdb
REMARK  17 active torsions:
REMARK  status: ('A' for Active; 'I' for Inactive)
REMARK    1  A    between atoms: _2  and  _9
REMARK    2  A    between atoms: _4  and  _19
REMARK    3  A    between atoms: _6  and  _7
REMARK    4  A    between atoms: _6  and  _19
REMARK    5  A    between atoms: _9  and  _10
REMARK    6  A    between atoms: _15  and  _35
REMARK    7  A    between atoms: _17  and  _23
REMARK    8  A    between atoms: _18  and  _22
REMARK    9  A    between atoms: _22  and  _23
REMARK   10  A    between atoms: _25  and  _26
REMARK   11  A    between atoms: _27  and  _28
REMARK   12  A    between atoms: _29  and  _31
REMARK   13  A    between atoms: _31  and  _32
REMARK   14  A    between atoms: _31  and  _33
REMARK   15  A    between atoms: _33  and  _34
REMARK   16  A    between atoms: _33  and  _35
REMARK   17  A    between atoms: _36  and  _38
REMARK                            x       y       z     vdW  Elec       q    Type
REMARK                         _______ _______ _______ _____ _____    ______ ____
ROOT
ATOM      1  C   UNL     1      18.395   5.611  23.786  0.00  0.00    +0.163 C 
ENDROOT
BRANCH   1   2
ATOM      2  O   UNL     1      17.400   5.564  22.750  0.00  0.00    -0.388 OA
ATOM      3  H   UNL     1      17.665   4.929  22.080  0.00  0.00    +0.210 HD
ENDBRANCH   1   2
BRANCH   1   4
ATOM      4  C   UNL     1      19.387   6.736  23.507  0.00  0.00    +0.141 C 
BRANCH   4   7
ATOM      5  C   UNL     1      20.534   7.814  25.411  0.00  0.00    +0.401 C 
ATOM      6  O   UNL     1      21.562   7.142  25.294  0.00  0.00    -0.226 OA
ATOM      7  N   UNL     1      19.466   7.686  24.623  0.00  0.00    -0.279 N 
ATOM      8  H   UNL     1      18.666   8.276  24.804  0.00  0.00    +0.152 HD
BRANCH   5   9
ATOM      9  O   UNL     1      20.459   8.792  26.451  0.00  0.00    -0.444 OA
BRANCH   9  10
ATOM     10  C   UNL     1      19.133   8.820  26.986  0.00  0.00    +0.292 C 
BRANCH  10  12
ATOM     11  N   UNL     1      18.940  10.629  28.665  0.00  0.00    -0.131 NA
ATOM     12  C   UNL     1      19.150   9.306  28.378  0.00  0.00    +0.120 A 
ATOM     13  C   UNL     1      19.335   8.614  29.554  0.00  0.00    +0.137 A 
ATOM     14  N   UNL     1      19.144   9.557  30.520  0.00  0.00    -0.247 N 
ATOM     15  N   UNL     1      18.968  10.778  29.982  0.00  0.00    -0.065 NA
BRANCH  14  16
ATOM     16  C   UNL     1      19.047   9.358  31.959  0.00  0.00    +0.181 C 
BRANCH  16  17
ATOM     17  C   UNL     1      17.621   9.156  32.441  0.00  0.00    -0.012 A 
ATOM     18  C   UNL     1      16.945   7.939  32.219  0.00  0.00    +0.006 A 
ATOM     19  C   UNL     1      15.631   7.742  32.652  0.00  0.00    +0.000 A 
ATOM     20  C   UNL     1      14.951   8.766  33.297  0.00  0.00    +0.001 A 
ATOM     21  C   UNL     1      15.579   9.994  33.492  0.00  0.00    +0.015 A 
ATOM     22  C   UNL     1      16.897  10.194  33.058  0.00  0.00    +0.023 A 
ATOM     23 BR   UNL     1      17.628  11.929  33.325  0.00  0.00    -0.050 Br
ENDBRANCH  16  17
ENDBRANCH  14  16
ENDBRANCH  10  12
ENDBRANCH   9  10
ENDBRANCH   5   9
ENDBRANCH   4   7
ENDBRANCH   1   4
BRANCH   1  24
ATOM     24  C   UNL     1      19.149   4.274  23.885  0.00  0.00    +0.175 C 
BRANCH  24  25
ATOM     25  C   UNL     1      18.381   3.238  24.719  0.00  0.00    +0.176 C 
ATOM     26  O   UNL     1      19.242   2.817  25.813  0.00  0.00    -0.332 OA
ATOM     27  C   UNL     1      18.633   1.901  26.782  0.00  0.00    +0.277 C 
ATOM     28  C   UNL     1      18.056   0.657  26.063  0.00  0.00    +0.110 C 
ATOM     29  C   UNL     1      17.159   1.054  24.871  0.00  0.00    +0.143 C 
ATOM     30  C   UNL     1      17.890   2.011  23.929  0.00  0.00    +0.133 C 
BRANCH  30  31
ATOM     31  N   UNL     1      16.997   2.449  22.845  0.00  0.00    -0.308 N 
ATOM     32  H   UNL     1      16.189   3.003  23.095  0.00  0.00    +0.149 HD
ATOM     33  C   UNL     1      17.183   2.164  21.554  0.00  0.00    +0.210 C 
ATOM     34  C   UNL     1      18.409   1.298  21.209  0.00  0.00    +0.109 C 
ATOM     35  O   UNL     1      16.426   2.558  20.666  0.00  0.00    -0.276 OA
ENDBRANCH  30  31
BRANCH  27  36
ATOM     36  C   UNL     1      17.511   2.606  27.572  0.00  0.00    +0.414 C 
ATOM     37  O   UNL     1      17.775   3.235  28.597  0.00  0.00    -0.240 OA
ATOM     38  O   UNL     1      16.343   2.547  27.185  0.00  0.00    -0.240 OA
ENDBRANCH  27  36
BRANCH  27  39
ATOM     39  O   UNL     1      19.671   1.460  27.696  0.00  0.00    -0.343 OA
ATOM     40  C   UNL     1      20.941   2.145  27.556  0.00  0.00    +0.198 C 
ENDBRANCH  27  39
BRANCH  29  41
ATOM     41  O   UNL     1      16.773  -0.116  24.148  0.00  0.00    -0.390 OA
ATOM     42  H   UNL     1      17.553  -0.636  23.941  0.00  0.00    +0.210 HD
ENDBRANCH  29  41
ENDBRANCH  24  25
BRANCH  24  43
ATOM     43  O   UNL     1      20.462   4.484  24.442  0.00  0.00    -0.387 OA
ATOM     44  H   UNL     1      21.085   3.879  24.032  0.00  0.00    +0.210 HD
ENDBRANCH  24  43
ENDBRANCH   1  24
TORSDOF 15
