REMARK VINA RESULT:    -5.966     13.081     17.798
REMARK INTER + INTRA:         -12.920
REMARK INTER:                 -10.920
REMARK INTRA:                  -2.000
REMARK UNBOUND:                -2.246
REMARK  Name = lig_assembled_5.pdb
REMARK  18 active torsions:
REMARK  status: ('A' for Active; 'I' for Inactive)
REMARK    1  A    between atoms: _2  and  _9
REMARK    2  A    between atoms: _4  and  _20
REMARK    3  A    between atoms: _6  and  _7
REMARK    4  A    between atoms: _6  and  _20
REMARK    5  A    between atoms: _12  and  _15
REMARK    6  A    between atoms: _13  and  _15
REMARK    7  A    between atoms: _16  and  _36
REMARK    8  A    between atoms: _18  and  _24
REMARK    9  A    between atoms: _19  and  _23
REMARK   10  A    between atoms: _23  and  _24
REMARK   11  A    between atoms: _26  and  _27
REMARK   12  A    between atoms: _28  and  _29
REMARK   13  A    between atoms: _30  and  _32
REMARK   14  A    between atoms: _32  and  _33
REMARK   15  A    between atoms: _32  and  _34
REMARK   16  A    between atoms: _34  and  _35
REMARK   17  A    between atoms: _34  and  _36
REMARK   18  A    between atoms: _37  and  _39
REMARK                            x       y       z     vdW  Elec       q    Type
REMARK                         _______ _______ _______ _____ _____    ______ ____
ROOT
ATOM      1  C   UNL     1      19.281   4.834  25.012  0.00  0.00    +0.163 C 
ENDROOT
BRANCH   1   2
ATOM      2  O   UNL     1      18.220   4.768  25.979  0.00  0.00    -0.388 OA
ATOM      3  H   UNL     1      18.563   4.990  26.848  0.00  0.00    +0.210 HD
ENDBRANCH   1   2
BRANCH   1   4
ATOM      4  C   UNL     1      19.296   6.206  24.347  0.00  0.00    +0.141 C 
BRANCH   4   7
ATOM      5  C   UNL     1      19.362   7.923  26.122  0.00  0.00    +0.401 C 
ATOM      6  O   UNL     1      20.560   7.763  26.363  0.00  0.00    -0.226 OA
ATOM      7  N   UNL     1      18.688   7.235  25.200  0.00  0.00    -0.279 N 
ATOM      8  H   UNL     1      17.704   7.432  25.082  0.00  0.00    +0.152 HD
BRANCH   5   9
ATOM      9  O   UNL     1      18.628   8.899  26.866  0.00  0.00    -0.444 OA
BRANCH   9  10
ATOM     10  C   UNL     1      19.426   9.367  27.957  0.00  0.00    +0.292 C 
BRANCH  10  12
ATOM     11  N   UNL     1      18.000  10.246  29.778  0.00  0.00    -0.131 NA
ATOM     12  C   UNL     1      18.697   9.209  29.230  0.00  0.00    +0.121 A 
ATOM     13  C   UNL     1      18.572   8.105  30.040  0.00  0.00    +0.143 A 
ATOM     14  N   UNL     1      17.756   8.511  31.072  0.00  0.00    -0.220 N 
ATOM     15  N   UNL     1      17.437   9.818  30.900  0.00  0.00    -0.060 NA
BRANCH  14  16
ATOM     16  C   UNL     1      17.253   7.749  32.159  0.00  0.00    +0.067 A 
ATOM     17  C   UNL     1      17.830   6.521  32.501  0.00  0.00    +0.031 A 
ATOM     18  C   UNL     1      17.282   5.758  33.535  0.00  0.00    +0.048 A 
ATOM     19  C   UNL     1      16.173   6.213  34.251  0.00  0.00    +0.120 A 
ATOM     20  C   UNL     1      15.606   7.443  33.924  0.00  0.00    +0.048 A 
ATOM     21  C   UNL     1      16.142   8.211  32.881  0.00  0.00    +0.031 A 
BRANCH  19  22
ATOM     22  O   UNL     1      15.701   5.342  35.194  0.00  0.00    -0.495 OA
ATOM     23  C   UNL     1      14.524   5.738  35.885  0.00  0.00    +0.277 C 
ENDBRANCH  19  22
ENDBRANCH  14  16
ENDBRANCH  10  12
ENDBRANCH   9  10
ENDBRANCH   5   9
ENDBRANCH   4   7
ENDBRANCH   1   4
BRANCH   1  24
ATOM     24  C   UNL     1      19.115   3.744  23.939  0.00  0.00    +0.175 C 
BRANCH  24  25
ATOM     25  C   UNL     1      18.276   2.560  24.442  0.00  0.00    +0.176 C 
ATOM     26  O   UNL     1      18.778   2.180  25.752  0.00  0.00    -0.332 OA
ATOM     27  C   UNL     1      18.024   1.127  26.439  0.00  0.00    +0.277 C 
ATOM     28  C   UNL     1      17.907  -0.128  25.540  0.00  0.00    +0.110 C 
ATOM     29  C   UNL     1      17.407   0.230  24.125  0.00  0.00    +0.143 C 
ATOM     30  C   UNL     1      18.260   1.338  23.505  0.00  0.00    +0.133 C 
BRANCH  30  31
ATOM     31  N   UNL     1      17.721   1.731  22.194  0.00  0.00    -0.308 N 
ATOM     32  H   UNL     1      16.830   2.208  22.173  0.00  0.00    +0.149 HD
ATOM     33  C   UNL     1      18.331   1.498  21.029  0.00  0.00    +0.210 C 
ATOM     34  C   UNL     1      19.673   0.745  21.092  0.00  0.00    +0.109 C 
ATOM     35  O   UNL     1      17.862   1.851  19.946  0.00  0.00    -0.276 OA
ENDBRANCH  30  31
BRANCH  27  36
ATOM     36  C   UNL     1      16.614   1.622  26.819  0.00  0.00    +0.414 C 
ATOM     37  O   UNL     1      15.642   0.876  26.705  0.00  0.00    -0.240 OA
ATOM     38  O   UNL     1      16.447   2.768  27.241  0.00  0.00    -0.240 OA
ENDBRANCH  27  36
BRANCH  27  39
ATOM     39  O   UNL     1      18.754   0.763  27.639  0.00  0.00    -0.343 OA
ATOM     40  C   UNL     1      19.774   1.710  28.047  0.00  0.00    +0.198 C 
ENDBRANCH  27  39
BRANCH  29  41
ATOM     41  O   UNL     1      17.458  -0.927  23.288  0.00  0.00    -0.390 OA
ATOM     42  H   UNL     1      16.576  -1.131  22.970  0.00  0.00    +0.210 HD
ENDBRANCH  29  41
ENDBRANCH  24  25
BRANCH  24  43
ATOM     43  O   UNL     1      20.408   3.283  23.496  0.00  0.00    -0.387 OA
ATOM     44  H   UNL     1      21.071   3.948  23.696  0.00  0.00    +0.210 HD
ENDBRANCH  24  43
ENDBRANCH   1  24
TORSDOF 15
