REMARK VINA RESULT:    -5.633     12.852     16.581
REMARK INTER + INTRA:         -13.213
REMARK INTER:                 -10.951
REMARK INTRA:                  -2.262
REMARK UNBOUND:                -2.970
REMARK  Name = lig_assembled_22.pdb
REMARK  20 active torsions:
REMARK  status: ('A' for Active; 'I' for Inactive)
REMARK    1  A    between atoms: _2  and  _9
REMARK    2  A    between atoms: _4  and  _18
REMARK    3  A    between atoms: _5  and  _9
REMARK    4  A    between atoms: _5  and  _12
REMARK    5  A    between atoms: _6  and  _7
REMARK    6  A    between atoms: _6  and  _18
REMARK    7  A    between atoms: _9  and  _10
REMARK    8  A    between atoms: _9  and  _11
REMARK    9  A    between atoms: _14  and  _34
REMARK   10  A    between atoms: _16  and  _22
REMARK   11  A    between atoms: _17  and  _21
REMARK   12  A    between atoms: _21  and  _22
REMARK   13  A    between atoms: _24  and  _25
REMARK   14  A    between atoms: _26  and  _27
REMARK   15  A    between atoms: _28  and  _30
REMARK   16  A    between atoms: _30  and  _31
REMARK   17  A    between atoms: _30  and  _32
REMARK   18  A    between atoms: _32  and  _33
REMARK   19  A    between atoms: _32  and  _34
REMARK   20  A    between atoms: _35  and  _37
REMARK                            x       y       z     vdW  Elec       q    Type
REMARK                         _______ _______ _______ _____ _____    ______ ____
ROOT
ATOM      1  C   UNL     1       7.873   2.366  34.192  0.00  0.00    +0.163 C 
ENDROOT
BRANCH   1   2
ATOM      2  O   UNL     1       8.721   2.575  35.333  0.00  0.00    -0.388 OA
ATOM      3  H   UNL     1       9.555   2.119  35.200  0.00  0.00    +0.210 HD
ENDBRANCH   1   2
BRANCH   1   4
ATOM      4  C   UNL     1       8.378   1.181  33.377  0.00  0.00    +0.141 C 
BRANCH   4   7
ATOM      5  C   UNL     1       7.073  -0.877  32.964  0.00  0.00    +0.401 C 
ATOM      6  O   UNL     1       7.794  -1.587  33.669  0.00  0.00    -0.226 OA
ATOM      7  N   UNL     1       7.276   0.426  32.767  0.00  0.00    -0.279 N 
ATOM      8  H   UNL     1       6.635   0.923  32.163  0.00  0.00    +0.152 HD
BRANCH   5   9
ATOM      9  O   UNL     1       5.948  -1.465  32.306  0.00  0.00    -0.444 OA
BRANCH   9  10
ATOM     10  C   UNL     1       5.608  -0.687  31.155  0.00  0.00    +0.292 C 
BRANCH  10  12
ATOM     11  N   UNL     1       7.428  -1.609  29.764  0.00  0.00    -0.131 NA
ATOM     12  C   UNL     1       6.097  -1.346  29.930  0.00  0.00    +0.120 A 
ATOM     13  C   UNL     1       5.411  -1.787  28.819  0.00  0.00    +0.138 A 
ATOM     14  N   UNL     1       6.381  -2.310  28.010  0.00  0.00    -0.235 N 
ATOM     15  N   UNL     1       7.592  -2.194  28.589  0.00  0.00    -0.064 NA
BRANCH  14  16
ATOM     16  C   UNL     1       6.258  -2.913  26.682  0.00  0.00    +0.155 C 
ATOM     17  C   UNL     1       5.707  -1.916  25.639  0.00  0.00    +0.048 C 
ATOM     18  C   UNL     1       5.292  -4.109  26.769  0.00  0.00    +0.048 C 
BRANCH  16  19
ATOM     19  C   UNL     1       7.625  -3.391  26.185  0.00  0.00    +0.332 C 
ATOM     20  O   UNL     1       8.050  -4.531  26.330  0.00  0.00    -0.248 OA
BRANCH  19  21
ATOM     21  O   UNL     1       8.371  -2.454  25.551  0.00  0.00    -0.479 OA
ATOM     22  H   UNL     1       9.305  -2.380  25.830  0.00  0.00    +0.295 HD
ENDBRANCH  19  21
ENDBRANCH  16  19
ENDBRANCH  14  16
ENDBRANCH  10  12
ENDBRANCH   9  10
ENDBRANCH   5   9
ENDBRANCH   4   7
ENDBRANCH   1   4
BRANCH   1  23
ATOM     23  C   UNL     1       7.829   3.621  33.302  0.00  0.00    +0.175 C 
BRANCH  23  24
ATOM     24  C   UNL     1       6.949   4.726  33.905  0.00  0.00    +0.176 C 
ATOM     25  O   UNL     1       7.679   5.327  35.009  0.00  0.00    -0.332 OA
ATOM     26  C   UNL     1       7.034   6.480  35.643  0.00  0.00    +0.277 C 
ATOM     27  C   UNL     1       5.601   6.114  36.101  0.00  0.00    +0.110 C 
ATOM     28  C   UNL     1       4.795   5.443  34.969  0.00  0.00    +0.143 C 
ATOM     29  C   UNL     1       5.561   4.258  34.379  0.00  0.00    +0.133 C 
BRANCH  29  30
ATOM     30  N   UNL     1       4.822   3.681  33.245  0.00  0.00    -0.308 N 
ATOM     31  H   UNL     1       4.740   4.235  32.404  0.00  0.00    +0.149 HD
ATOM     32  C   UNL     1       4.254   2.472  33.253  0.00  0.00    +0.210 C 
ATOM     33  C   UNL     1       4.375   1.662  34.557  0.00  0.00    +0.109 C 
ATOM     34  O   UNL     1       3.654   2.008  32.283  0.00  0.00    -0.276 OA
ENDBRANCH  29  30
BRANCH  26  35
ATOM     35  C   UNL     1       6.974   7.677  34.671  0.00  0.00    +0.414 C 
ATOM     36  O   UNL     1       8.012   8.201  34.269  0.00  0.00    -0.240 OA
ATOM     37  O   UNL     1       5.889   8.117  34.289  0.00  0.00    -0.240 OA
ENDBRANCH  26  35
BRANCH  26  38
ATOM     38  O   UNL     1       7.810   6.841  36.815  0.00  0.00    -0.343 OA
ATOM     39  C   UNL     1       8.998   6.038  37.033  0.00  0.00    +0.198 C 
ENDBRANCH  26  38
BRANCH  28  40
ATOM     40  O   UNL     1       3.540   4.987  35.476  0.00  0.00    -0.390 OA
ATOM     41  H   UNL     1       3.187   4.308  34.896  0.00  0.00    +0.210 HD
ENDBRANCH  28  40
ENDBRANCH  23  24
BRANCH  23  42
ATOM     42  O   UNL     1       7.361   3.277  31.983  0.00  0.00    -0.387 OA
ATOM     43  H   UNL     1       7.074   4.072  31.527  0.00  0.00    +0.210 HD
ENDBRANCH  23  42
ENDBRANCH   1  23
TORSDOF 16
