REMARK VINA RESULT:    -6.390     19.701     24.495
REMARK INTER + INTRA:         -13.178
REMARK INTER:                 -11.220
REMARK INTRA:                  -1.957
REMARK UNBOUND:                -2.118
REMARK  Name = lig_assembled_7.pdb
REMARK  19 active torsions:
REMARK  status: ('A' for Active; 'I' for Inactive)
REMARK    1  A    between atoms: _2  and  _9
REMARK    2  A    between atoms: _4  and  _21
REMARK    3  A    between atoms: _5  and  _16
REMARK    4  A    between atoms: _6  and  _7
REMARK    5  A    between atoms: _6  and  _21
REMARK    6  A    between atoms: _10  and  _11
REMARK    7  A    between atoms: _13  and  _14
REMARK    8  A    between atoms: _17  and  _37
REMARK    9  A    between atoms: _19  and  _25
REMARK   10  A    between atoms: _20  and  _24
REMARK   11  A    between atoms: _24  and  _25
REMARK   12  A    between atoms: _27  and  _28
REMARK   13  A    between atoms: _29  and  _30
REMARK   14  A    between atoms: _31  and  _33
REMARK   15  A    between atoms: _33  and  _34
REMARK   16  A    between atoms: _33  and  _35
REMARK   17  A    between atoms: _35  and  _36
REMARK   18  A    between atoms: _35  and  _37
REMARK   19  A    between atoms: _38  and  _40
REMARK                            x       y       z     vdW  Elec       q    Type
REMARK                         _______ _______ _______ _____ _____    ______ ____
ROOT
ATOM      1  C   UNL     1       5.319  23.590  16.242  0.00  0.00    +0.163 C 
ENDROOT
BRANCH   1   2
ATOM      2  O   UNL     1       5.235  22.169  16.437  0.00  0.00    -0.388 OA
ATOM      3  H   UNL     1       6.113  21.815  16.600  0.00  0.00    +0.210 HD
ENDBRANCH   1   2
BRANCH   1   4
ATOM      4  C   UNL     1       5.100  24.313  17.566  0.00  0.00    +0.141 C 
BRANCH   4   7
ATOM      5  C   UNL     1       3.022  23.632  18.717  0.00  0.00    +0.401 C 
ATOM      6  O   UNL     1       2.318  24.463  18.139  0.00  0.00    -0.226 OA
ATOM      7  N   UNL     1       4.333  23.496  18.515  0.00  0.00    -0.279 N 
ATOM      8  H   UNL     1       4.827  22.792  19.045  0.00  0.00    +0.152 HD
BRANCH   5   9
ATOM      9  O   UNL     1       2.418  22.753  19.670  0.00  0.00    -0.444 OA
BRANCH   9  10
ATOM     10  C   UNL     1       1.063  23.152  19.896  0.00  0.00    +0.292 C 
BRANCH  10  12
ATOM     11  N   UNL     1      -0.269  21.523  18.611  0.00  0.00    -0.131 NA
ATOM     12  C   UNL     1       0.166  21.984  19.815  0.00  0.00    +0.121 A 
ATOM     13  C   UNL     1      -0.362  21.189  20.813  0.00  0.00    +0.143 A 
ATOM     14  N   UNL     1      -1.163  20.272  20.164  0.00  0.00    -0.219 N 
ATOM     15  N   UNL     1      -1.045  20.475  18.828  0.00  0.00    -0.060 NA
BRANCH  14  16
ATOM     16  C   UNL     1      -1.996  19.241  20.708  0.00  0.00    +0.073 A 
ATOM     17  C   UNL     1      -3.376  19.516  20.957  0.00  0.00    -0.024 A 
ATOM     18  C   UNL     1      -4.205  18.506  21.492  0.00  0.00    +0.008 A 
ATOM     19  C   UNL     1      -3.713  17.235  21.778  0.00  0.00    -0.050 A 
ATOM     20  C   UNL     1      -4.622  16.185  22.343  0.00  0.00    +0.044 C 
ATOM     21  C   UNL     1      -2.368  16.971  21.532  0.00  0.00    +0.008 A 
ATOM     22  C   UNL     1      -4.061  20.827  20.638  0.00  0.00    +0.046 C 
ATOM     23  C   UNL     1      -1.488  17.954  21.022  0.00  0.00    -0.024 A 
ATOM     24  C   UNL     1      -0.052  17.501  20.949  0.00  0.00    +0.046 C 
ENDBRANCH  14  16
ENDBRANCH  10  12
ENDBRANCH   9  10
ENDBRANCH   5   9
ENDBRANCH   4   7
ENDBRANCH   1   4
BRANCH   1  25
ATOM     25  C   UNL     1       4.275  24.066  15.217  0.00  0.00    +0.175 C 
BRANCH  25  26
ATOM     26  C   UNL     1       4.383  23.308  13.886  0.00  0.00    +0.176 C 
ATOM     27  O   UNL     1       3.873  21.963  14.095  0.00  0.00    -0.332 OA
ATOM     28  C   UNL     1       3.799  21.119  12.898  0.00  0.00    +0.277 C 
ATOM     29  C   UNL     1       5.179  21.052  12.198  0.00  0.00    +0.110 C 
ATOM     30  C   UNL     1       5.777  22.458  11.983  0.00  0.00    +0.143 C 
ATOM     31  C   UNL     1       5.803  23.250  13.291  0.00  0.00    +0.133 C 
BRANCH  31  32
ATOM     32  N   UNL     1       6.293  24.617  13.056  0.00  0.00    -0.308 N 
ATOM     33  H   UNL     1       5.708  25.243  12.521  0.00  0.00    +0.149 HD
ATOM     34  C   UNL     1       7.462  25.085  13.504  0.00  0.00    +0.210 C 
ATOM     35  C   UNL     1       8.342  24.098  14.295  0.00  0.00    +0.109 C 
ATOM     36  O   UNL     1       7.840  26.240  13.305  0.00  0.00    -0.276 OA
ENDBRANCH  31  32
BRANCH  28  37
ATOM     37  C   UNL     1       2.746  21.661  11.911  0.00  0.00    +0.414 C 
ATOM     38  O   UNL     1       1.894  22.464  12.291  0.00  0.00    -0.240 OA
ATOM     39  O   UNL     1       2.747  21.297  10.734  0.00  0.00    -0.240 OA
ENDBRANCH  28  37
BRANCH  30  40
ATOM     40  O   UNL     1       7.107  22.344  11.476  0.00  0.00    -0.390 OA
ATOM     41  H   UNL     1       7.727  22.305  12.208  0.00  0.00    +0.210 HD
ENDBRANCH  30  40
BRANCH  28  42
ATOM     42  O   UNL     1       3.433  19.779  13.316  0.00  0.00    -0.343 OA
ATOM     43  C   UNL     1       4.527  18.828  13.353  0.00  0.00    +0.198 C 
ENDBRANCH  28  42
ENDBRANCH  25  26
BRANCH  25  44
ATOM     44  O   UNL     1       4.410  25.484  14.993  0.00  0.00    -0.387 OA
ATOM     45  H   UNL     1       4.702  25.910  15.803  0.00  0.00    +0.210 HD
ENDBRANCH  25  44
ENDBRANCH   1  25
TORSDOF 14
