REMARK VINA RESULT:    -6.139      8.356     13.158
REMARK INTER + INTRA:         -13.299
REMARK INTER:                 -11.474
REMARK INTRA:                  -1.825
REMARK UNBOUND:                -1.955
REMARK  Name = lig_assembled_78.pdb
REMARK  18 active torsions:
REMARK  status: ('A' for Active; 'I' for Inactive)
REMARK    1  A    between atoms: _2  and  _9
REMARK    2  A    between atoms: _4  and  _21
REMARK    3  A    between atoms: _6  and  _7
REMARK    4  A    between atoms: _6  and  _21
REMARK    5  A    between atoms: _9  and  _41
REMARK    6  A    between atoms: _10  and  _41
REMARK    7  A    between atoms: _17  and  _37
REMARK    8  A    between atoms: _19  and  _25
REMARK    9  A    between atoms: _20  and  _24
REMARK   10  A    between atoms: _24  and  _25
REMARK   11  A    between atoms: _27  and  _28
REMARK   12  A    between atoms: _29  and  _30
REMARK   13  A    between atoms: _31  and  _33
REMARK   14  A    between atoms: _33  and  _34
REMARK   15  A    between atoms: _33  and  _35
REMARK   16  A    between atoms: _35  and  _36
REMARK   17  A    between atoms: _35  and  _37
REMARK   18  A    between atoms: _38  and  _40
REMARK                            x       y       z     vdW  Elec       q    Type
REMARK                         _______ _______ _______ _____ _____    ______ ____
ROOT
ATOM      1  C   UNL     1       1.443   3.544  22.036  0.00  0.00    +0.163 C 
ENDROOT
BRANCH   1   2
ATOM      2  O   UNL     1       2.169   2.308  22.135  0.00  0.00    -0.388 OA
ATOM      3  H   UNL     1       1.669   1.684  22.668  0.00  0.00    +0.210 HD
ENDBRANCH   1   2
BRANCH   1   4
ATOM      4  C   UNL     1       1.767   4.470  23.221  0.00  0.00    +0.175 C 
BRANCH   4   5
ATOM      5  C   UNL     1       1.043   4.039  24.505  0.00  0.00    +0.176 C 
ATOM      6  O   UNL     1       1.705   2.849  25.013  0.00  0.00    -0.332 OA
ATOM      7  C   UNL     1       1.213   2.351  26.302  0.00  0.00    +0.277 C 
ATOM      8  C   UNL     1      -0.316   2.115  26.243  0.00  0.00    +0.110 C 
ATOM      9  C   UNL     1      -1.060   3.343  25.678  0.00  0.00    +0.143 C 
ATOM     10  C   UNL     1      -0.465   3.778  24.338  0.00  0.00    +0.133 C 
BRANCH  10  11
ATOM     11  N   UNL     1      -1.125   5.000  23.853  0.00  0.00    -0.308 N 
ATOM     12  H   UNL     1      -0.970   5.856  24.367  0.00  0.00    +0.149 HD
ATOM     13  C   UNL     1      -1.916   5.052  22.778  0.00  0.00    +0.210 C 
ATOM     14  C   UNL     1      -2.153   3.726  22.031  0.00  0.00    +0.109 C 
ATOM     15  O   UNL     1      -2.444   6.093  22.386  0.00  0.00    -0.276 OA
ENDBRANCH  10  11
BRANCH   7  16
ATOM     16  C   UNL     1       1.538   3.349  27.433  0.00  0.00    +0.414 C 
ATOM     17  O   UNL     1       0.768   3.480  28.384  0.00  0.00    -0.240 OA
ATOM     18  O   UNL     1       2.568   4.022  27.395  0.00  0.00    -0.240 OA
ENDBRANCH   7  16
BRANCH   7  19
ATOM     19  O   UNL     1       1.862   1.081  26.570  0.00  0.00    -0.343 OA
ATOM     20  C   UNL     1       1.022   0.088  27.211  0.00  0.00    +0.198 C 
ENDBRANCH   7  19
BRANCH   9  21
ATOM     21  O   UNL     1      -2.442   3.029  25.500  0.00  0.00    -0.390 OA
ATOM     22  H   UNL     1      -2.662   2.248  26.013  0.00  0.00    +0.210 HD
ENDBRANCH   9  21
ENDBRANCH   4   5
BRANCH   4  23
ATOM     23  O   UNL     1       1.429   5.832  22.893  0.00  0.00    -0.387 OA
ATOM     24  H   UNL     1       0.522   6.009  23.154  0.00  0.00    +0.210 HD
ENDBRANCH   4  23
ENDBRANCH   1   4
BRANCH   1  25
ATOM     25  C   UNL     1       1.790   4.249  20.728  0.00  0.00    +0.141 C 
BRANCH  25  28
ATOM     26  C   UNL     1       1.676   3.272  18.461  0.00  0.00    +0.401 C 
ATOM     27  O   UNL     1       2.889   3.367  18.258  0.00  0.00    -0.226 OA
ATOM     28  N   UNL     1       1.076   3.665  19.586  0.00  0.00    -0.279 N 
ATOM     29  H   UNL     1       0.074   3.555  19.655  0.00  0.00    +0.152 HD
BRANCH  26  30
ATOM     30  O   UNL     1       0.843   2.713  17.443  0.00  0.00    -0.444 OA
BRANCH  30  31
ATOM     31  C   UNL     1       0.696   1.308  17.662  0.00  0.00    +0.292 C 
BRANCH  31  33
ATOM     32  N   UNL     1       1.394  -0.814  16.588  0.00  0.00    -0.131 NA
ATOM     33  C   UNL     1       1.489   0.550  16.676  0.00  0.00    +0.120 A 
ATOM     34  C   UNL     1       2.389   0.999  15.736  0.00  0.00    +0.139 A 
ATOM     35  N   UNL     1       2.760  -0.131  15.070  0.00  0.00    -0.230 N 
ATOM     36  N   UNL     1       2.197  -1.223  15.614  0.00  0.00    -0.064 NA
BRANCH  35  37
ATOM     37  C   UNL     1       3.693  -0.269  13.979  0.00  0.00    +0.316 C 
BRANCH  37  38
ATOM     38  S   UNL     1       5.316  -0.770  14.491  0.00  0.00    +0.017 S 
ATOM     39  O   UNL     1       5.955   0.303  15.225  0.00  0.00    -0.168 OA
ATOM     40  O   UNL     1       5.214  -2.104  15.057  0.00  0.00    -0.168 OA
BRANCH  38  41
ATOM     41  C   UNL     1       6.223  -0.923  12.966  0.00  0.00    +0.090 A 
ATOM     42  C   UNL     1       5.528  -1.184  11.781  0.00  0.00    +0.027 A 
ATOM     43  C   UNL     1       6.232  -1.279  10.581  0.00  0.00    +0.002 A 
ATOM     44  C   UNL     1       7.616  -1.096  10.566  0.00  0.00    +0.000 A 
ATOM     45  C   UNL     1       8.302  -0.816  11.749  0.00  0.00    +0.002 A 
ATOM     46  C   UNL     1       7.608  -0.729  12.956  0.00  0.00    +0.027 A 
ENDBRANCH  38  41
ENDBRANCH  37  38
ENDBRANCH  35  37
ENDBRANCH  31  33
ENDBRANCH  30  31
ENDBRANCH  26  30
ENDBRANCH  25  28
ENDBRANCH   1  25
TORSDOF 16
