REMARK VINA RESULT:    -6.315      2.031      3.819
REMARK INTER + INTRA:         -15.675
REMARK INTER:                 -14.300
REMARK INTRA:                  -1.375
REMARK UNBOUND:                -3.269
REMARK  Name = lig_assembled_84.pdb
REMARK  21 active torsions:
REMARK  status: ('A' for Active; 'I' for Inactive)
REMARK    1  A    between atoms: _2  and  _11
REMARK    2  A    between atoms: _3  and  _14
REMARK    3  A    between atoms: _4  and  _17
REMARK    4  A    between atoms: _6  and  _28
REMARK    5  A    between atoms: _8  and  _9
REMARK    6  A    between atoms: _8  and  _28
REMARK    7  A    between atoms: _11  and  _12
REMARK    8  A    between atoms: _12  and  _13
REMARK    9  A    between atoms: _12  and  _14
REMARK   10  A    between atoms: _24  and  _44
REMARK   11  A    between atoms: _26  and  _32
REMARK   12  A    between atoms: _27  and  _31
REMARK   13  A    between atoms: _31  and  _32
REMARK   14  A    between atoms: _34  and  _35
REMARK   15  A    between atoms: _36  and  _37
REMARK   16  A    between atoms: _38  and  _40
REMARK   17  A    between atoms: _40  and  _41
REMARK   18  A    between atoms: _40  and  _42
REMARK   19  A    between atoms: _42  and  _43
REMARK   20  A    between atoms: _42  and  _44
REMARK   21  A    between atoms: _45  and  _47
REMARK                            x       y       z     vdW  Elec       q    Type
REMARK                         _______ _______ _______ _____ _____    ______ ____
ROOT
ATOM      1  C   UNL     1       3.034   3.191  32.229  0.00  0.00    +0.401 C 
ATOM      2  O   UNL     1       2.938   4.393  32.489  0.00  0.00    -0.226 OA
ATOM      3  N   UNL     1       4.034   2.415  32.647  0.00  0.00    -0.279 N 
ATOM      4  H   UNL     1       4.019   1.438  32.390  0.00  0.00    +0.152 HD
ENDROOT
BRANCH   1   5
ATOM      5  O   UNL     1       2.019   2.570  31.435  0.00  0.00    -0.444 OA
BRANCH   5   6
ATOM      6  C   UNL     1       2.630   1.811  30.388  0.00  0.00    +0.292 C 
BRANCH   6   8
ATOM      7  N   UNL     1       2.286   3.537  28.641  0.00  0.00    -0.131 NA
ATOM      8  C   UNL     1       2.131   2.244  29.069  0.00  0.00    +0.120 A 
ATOM      9  C   UNL     1       1.445   1.533  28.109  0.00  0.00    +0.137 A 
ATOM     10  N   UNL     1       1.154   2.463  27.157  0.00  0.00    -0.251 N 
ATOM     11  N   UNL     1       1.680   3.660  27.467  0.00  0.00    -0.065 NA
BRANCH  10  12
ATOM     12  C   UNL     1       0.276   2.316  26.012  0.00  0.00    +0.149 C 
BRANCH  12  13
ATOM     13  C   UNL     1      -0.901   3.305  25.985  0.00  0.00    +0.021 C 
ATOM     14  C   UNL     1      -1.763   3.181  27.250  0.00  0.00    +0.010 C 
BRANCH  13  15
ATOM     15  C   UNL     1      -0.404   4.766  25.862  0.00  0.00    +0.089 C 
BRANCH  15  16
ATOM     16  N   UNL     1      -0.198   5.254  24.491  0.00  0.00    -0.299 NA
ATOM     17  C   UNL     1      -1.169   4.606  23.569  0.00  0.00    +0.103 C 
ATOM     18  C   UNL     1      -1.046   5.154  22.132  0.00  0.00    +0.120 C 
ATOM     19  N   UNL     1       0.321   4.943  21.640  0.00  0.00    -0.327 N 
ATOM     20  C   UNL     1       1.369   5.497  22.509  0.00  0.00    +0.120 C 
ATOM     21  C   UNL     1       1.169   5.001  23.971  0.00  0.00    +0.103 C 
BRANCH  19  22
ATOM     22  C   UNL     1       0.591   4.329  20.439  0.00  0.00    +0.030 A 
ATOM     23  C   UNL     1      -0.394   4.211  19.440  0.00  0.00    +0.024 A 
ATOM     24  C   UNL     1      -0.146   3.567  18.223  0.00  0.00    +0.022 A 
ATOM     25  C   UNL     1       1.107   3.030  17.975  0.00  0.00    +0.041 A 
ATOM     26 CL   UNL     1       1.418   2.233  16.483  0.00  0.00    -0.084 Cl
ATOM     27  C   UNL     1       2.109   3.129  18.934  0.00  0.00    +0.022 A 
ATOM     28  C   UNL     1       1.845   3.771  20.152  0.00  0.00    +0.024 A 
ENDBRANCH  19  22
ENDBRANCH  15  16
ENDBRANCH  13  15
ENDBRANCH  12  13
ENDBRANCH  10  12
ENDBRANCH   6   8
ENDBRANCH   5   6
ENDBRANCH   1   5
BRANCH   3  29
ATOM     29  C   UNL     1       5.155   2.900  33.461  0.00  0.00    +0.141 C 
BRANCH  29  30
ATOM     30  C   UNL     1       6.481   2.815  32.711  0.00  0.00    +0.163 C 
BRANCH  30  31
ATOM     31  O   UNL     1       6.303   3.240  31.350  0.00  0.00    -0.388 OA
ATOM     32  H   UNL     1       6.149   4.188  31.327  0.00  0.00    +0.210 HD
ENDBRANCH  30  31
BRANCH  30  33
ATOM     33  C   UNL     1       7.532   3.682  33.425  0.00  0.00    +0.175 C 
BRANCH  33  34
ATOM     34  C   UNL     1       7.078   4.100  34.831  0.00  0.00    +0.176 C 
ATOM     35  O   UNL     1       7.222   5.543  34.937  0.00  0.00    -0.332 OA
ATOM     36  C   UNL     1       6.733   6.139  36.185  0.00  0.00    +0.277 C 
ATOM     37  C   UNL     1       7.395   5.456  37.406  0.00  0.00    +0.110 C 
ATOM     38  C   UNL     1       7.295   3.918  37.322  0.00  0.00    +0.143 C 
ATOM     39  C   UNL     1       7.828   3.406  35.984  0.00  0.00    +0.133 C 
BRANCH  39  40
ATOM     40  N   UNL     1       7.647   1.949  35.880  0.00  0.00    -0.308 N 
ATOM     41  H   UNL     1       6.711   1.582  35.981  0.00  0.00    +0.149 HD
ATOM     42  C   UNL     1       8.639   1.081  35.663  0.00  0.00    +0.210 C 
ATOM     43  C   UNL     1      10.057   1.671  35.541  0.00  0.00    +0.109 C 
ATOM     44  O   UNL     1       8.456  -0.133  35.567  0.00  0.00    -0.276 OA
ENDBRANCH  39  40
BRANCH  36  45
ATOM     45  C   UNL     1       5.199   6.008  36.289  0.00  0.00    +0.414 C 
ATOM     46  O   UNL     1       4.514   5.919  35.272  0.00  0.00    -0.240 OA
ATOM     47  O   UNL     1       4.648   5.992  37.391  0.00  0.00    -0.240 OA
ENDBRANCH  36  45
BRANCH  36  48
ATOM     48  O   UNL     1       7.105   7.541  36.188  0.00  0.00    -0.343 OA
ATOM     49  C   UNL     1       8.171   7.890  37.107  0.00  0.00    +0.198 C 
ENDBRANCH  36  48
BRANCH  38  50
ATOM     50  O   UNL     1       8.046   3.328  38.384  0.00  0.00    -0.390 OA
ATOM     51  H   UNL     1       8.936   3.135  38.079  0.00  0.00    +0.210 HD
ENDBRANCH  38  50
ENDBRANCH  33  34
BRANCH  33  52
ATOM     52  O   UNL     1       7.834   4.848  32.634  0.00  0.00    -0.387 OA
ATOM     53  H   UNL     1       8.232   5.520  33.193  0.00  0.00    +0.210 HD
ENDBRANCH  33  52
ENDBRANCH  30  33
ENDBRANCH  29  30
ENDBRANCH   3  29
TORSDOF 18
