REMARK VINA RESULT:    -6.350     14.362     15.944
REMARK INTER + INTRA:         -13.295
REMARK INTER:                 -11.226
REMARK INTRA:                  -2.069
REMARK UNBOUND:                -1.933
REMARK  Name = lig_assembled_39.pdb
REMARK  17 active torsions:
REMARK  status: ('A' for Active; 'I' for Inactive)
REMARK    1  A    between atoms: _2  and  _9
REMARK    2  A    between atoms: _4  and  _19
REMARK    3  A    between atoms: _6  and  _7
REMARK    4  A    between atoms: _6  and  _19
REMARK    5  A    between atoms: _9  and  _10
REMARK    6  A    between atoms: _15  and  _35
REMARK    7  A    between atoms: _17  and  _23
REMARK    8  A    between atoms: _18  and  _22
REMARK    9  A    between atoms: _22  and  _23
REMARK   10  A    between atoms: _25  and  _26
REMARK   11  A    between atoms: _27  and  _28
REMARK   12  A    between atoms: _29  and  _31
REMARK   13  A    between atoms: _31  and  _32
REMARK   14  A    between atoms: _31  and  _33
REMARK   15  A    between atoms: _33  and  _34
REMARK   16  A    between atoms: _33  and  _35
REMARK   17  A    between atoms: _36  and  _38
REMARK                            x       y       z     vdW  Elec       q    Type
REMARK                         _______ _______ _______ _____ _____    ______ ____
ROOT
ATOM      1  C   UNL     1       7.527   2.334  34.218  0.00  0.00    +0.163 C 
ENDROOT
BRANCH   1   2
ATOM      2  O   UNL     1       8.396   2.445  35.357  0.00  0.00    -0.388 OA
ATOM      3  H   UNL     1       8.118   1.824  36.034  0.00  0.00    +0.210 HD
ENDBRANCH   1   2
BRANCH   1   4
ATOM      4  C   UNL     1       7.930   1.134  33.368  0.00  0.00    +0.141 C 
BRANCH   4   7
ATOM      5  C   UNL     1       6.836  -0.560  31.940  0.00  0.00    +0.401 C 
ATOM      6  O   UNL     1       7.891  -0.953  31.435  0.00  0.00    -0.226 OA
ATOM      7  N   UNL     1       6.761   0.415  32.847  0.00  0.00    -0.279 N 
ATOM      8  H   UNL     1       5.849   0.673  33.195  0.00  0.00    +0.152 HD
BRANCH   5   9
ATOM      9  O   UNL     1       5.606  -1.170  31.540  0.00  0.00    -0.444 OA
BRANCH   9  10
ATOM     10  C   UNL     1       5.559  -1.259  30.113  0.00  0.00    +0.292 C 
BRANCH  10  12
ATOM     11  N   UNL     1       3.624   0.279  30.253  0.00  0.00    -0.131 NA
ATOM     12  C   UNL     1       4.275  -0.740  29.608  0.00  0.00    +0.120 A 
ATOM     13  C   UNL     1       3.548  -1.106  28.497  0.00  0.00    +0.137 A 
ATOM     14  N   UNL     1       2.513  -0.219  28.478  0.00  0.00    -0.247 N 
ATOM     15  N   UNL     1       2.528   0.571  29.567  0.00  0.00    -0.065 NA
BRANCH  14  16
ATOM     16  C   UNL     1       1.523  -0.021  27.429  0.00  0.00    +0.181 C 
BRANCH  16  17
ATOM     17  C   UNL     1       1.865   1.122  26.490  0.00  0.00    -0.012 A 
ATOM     18  C   UNL     1       1.523   2.451  26.809  0.00  0.00    +0.006 A 
ATOM     19  C   UNL     1       1.827   3.512  25.951  0.00  0.00    +0.000 A 
ATOM     20  C   UNL     1       2.459   3.265  24.740  0.00  0.00    +0.001 A 
ATOM     21  C   UNL     1       2.771   1.957  24.378  0.00  0.00    +0.015 A 
ATOM     22  C   UNL     1       2.467   0.892  25.238  0.00  0.00    +0.023 A 
ATOM     23 BR   UNL     1       2.885  -0.855  24.612  0.00  0.00    -0.050 Br
ENDBRANCH  16  17
ENDBRANCH  14  16
ENDBRANCH  10  12
ENDBRANCH   9  10
ENDBRANCH   5   9
ENDBRANCH   4   7
ENDBRANCH   1   4
BRANCH   1  24
ATOM     24  C   UNL     1       7.578   3.611  33.361  0.00  0.00    +0.175 C 
BRANCH  24  25
ATOM     25  C   UNL     1       6.833   4.780  34.022  0.00  0.00    +0.176 C 
ATOM     26  O   UNL     1       7.703   5.347  35.040  0.00  0.00    -0.332 OA
ATOM     27  C   UNL     1       7.197   6.549  35.709  0.00  0.00    +0.277 C 
ATOM     28  C   UNL     1       5.794   6.285  36.308  0.00  0.00    +0.110 C 
ATOM     29  C   UNL     1       4.842   5.652  35.271  0.00  0.00    +0.143 C 
ATOM     30  C   UNL     1       5.469   4.411  34.635  0.00  0.00    +0.133 C 
BRANCH  30  31
ATOM     31  N   UNL     1       4.590   3.868  33.588  0.00  0.00    -0.308 N 
ATOM     32  H   UNL     1       4.494   4.396  32.732  0.00  0.00    +0.149 HD
ATOM     33  C   UNL     1       3.909   2.724  33.695  0.00  0.00    +0.210 C 
ATOM     34  C   UNL     1       4.055   1.956  35.022  0.00  0.00    +0.109 C 
ATOM     35  O   UNL     1       3.192   2.286  32.795  0.00  0.00    -0.276 OA
ENDBRANCH  30  31
BRANCH  27  36
ATOM     36  C   UNL     1       7.122   7.733  34.723  0.00  0.00    +0.414 C 
ATOM     37  O   UNL     1       6.030   8.157  34.345  0.00  0.00    -0.240 OA
ATOM     38  O   UNL     1       8.152   8.264  34.305  0.00  0.00    -0.240 OA
ENDBRANCH  27  36
BRANCH  27  39
ATOM     39  O   UNL     1       8.104   6.874  36.794  0.00  0.00    -0.343 OA
ATOM     40  C   UNL     1       9.162   5.908  37.018  0.00  0.00    +0.198 C 
ENDBRANCH  27  39
BRANCH  29  41
ATOM     41  O   UNL     1       3.614   5.288  35.903  0.00  0.00    -0.390 OA
ATOM     42  H   UNL     1       3.670   5.474  36.844  0.00  0.00    +0.210 HD
ENDBRANCH  29  41
ENDBRANCH  24  25
BRANCH  24  43
ATOM     43  O   UNL     1       7.034   3.352  32.052  0.00  0.00    -0.387 OA
ATOM     44  H   UNL     1       7.749   3.285  31.415  0.00  0.00    +0.210 HD
ENDBRANCH  24  43
ENDBRANCH   1  24
TORSDOF 15
