REMARK VINA RESULT:    -5.571      7.556     11.757
REMARK INTER + INTRA:         -12.578
REMARK INTER:                 -10.568
REMARK INTRA:                  -2.010
REMARK UNBOUND:                -2.936
REMARK  Name = lig_assembled_93.pdb
REMARK  16 active torsions:
REMARK  status: ('A' for Active; 'I' for Inactive)
REMARK    1  A    between atoms: _2  and  _9
REMARK    2  A    between atoms: _4  and  _18
REMARK    3  A    between atoms: _6  and  _7
REMARK    4  A    between atoms: _6  and  _18
REMARK    5  A    between atoms: _14  and  _34
REMARK    6  A    between atoms: _16  and  _22
REMARK    7  A    between atoms: _17  and  _21
REMARK    8  A    between atoms: _21  and  _22
REMARK    9  A    between atoms: _24  and  _25
REMARK   10  A    between atoms: _26  and  _27
REMARK   11  A    between atoms: _28  and  _30
REMARK   12  A    between atoms: _30  and  _31
REMARK   13  A    between atoms: _30  and  _32
REMARK   14  A    between atoms: _32  and  _33
REMARK   15  A    between atoms: _32  and  _34
REMARK   16  A    between atoms: _35  and  _37
REMARK                            x       y       z     vdW  Elec       q    Type
REMARK                         _______ _______ _______ _____ _____    ______ ____
ROOT
ATOM      1  C   UNL     1       8.790   4.584  38.510  0.00  0.00    +0.163 C 
ENDROOT
BRANCH   1   2
ATOM      2  O   UNL     1       8.559   5.958  38.158  0.00  0.00    -0.388 OA
ATOM      3  H   UNL     1       8.517   6.491  38.956  0.00  0.00    +0.210 HD
ENDBRANCH   1   2
BRANCH   1   4
ATOM      4  C   UNL     1      10.269   4.365  38.813  0.00  0.00    +0.141 C 
BRANCH   4   7
ATOM      5  C   UNL     1      12.290   4.760  37.448  0.00  0.00    +0.401 C 
ATOM      6  O   UNL     1      12.874   5.397  38.328  0.00  0.00    -0.226 OA
ATOM      7  N   UNL     1      11.067   4.247  37.587  0.00  0.00    -0.279 N 
ATOM      8  H   UNL     1      10.667   3.749  36.804  0.00  0.00    +0.152 HD
BRANCH   5   9
ATOM      9  O   UNL     1      12.942   4.552  36.193  0.00  0.00    -0.444 OA
BRANCH   9  10
ATOM     10  C   UNL     1      14.350   4.753  36.346  0.00  0.00    +0.292 C 
BRANCH  10  12
ATOM     11  N   UNL     1      14.873   5.195  33.975  0.00  0.00    -0.131 NA
ATOM     12  C   UNL     1      14.864   5.617  35.267  0.00  0.00    +0.121 A 
ATOM     13  C   UNL     1      15.378   6.892  35.321  0.00  0.00    +0.143 A 
ATOM     14  N   UNL     1      15.681   7.227  34.012  0.00  0.00    -0.219 N 
ATOM     15  N   UNL     1      15.372   6.169  33.230  0.00  0.00    -0.060 NA
BRANCH  14  16
ATOM     16  C   UNL     1      16.211   8.460  33.516  0.00  0.00    +0.080 A 
ATOM     17  C   UNL     1      15.331   9.565  33.433  0.00  0.00    +0.029 A 
ATOM     18  C   UNL     1      15.750  10.805  32.945  0.00  0.00    +0.002 A 
ATOM     19  C   UNL     1      17.059  10.978  32.527  0.00  0.00    +0.001 A 
ATOM     20  C   UNL     1      17.949   9.910  32.603  0.00  0.00    +0.016 A 
ATOM     21  C   UNL     1      17.544   8.651  33.095  0.00  0.00    +0.039 A 
ATOM     22  I   UNL     1      19.121   7.239  33.091  0.00  0.00    -0.042 I 
ENDBRANCH  14  16
ENDBRANCH  10  12
ENDBRANCH   9  10
ENDBRANCH   5   9
ENDBRANCH   4   7
ENDBRANCH   1   4
BRANCH   1  23
ATOM     23  C   UNL     1       8.353   3.644  37.374  0.00  0.00    +0.175 C 
BRANCH  23  24
ATOM     24  C   UNL     1       7.819   4.416  36.158  0.00  0.00    +0.176 C 
ATOM     25  O   UNL     1       6.423   4.735  36.410  0.00  0.00    -0.332 OA
ATOM     26  C   UNL     1       5.771   5.569  35.396  0.00  0.00    +0.277 C 
ATOM     27  C   UNL     1       5.916   4.929  33.994  0.00  0.00    +0.110 C 
ATOM     28  C   UNL     1       7.380   4.542  33.693  0.00  0.00    +0.143 C 
ATOM     29  C   UNL     1       7.960   3.679  34.814  0.00  0.00    +0.133 C 
BRANCH  29  30
ATOM     30  N   UNL     1       9.380   3.390  34.558  0.00  0.00    -0.308 N 
ATOM     31  H   UNL     1       9.992   4.169  34.361  0.00  0.00    +0.149 HD
ATOM     32  C   UNL     1       9.913   2.165  34.570  0.00  0.00    +0.210 C 
ATOM     33  C   UNL     1       8.949   0.996  34.847  0.00  0.00    +0.109 C 
ATOM     34  O   UNL     1      11.109   1.954  34.367  0.00  0.00    -0.276 OA
ENDBRANCH  29  30
BRANCH  26  35
ATOM     35  C   UNL     1       6.378   6.987  35.380  0.00  0.00    +0.414 C 
ATOM     36  O   UNL     1       6.210   7.723  34.408  0.00  0.00    -0.240 OA
ATOM     37  O   UNL     1       7.034   7.396  36.339  0.00  0.00    -0.240 OA
ENDBRANCH  26  35
BRANCH  28  38
ATOM     38  O   UNL     1       7.445   3.822  32.462  0.00  0.00    -0.390 OA
ATOM     39  H   UNL     1       8.363   3.703  32.208  0.00  0.00    +0.210 HD
ENDBRANCH  28  38
BRANCH  26  40
ATOM     40  O   UNL     1       4.358   5.646  35.719  0.00  0.00    -0.343 OA
ATOM     41  C   UNL     1       3.774   4.413  36.209  0.00  0.00    +0.198 C 
ENDBRANCH  26  40
ENDBRANCH  23  24
BRANCH  23  42
ATOM     42  O   UNL     1       7.357   2.717  37.850  0.00  0.00    -0.387 OA
ATOM     43  H   UNL     1       6.527   3.180  37.983  0.00  0.00    +0.210 HD
ENDBRANCH  23  42
ENDBRANCH   1  23
TORSDOF 14
