REMARK VINA RESULT:    -6.231      1.924      4.330
REMARK INTER + INTRA:         -13.118
REMARK INTER:                 -11.051
REMARK INTRA:                  -2.067
REMARK UNBOUND:                -2.334
REMARK  Name = lig_assembled_15.pdb
REMARK  16 active torsions:
REMARK  status: ('A' for Active; 'I' for Inactive)
REMARK    1  A    between atoms: _2  and  _9
REMARK    2  A    between atoms: _4  and  _18
REMARK    3  A    between atoms: _6  and  _7
REMARK    4  A    between atoms: _6  and  _18
REMARK    5  A    between atoms: _14  and  _34
REMARK    6  A    between atoms: _16  and  _22
REMARK    7  A    between atoms: _17  and  _21
REMARK    8  A    between atoms: _21  and  _22
REMARK    9  A    between atoms: _24  and  _25
REMARK   10  A    between atoms: _26  and  _27
REMARK   11  A    between atoms: _28  and  _30
REMARK   12  A    between atoms: _30  and  _31
REMARK   13  A    between atoms: _30  and  _32
REMARK   14  A    between atoms: _32  and  _33
REMARK   15  A    between atoms: _32  and  _34
REMARK   16  A    between atoms: _35  and  _37
REMARK                            x       y       z     vdW  Elec       q    Type
REMARK                         _______ _______ _______ _____ _____    ______ ____
ROOT
ATOM      1  C   UNL     1       2.378   2.119  33.053  0.00  0.00    +0.163 C 
ENDROOT
BRANCH   1   2
ATOM      2  O   UNL     1       1.681   0.877  32.859  0.00  0.00    -0.388 OA
ATOM      3  H   UNL     1       1.406   0.803  31.942  0.00  0.00    +0.210 HD
ENDBRANCH   1   2
BRANCH   1   4
ATOM      4  C   UNL     1       1.412   3.288  32.899  0.00  0.00    +0.141 C 
BRANCH   4   7
ATOM      5  C   UNL     1       0.660   4.250  30.751  0.00  0.00    +0.401 C 
ATOM      6  O   UNL     1       1.219   5.334  30.933  0.00  0.00    -0.226 OA
ATOM      7  N   UNL     1       0.692   3.239  31.620  0.00  0.00    -0.279 N 
ATOM      8  H   UNL     1       0.194   2.392  31.386  0.00  0.00    +0.152 HD
BRANCH   5   9
ATOM      9  O   UNL     1      -0.078   4.043  29.543  0.00  0.00    -0.444 OA
BRANCH   9  10
ATOM     10  C   UNL     1       0.388   2.856  28.897  0.00  0.00    +0.292 C 
BRANCH  10  12
ATOM     11  N   UNL     1       2.262   3.736  27.542  0.00  0.00    -0.131 NA
ATOM     12  C   UNL     1       1.014   3.189  27.603  0.00  0.00    +0.121 A 
ATOM     13  C   UNL     1       0.531   3.029  26.323  0.00  0.00    +0.143 A 
ATOM     14  N   UNL     1       1.544   3.471  25.504  0.00  0.00    -0.220 N 
ATOM     15  N   UNL     1       2.575   3.910  26.266  0.00  0.00    -0.060 NA
BRANCH  14  16
ATOM     16  C   UNL     1       1.601   3.472  24.085  0.00  0.00    +0.067 A 
ATOM     17  C   UNL     1       1.612   2.270  23.363  0.00  0.00    +0.029 A 
ATOM     18  C   UNL     1       1.711   2.292  21.968  0.00  0.00    +0.017 A 
ATOM     19  C   UNL     1       1.792   3.509  21.295  0.00  0.00    +0.018 A 
ATOM     20 BR   UNL     1       1.952   3.528  19.411  0.00  0.00    -0.050 Br
ATOM     21  C   UNL     1       1.767   4.710  22.001  0.00  0.00    +0.017 A 
ATOM     22  C   UNL     1       1.669   4.694  23.395  0.00  0.00    +0.029 A 
ENDBRANCH  14  16
ENDBRANCH  10  12
ENDBRANCH   9  10
ENDBRANCH   5   9
ENDBRANCH   4   7
ENDBRANCH   1   4
BRANCH   1  23
ATOM     23  C   UNL     1       3.529   2.267  32.044  0.00  0.00    +0.175 C 
BRANCH  23  24
ATOM     24  C   UNL     1       4.863   1.757  32.610  0.00  0.00    +0.176 C 
ATOM     25  O   UNL     1       4.732   0.328  32.844  0.00  0.00    -0.332 OA
ATOM     26  C   UNL     1       5.951  -0.355  33.289  0.00  0.00    +0.277 C 
ATOM     27  C   UNL     1       6.526   0.332  34.552  0.00  0.00    +0.110 C 
ATOM     28  C   UNL     1       6.654   1.858  34.361  0.00  0.00    +0.143 C 
ATOM     29  C   UNL     1       5.330   2.465  33.895  0.00  0.00    +0.133 C 
BRANCH  29  30
ATOM     30  N   UNL     1       5.488   3.905  33.634  0.00  0.00    -0.308 N 
ATOM     31  H   UNL     1       6.057   4.182  32.846  0.00  0.00    +0.149 HD
ATOM     32  C   UNL     1       4.927   4.869  34.369  0.00  0.00    +0.210 C 
ATOM     33  C   UNL     1       4.087   4.414  35.578  0.00  0.00    +0.109 C 
ATOM     34  O   UNL     1       5.065   6.066  34.118  0.00  0.00    -0.276 OA
ENDBRANCH  29  30
BRANCH  26  35
ATOM     35  C   UNL     1       7.015  -0.357  32.173  0.00  0.00    +0.414 C 
ATOM     36  O   UNL     1       6.741  -0.791  31.054  0.00  0.00    -0.240 OA
ATOM     37  O   UNL     1       8.148   0.075  32.390  0.00  0.00    -0.240 OA
ENDBRANCH  26  35
BRANCH  28  38
ATOM     38  O   UNL     1       7.042   2.466  35.594  0.00  0.00    -0.390 OA
ATOM     39  H   UNL     1       7.969   2.713  35.551  0.00  0.00    +0.210 HD
ENDBRANCH  28  38
BRANCH  26  40
ATOM     40  O   UNL     1       5.600  -1.721  33.631  0.00  0.00    -0.343 OA
ATOM     41  C   UNL     1       4.264  -2.127  33.238  0.00  0.00    +0.198 C 
ENDBRANCH  26  40
ENDBRANCH  23  24
BRANCH  23  42
ATOM     42  O   UNL     1       3.657   3.643  31.635  0.00  0.00    -0.387 OA
ATOM     43  H   UNL     1       2.931   4.155  32.000  0.00  0.00    +0.210 HD
ENDBRANCH  23  42
ENDBRANCH   1  23
TORSDOF 14
