REMARK VINA RESULT:    -5.448      2.016      2.988
REMARK INTER + INTRA:         -12.910
REMARK INTER:                 -10.679
REMARK INTRA:                  -2.231
REMARK UNBOUND:                -3.800
REMARK  Name = lig_assembled_65.pdb
REMARK  16 active torsions:
REMARK  status: ('A' for Active; 'I' for Inactive)
REMARK    1  A    between atoms: _8  and  _20
REMARK    2  A    between atoms: _9  and  _15
REMARK    3  A    between atoms: _10  and  _11
REMARK    4  A    between atoms: _10  and  _20
REMARK    5  A    between atoms: _16  and  _36
REMARK    6  A    between atoms: _18  and  _24
REMARK    7  A    between atoms: _19  and  _23
REMARK    8  A    between atoms: _23  and  _24
REMARK    9  A    between atoms: _26  and  _27
REMARK   10  A    between atoms: _28  and  _29
REMARK   11  A    between atoms: _30  and  _32
REMARK   12  A    between atoms: _32  and  _33
REMARK   13  A    between atoms: _32  and  _34
REMARK   14  A    between atoms: _34  and  _35
REMARK   15  A    between atoms: _34  and  _36
REMARK   16  A    between atoms: _37  and  _39
REMARK                            x       y       z     vdW  Elec       q    Type
REMARK                         _______ _______ _______ _____ _____    ______ ____
ROOT
ATOM      1  C   UNL     1      20.753   4.641  24.148  0.00  0.00    +0.163 C 
ENDROOT
BRANCH   1   2
ATOM      2  O   UNL     1      21.585   3.637  23.542  0.00  0.00    -0.388 OA
ATOM      3  H   UNL     1      22.442   3.627  23.976  0.00  0.00    +0.210 HD
ENDBRANCH   1   2
BRANCH   1   4
ATOM      4  C   UNL     1      21.577   5.492  25.108  0.00  0.00    +0.141 C 
BRANCH   4   7
ATOM      5  C   UNL     1      20.619   7.759  25.321  0.00  0.00    +0.401 C 
ATOM      6  O   UNL     1      21.169   8.189  24.305  0.00  0.00    -0.226 OA
ATOM      7  N   UNL     1      20.759   6.513  25.774  0.00  0.00    -0.279 N 
ATOM      8  H   UNL     1      20.275   6.257  26.623  0.00  0.00    +0.152 HD
BRANCH   5   9
ATOM      9  O   UNL     1      19.779   8.634  26.079  0.00  0.00    -0.444 OA
BRANCH   9  10
ATOM     10  C   UNL     1      20.447   9.011  27.286  0.00  0.00    +0.292 C 
BRANCH  10  12
ATOM     11  N   UNL     1      19.433   7.350  28.818  0.00  0.00    -0.131 NA
ATOM     12  C   UNL     1      19.627   8.656  28.460  0.00  0.00    +0.121 A 
ATOM     13  C   UNL     1      18.959   9.468  29.345  0.00  0.00    +0.149 A 
ATOM     14  N   UNL     1      18.354   8.604  30.233  0.00  0.00    -0.155 N 
ATOM     15  C   UNL     1      17.524   8.949  31.340  0.00  0.00    +0.416 C 
ATOM     16  N   UNL     1      17.025   7.965  32.098  0.00  0.00    +0.041 NA
ATOM     17  C   UNL     1      16.246   8.365  33.100  0.00  0.00    +0.339 C 
ATOM     18  C   UNL     1      15.647   7.309  33.976  0.00  0.00    +0.149 C 
ATOM     19  N   UNL     1      15.954   9.637  33.370  0.00  0.00    +0.007 NA
ATOM     20  C   UNL     1      16.487  10.531  32.552  0.00  0.00    +0.386 C 
ATOM     21  N   UNL     1      16.201  11.859  32.788  0.00  0.00    -0.296 N 
ATOM     22  H   UNL     1      15.921  11.998  33.750  0.00  0.00    +0.148 HD
ATOM     23  H   UNL     1      16.922  12.462  32.420  0.00  0.00    +0.148 HD
ATOM     24  N   UNL     1      17.291  10.254  31.540  0.00  0.00    -0.290 NA
ATOM     25  N   UNL     1      18.661   7.325  29.898  0.00  0.00    -0.055 NA
ENDBRANCH  10  12
ENDBRANCH   9  10
ENDBRANCH   5   9
ENDBRANCH   4   7
ENDBRANCH   1   4
BRANCH   1  26
ATOM     26  C   UNL     1      19.580   3.997  24.907  0.00  0.00    +0.175 C 
BRANCH  26  27
ATOM     27  C   UNL     1      19.259   2.588  24.388  0.00  0.00    +0.176 C 
ATOM     28  O   UNL     1      18.664   2.722  23.068  0.00  0.00    -0.332 OA
ATOM     29  C   UNL     1      18.386   1.465  22.367  0.00  0.00    +0.277 C 
ATOM     30  C   UNL     1      17.509   0.539  23.245  0.00  0.00    +0.110 C 
ATOM     31  C   UNL     1      18.084   0.391  24.669  0.00  0.00    +0.143 C 
ATOM     32  C   UNL     1      18.338   1.759  25.303  0.00  0.00    +0.133 C 
BRANCH  32  33
ATOM     33  N   UNL     1      18.967   1.606  26.624  0.00  0.00    -0.308 N 
ATOM     34  H   UNL     1      19.814   1.058  26.683  0.00  0.00    +0.149 HD
ATOM     35  C   UNL     1      18.492   2.143  27.751  0.00  0.00    +0.210 C 
ATOM     36  C   UNL     1      17.185   2.950  27.633  0.00  0.00    +0.109 C 
ATOM     37  O   UNL     1      19.048   2.010  28.842  0.00  0.00    -0.276 OA
ENDBRANCH  32  33
BRANCH  29  38
ATOM     38  C   UNL     1      19.698   0.740  22.004  0.00  0.00    +0.414 C 
ATOM     39  O   UNL     1      19.760  -0.488  22.047  0.00  0.00    -0.240 OA
ATOM     40  O   UNL     1      20.694   1.382  21.667  0.00  0.00    -0.240 OA
ENDBRANCH  29  38
BRANCH  29  41
ATOM     41  O   UNL     1      17.650   1.779  21.157  0.00  0.00    -0.343 OA
ATOM     42  C   UNL     1      16.687   2.856  21.287  0.00  0.00    +0.198 C 
ENDBRANCH  29  41
BRANCH  31  43
ATOM     43  O   UNL     1      17.170  -0.343  25.484  0.00  0.00    -0.390 OA
ATOM     44  H   UNL     1      17.192   0.001  26.380  0.00  0.00    +0.210 HD
ENDBRANCH  31  43
ENDBRANCH  26  27
BRANCH  26  45
ATOM     45  O   UNL     1      18.411   4.837  24.820  0.00  0.00    -0.387 OA
ATOM     46  H   UNL     1      17.896   4.590  24.048  0.00  0.00    +0.210 HD
ENDBRANCH  26  45
ENDBRANCH   1  26
TORSDOF 13
