REMARK VINA RESULT:    -6.911      4.492      7.149
REMARK INTER + INTRA:         -13.940
REMARK INTER:                 -11.708
REMARK INTRA:                  -2.232
REMARK UNBOUND:                -1.575
REMARK  Name = lig_assembled_0.pdb
REMARK  17 active torsions:
REMARK  status: ('A' for Active; 'I' for Inactive)
REMARK    1  A    between atoms: _2  and  _10
REMARK    2  A    between atoms: _5  and  _21
REMARK    3  A    between atoms: _7  and  _8
REMARK    4  A    between atoms: _7  and  _21
REMARK    5  A    between atoms: _11  and  _12
REMARK    6  A    between atoms: _17  and  _37
REMARK    7  A    between atoms: _19  and  _25
REMARK    8  A    between atoms: _20  and  _24
REMARK    9  A    between atoms: _24  and  _25
REMARK   10  A    between atoms: _27  and  _28
REMARK   11  A    between atoms: _29  and  _30
REMARK   12  A    between atoms: _31  and  _33
REMARK   13  A    between atoms: _33  and  _34
REMARK   14  A    between atoms: _33  and  _35
REMARK   15  A    between atoms: _35  and  _36
REMARK   16  A    between atoms: _35  and  _37
REMARK   17  A    between atoms: _38  and  _40
REMARK                            x       y       z     vdW  Elec       q    Type
REMARK                         _______ _______ _______ _____ _____    ______ ____
ROOT
ATOM      1  C   UNL     1       7.978   2.454  34.275  0.00  0.00    +0.163 C 
ENDROOT
BRANCH   1   2
ATOM      2  O   UNL     1       8.523   2.812  35.556  0.00  0.00    -0.388 OA
ATOM      3  H   UNL     1       8.738   2.015  36.047  0.00  0.00    +0.210 HD
ENDBRANCH   1   2
BRANCH   1   4
ATOM      4  C   UNL     1       8.847   1.387  33.618  0.00  0.00    +0.141 C 
BRANCH   4   7
ATOM      5  C   UNL     1       7.758  -0.820  33.399  0.00  0.00    +0.401 C 
ATOM      6  O   UNL     1       8.151  -1.228  34.494  0.00  0.00    -0.226 OA
ATOM      7  N   UNL     1       8.041   0.387  32.907  0.00  0.00    -0.279 N 
ATOM      8  H   UNL     1       7.681   0.626  31.994  0.00  0.00    +0.152 HD
BRANCH   5   9
ATOM      9  O   UNL     1       6.952  -1.678  32.587  0.00  0.00    -0.444 OA
BRANCH   9  10
ATOM     10  C   UNL     1       7.784  -2.649  31.946  0.00  0.00    +0.292 C 
BRANCH  10  12
ATOM     11  N   UNL     1       6.966  -4.109  30.133  0.00  0.00    -0.131 NA
ATOM     12  C   UNL     1       7.339  -2.869  30.557  0.00  0.00    +0.121 A 
ATOM     13  C   UNL     1       7.197  -1.975  29.519  0.00  0.00    +0.143 A 
ATOM     14  N   UNL     1       6.819  -2.738  28.438  0.00  0.00    -0.219 N 
ATOM     15  N   UNL     1       6.603  -4.013  28.863  0.00  0.00    -0.060 NA
BRANCH  14  16
ATOM     16  C   UNL     1       6.534  -2.369  27.093  0.00  0.00    +0.079 A 
ATOM     17  C   UNL     1       5.263  -1.994  26.613  0.00  0.00    +0.062 A 
ATOM     18  C   UNL     1       5.115  -1.693  25.241  0.00  0.00    +0.015 A 
ATOM     19  C   UNL     1       6.192  -1.773  24.359  0.00  0.00    +0.001 A 
ATOM     20  C   UNL     1       7.447  -2.126  24.834  0.00  0.00    +0.002 A 
ATOM     21  C   UNL     1       7.621  -2.411  26.188  0.00  0.00    +0.028 A 
BRANCH  17  22
ATOM     22  C   UNL     1       4.091  -1.711  27.488  0.00  0.00    +0.244 C 
ATOM     23  O   UNL     1       3.482  -0.654  27.442  0.00  0.00    -0.270 OA
ATOM     24  N   UNL     1       3.678  -2.704  28.336  0.00  0.00    -0.325 N 
ATOM     25  H   UNL     1       2.850  -2.522  28.890  0.00  0.00    +0.145 HD
ATOM     26  H   UNL     1       4.117  -3.609  28.423  0.00  0.00    +0.145 HD
ENDBRANCH  17  22
ENDBRANCH  14  16
ENDBRANCH  10  12
ENDBRANCH   9  10
ENDBRANCH   5   9
ENDBRANCH   4   7
ENDBRANCH   1   4
BRANCH   1  27
ATOM     27  C   UNL     1       7.887   3.683  33.353  0.00  0.00    +0.175 C 
BRANCH  27  28
ATOM     28  C   UNL     1       7.010   4.792  33.953  0.00  0.00    +0.176 C 
ATOM     29  O   UNL     1       7.740   5.390  35.060  0.00  0.00    -0.332 OA
ATOM     30  C   UNL     1       7.097   6.546  35.692  0.00  0.00    +0.277 C 
ATOM     31  C   UNL     1       5.661   6.185  36.146  0.00  0.00    +0.110 C 
ATOM     32  C   UNL     1       4.856   5.517  35.011  0.00  0.00    +0.143 C 
ATOM     33  C   UNL     1       5.618   4.329  34.423  0.00  0.00    +0.133 C 
BRANCH  33  34
ATOM     34  N   UNL     1       4.881   3.755  33.287  0.00  0.00    -0.308 N 
ATOM     35  H   UNL     1       4.799   4.312  32.448  0.00  0.00    +0.149 HD
ATOM     36  C   UNL     1       4.313   2.546  33.291  0.00  0.00    +0.210 C 
ATOM     37  C   UNL     1       4.433   1.733  34.594  0.00  0.00    +0.109 C 
ATOM     38  O   UNL     1       3.714   2.085  32.319  0.00  0.00    -0.276 OA
ENDBRANCH  33  34
BRANCH  30  39
ATOM     39  C   UNL     1       7.045   7.742  34.719  0.00  0.00    +0.414 C 
ATOM     40  O   UNL     1       5.962   8.197  34.353  0.00  0.00    -0.240 OA
ATOM     41  O   UNL     1       8.086   8.253  34.302  0.00  0.00    -0.240 OA
ENDBRANCH  30  39
BRANCH  32  42
ATOM     42  O   UNL     1       3.598   5.067  35.514  0.00  0.00    -0.390 OA
ATOM     43  H   UNL     1       3.427   4.176  35.199  0.00  0.00    +0.210 HD
ENDBRANCH  32  42
BRANCH  30  44
ATOM     44  O   UNL     1       7.871   6.903  36.866  0.00  0.00    -0.343 OA
ATOM     45  C   UNL     1       9.041   6.080  37.101  0.00  0.00    +0.198 C 
ENDBRANCH  30  44
ENDBRANCH  27  28
BRANCH  27  46
ATOM     46  O   UNL     1       7.383   3.296  32.059  0.00  0.00    -0.387 OA
ATOM     47  H   UNL     1       6.491   3.634  31.949  0.00  0.00    +0.210 HD
ENDBRANCH  27  46
ENDBRANCH   1  27
TORSDOF 15
