REMARK VINA RESULT:    -5.322     12.045     15.429
REMARK INTER + INTRA:         -13.525
REMARK INTER:                 -11.366
REMARK INTRA:                  -2.159
REMARK UNBOUND:                -3.380
REMARK  Name = lig_assembled_62.pdb
REMARK  20 active torsions:
REMARK  status: ('A' for Active; 'I' for Inactive)
REMARK    1  A    between atoms: _2  and  _10
REMARK    2  A    between atoms: _5  and  _19
REMARK    3  A    between atoms: _6  and  _10
REMARK    4  A    between atoms: _7  and  _8
REMARK    5  A    between atoms: _7  and  _19
REMARK    6  A    between atoms: _10  and  _11
REMARK    7  A    between atoms: _11  and  _14
REMARK    8  A    between atoms: _12  and  _14
REMARK    9  A    between atoms: _15  and  _35
REMARK   10  A    between atoms: _17  and  _23
REMARK   11  A    between atoms: _18  and  _22
REMARK   12  A    between atoms: _22  and  _23
REMARK   13  A    between atoms: _25  and  _26
REMARK   14  A    between atoms: _27  and  _28
REMARK   15  A    between atoms: _29  and  _31
REMARK   16  A    between atoms: _31  and  _32
REMARK   17  A    between atoms: _31  and  _33
REMARK   18  A    between atoms: _33  and  _34
REMARK   19  A    between atoms: _33  and  _35
REMARK   20  A    between atoms: _36  and  _38
REMARK                            x       y       z     vdW  Elec       q    Type
REMARK                         _______ _______ _______ _____ _____    ______ ____
ROOT
ATOM      1  C   UNL     1       7.213   2.399  34.417  0.00  0.00    +0.163 C 
ENDROOT
BRANCH   1   2
ATOM      2  O   UNL     1       7.195   2.421  35.854  0.00  0.00    -0.388 OA
ATOM      3  H   UNL     1       6.372   2.039  36.170  0.00  0.00    +0.210 HD
ENDBRANCH   1   2
BRANCH   1   4
ATOM      4  C   UNL     1       7.706   3.742  33.852  0.00  0.00    +0.175 C 
BRANCH   4   5
ATOM      5  C   UNL     1       7.091   4.940  34.590  0.00  0.00    +0.176 C 
ATOM      6  O   UNL     1       7.776   5.079  35.866  0.00  0.00    -0.332 OA
ATOM      7  C   UNL     1       7.391   6.244  36.668  0.00  0.00    +0.277 C 
ATOM      8  C   UNL     1       5.859   6.265  36.892  0.00  0.00    +0.110 C 
ATOM      9  C   UNL     1       5.088   6.088  35.567  0.00  0.00    +0.143 C 
ATOM     10  C   UNL     1       5.570   4.849  34.812  0.00  0.00    +0.133 C 
BRANCH  10  11
ATOM     11  N   UNL     1       4.889   4.740  33.512  0.00  0.00    -0.308 N 
ATOM     12  H   UNL     1       5.124   5.416  32.799  0.00  0.00    +0.149 HD
ATOM     13  C   UNL     1       3.982   3.807  33.213  0.00  0.00    +0.210 C 
ATOM     14  C   UNL     1       3.627   2.807  34.331  0.00  0.00    +0.109 C 
ATOM     15  O   UNL     1       3.439   3.731  32.111  0.00  0.00    -0.276 OA
ENDBRANCH  10  11
BRANCH   7  16
ATOM     16  C   UNL     1       7.829   7.552  35.978  0.00  0.00    +0.414 C 
ATOM     17  O   UNL     1       7.837   7.634  34.751  0.00  0.00    -0.240 OA
ATOM     18  O   UNL     1       8.175   8.526  36.649  0.00  0.00    -0.240 OA
ENDBRANCH   7  16
BRANCH   7  19
ATOM     19  O   UNL     1       8.040   6.132  37.961  0.00  0.00    -0.343 OA
ATOM     20  C   UNL     1       8.244   4.775  38.429  0.00  0.00    +0.198 C 
ENDBRANCH   7  19
BRANCH   9  21
ATOM     21  O   UNL     1       3.691   5.962  35.836  0.00  0.00    -0.390 OA
ATOM     22  H   UNL     1       3.261   5.522  35.098  0.00  0.00    +0.210 HD
ENDBRANCH   9  21
ENDBRANCH   4   5
BRANCH   4  23
ATOM     23  O   UNL     1       7.415   3.825  32.443  0.00  0.00    -0.387 OA
ATOM     24  H   UNL     1       6.505   4.104  32.319  0.00  0.00    +0.210 HD
ENDBRANCH   4  23
ENDBRANCH   1   4
BRANCH   1  25
ATOM     25  C   UNL     1       8.119   1.275  33.925  0.00  0.00    +0.141 C 
BRANCH  25  28
ATOM     26  C   UNL     1      10.368   1.716  34.847  0.00  0.00    +0.401 C 
ATOM     27  O   UNL     1      10.067   1.376  35.994  0.00  0.00    -0.226 OA
ATOM     28  N   UNL     1       9.518   1.707  33.820  0.00  0.00    -0.279 N 
ATOM     29  H   UNL     1       9.856   2.013  32.918  0.00  0.00    +0.152 HD
BRANCH  26  30
ATOM     30  O   UNL     1      11.703   2.156  34.581  0.00  0.00    -0.444 OA
BRANCH  30  31
ATOM     31  C   UNL     1      12.298   2.634  35.790  0.00  0.00    +0.292 C 
BRANCH  31  33
ATOM     32  N   UNL     1      13.870   3.812  34.281  0.00  0.00    -0.131 NA
ATOM     33  C   UNL     1      13.248   3.724  35.497  0.00  0.00    +0.120 A 
ATOM     34  C   UNL     1      13.665   4.770  36.290  0.00  0.00    +0.138 A 
ATOM     35  N   UNL     1      14.551   5.451  35.507  0.00  0.00    -0.237 N 
ATOM     36  N   UNL     1      14.664   4.873  34.295  0.00  0.00    -0.065 NA
BRANCH  35  37
ATOM     37  C   UNL     1      15.305   6.659  35.795  0.00  0.00    +0.219 C 
BRANCH  37  38
ATOM     38  C   UNL     1      15.788   7.301  34.505  0.00  0.00    +0.237 C 
ATOM     39  O   UNL     1      15.154   8.141  33.869  0.00  0.00    -0.274 OA
ATOM     40  N   UNL     1      17.041   6.942  34.087  0.00  0.00    -0.328 N 
ATOM     41  H   UNL     1      17.653   6.327  34.609  0.00  0.00    +0.145 HD
ATOM     42  H   UNL     1      17.392   7.361  33.235  0.00  0.00    +0.145 HD
ENDBRANCH  37  38
BRANCH  37  43
ATOM     43  C   UNL     1      16.476   6.357  36.727  0.00  0.00    +0.195 C 
BRANCH  43  44
ATOM     44  O   UNL     1      17.119   7.584  37.096  0.00  0.00    -0.380 OA
ATOM     45  C   UNL     1      17.475   7.600  38.473  0.00  0.00    +0.194 C 
ENDBRANCH  43  44
ENDBRANCH  37  43
ENDBRANCH  35  37
ENDBRANCH  31  33
ENDBRANCH  30  31
ENDBRANCH  26  30
ENDBRANCH  25  28
ENDBRANCH   1  25
TORSDOF 17
