REMARK VINA RESULT:    -5.758      7.549     11.795
REMARK INTER + INTRA:         -12.378
REMARK INTER:                 -10.075
REMARK INTRA:                  -2.303
REMARK UNBOUND:                -2.413
REMARK  Name = lig_assembled_8.pdb
REMARK  16 active torsions:
REMARK  status: ('A' for Active; 'I' for Inactive)
REMARK    1  A    between atoms: _2  and  _9
REMARK    2  A    between atoms: _4  and  _18
REMARK    3  A    between atoms: _6  and  _7
REMARK    4  A    between atoms: _6  and  _18
REMARK    5  A    between atoms: _14  and  _34
REMARK    6  A    between atoms: _16  and  _22
REMARK    7  A    between atoms: _17  and  _21
REMARK    8  A    between atoms: _21  and  _22
REMARK    9  A    between atoms: _24  and  _25
REMARK   10  A    between atoms: _26  and  _27
REMARK   11  A    between atoms: _28  and  _30
REMARK   12  A    between atoms: _30  and  _31
REMARK   13  A    between atoms: _30  and  _32
REMARK   14  A    between atoms: _32  and  _33
REMARK   15  A    between atoms: _32  and  _34
REMARK   16  A    between atoms: _35  and  _37
REMARK                            x       y       z     vdW  Elec       q    Type
REMARK                         _______ _______ _______ _____ _____    ______ ____
ROOT
ATOM      1  C   UNL     1       8.726   2.793  35.892  0.00  0.00    +0.163 C 
ENDROOT
BRANCH   1   2
ATOM      2  O   UNL     1       9.118   3.604  37.011  0.00  0.00    -0.388 OA
ATOM      3  H   UNL     1       8.995   3.108  37.825  0.00  0.00    +0.210 HD
ENDBRANCH   1   2
BRANCH   1   4
ATOM      4  C   UNL     1       9.781   1.725  35.626  0.00  0.00    +0.141 C 
BRANCH   4   7
ATOM      5  C   UNL     1      11.978   2.814  35.315  0.00  0.00    +0.401 C 
ATOM      6  O   UNL     1      12.169   2.984  36.522  0.00  0.00    -0.226 OA
ATOM      7  N   UNL     1      10.886   2.239  34.808  0.00  0.00    -0.279 N 
ATOM      8  H   UNL     1      10.816   2.153  33.803  0.00  0.00    +0.152 HD
BRANCH   5   9
ATOM      9  O   UNL     1      12.970   3.255  34.386  0.00  0.00    -0.444 OA
BRANCH   9  10
ATOM     10  C   UNL     1      14.224   3.401  35.058  0.00  0.00    +0.292 C 
BRANCH  10  12
ATOM     11  N   UNL     1      14.229   5.833  35.474  0.00  0.00    -0.131 NA
ATOM     12  C   UNL     1      14.765   4.756  34.843  0.00  0.00    +0.121 A 
ATOM     13  C   UNL     1      15.812   5.176  34.056  0.00  0.00    +0.143 A 
ATOM     14  N   UNL     1      15.899   6.543  34.255  0.00  0.00    -0.219 N 
ATOM     15  N   UNL     1      14.916   6.906  35.108  0.00  0.00    -0.060 NA
BRANCH  14  16
ATOM     16  C   UNL     1      16.849   7.456  33.700  0.00  0.00    +0.081 A 
ATOM     17  C   UNL     1      16.726   7.792  32.333  0.00  0.00    +0.029 A 
ATOM     18  C   UNL     1      17.627   8.660  31.709  0.00  0.00    +0.002 A 
ATOM     19  C   UNL     1      18.671   9.213  32.434  0.00  0.00    +0.001 A 
ATOM     20  C   UNL     1      18.809   8.903  33.784  0.00  0.00    +0.017 A 
ATOM     21  C   UNL     1      17.909   8.033  34.429  0.00  0.00    +0.043 A 
ATOM     22 BR   UNL     1      18.299   7.767  36.275  0.00  0.00    -0.048 Br
ENDBRANCH  14  16
ENDBRANCH  10  12
ENDBRANCH   9  10
ENDBRANCH   5   9
ENDBRANCH   4   7
ENDBRANCH   1   4
BRANCH   1  23
ATOM     23  C   UNL     1       8.535   3.652  34.630  0.00  0.00    +0.175 C 
BRANCH  23  24
ATOM     24  C   UNL     1       7.390   4.663  34.787  0.00  0.00    +0.176 C 
ATOM     25  O   UNL     1       7.821   5.686  35.727  0.00  0.00    -0.332 OA
ATOM     26  C   UNL     1       6.889   6.801  35.922  0.00  0.00    +0.277 C 
ATOM     27  C   UNL     1       5.491   6.273  36.328  0.00  0.00    +0.110 C 
ATOM     28  C   UNL     1       5.004   5.161  35.375  0.00  0.00    +0.143 C 
ATOM     29  C   UNL     1       6.051   4.054  35.243  0.00  0.00    +0.133 C 
BRANCH  29  30
ATOM     30  N   UNL     1       5.612   3.044  34.267  0.00  0.00    -0.308 N 
ATOM     31  H   UNL     1       5.572   3.315  33.294  0.00  0.00    +0.149 HD
ATOM     32  C   UNL     1       5.264   1.794  34.582  0.00  0.00    +0.210 C 
ATOM     33  C   UNL     1       5.311   1.421  36.076  0.00  0.00    +0.109 C 
ATOM     34  O   UNL     1       4.915   0.965  33.741  0.00  0.00    -0.276 OA
ENDBRANCH  29  30
BRANCH  26  35
ATOM     35  C   UNL     1       6.769   7.644  34.636  0.00  0.00    +0.414 C 
ATOM     36  O   UNL     1       5.665   8.015  34.239  0.00  0.00    -0.240 OA
ATOM     37  O   UNL     1       7.774   7.954  33.996  0.00  0.00    -0.240 OA
ENDBRANCH  26  35
BRANCH  28  38
ATOM     38  O   UNL     1       3.787   4.601  35.871  0.00  0.00    -0.390 OA
ATOM     39  H   UNL     1       3.987   3.859  36.447  0.00  0.00    +0.210 HD
ENDBRANCH  28  38
BRANCH  26  40
ATOM     40  O   UNL     1       7.397   7.626  37.001  0.00  0.00    -0.343 OA
ATOM     41  C   UNL     1       8.088   6.904  38.052  0.00  0.00    +0.198 C 
ENDBRANCH  26  40
ENDBRANCH  23  24
BRANCH  23  42
ATOM     42  O   UNL     1       8.300   2.809  33.485  0.00  0.00    -0.387 OA
ATOM     43  H   UNL     1       8.617   1.922  33.670  0.00  0.00    +0.210 HD
ENDBRANCH  23  42
ENDBRANCH   1  23
TORSDOF 14
