REMARK VINA RESULT:    -5.777     14.462     18.387
REMARK INTER + INTRA:         -13.723
REMARK INTER:                 -11.337
REMARK INTRA:                  -2.386
REMARK UNBOUND:                -2.036
REMARK  Name = lig_assembled_45.pdb
REMARK  24 active torsions:
REMARK  status: ('A' for Active; 'I' for Inactive)
REMARK    1  A    between atoms: _2  and  _10
REMARK    2  A    between atoms: _3  and  _12
REMARK    3  A    between atoms: _3  and  _13
REMARK    4  A    between atoms: _3  and  _14
REMARK    5  A    between atoms: _3  and  _16
REMARK    6  A    between atoms: _5  and  _21
REMARK    7  A    between atoms: _6  and  _16
REMARK    8  A    between atoms: _7  and  _8
REMARK    9  A    between atoms: _7  and  _21
REMARK   10  A    between atoms: _10  and  _11
REMARK   11  A    between atoms: _11  and  _12
REMARK   12  A    between atoms: _14  and  _15
REMARK   13  A    between atoms: _17  and  _37
REMARK   14  A    between atoms: _19  and  _25
REMARK   15  A    between atoms: _20  and  _24
REMARK   16  A    between atoms: _24  and  _25
REMARK   17  A    between atoms: _27  and  _28
REMARK   18  A    between atoms: _29  and  _30
REMARK   19  A    between atoms: _31  and  _33
REMARK   20  A    between atoms: _33  and  _34
REMARK   21  A    between atoms: _33  and  _35
REMARK   22  A    between atoms: _35  and  _36
REMARK   23  A    between atoms: _35  and  _37
REMARK   24  A    between atoms: _38  and  _40
REMARK                            x       y       z     vdW  Elec       q    Type
REMARK                         _______ _______ _______ _____ _____    ______ ____
ROOT
ATOM      1  C   UNL     1      16.943   2.467  22.971  0.00  0.00    +0.163 C 
ENDROOT
BRANCH   1   2
ATOM      2  O   UNL     1      17.455   1.566  21.975  0.00  0.00    -0.388 OA
ATOM      3  H   UNL     1      16.753   1.332  21.364  0.00  0.00    +0.210 HD
ENDBRANCH   1   2
BRANCH   1   4
ATOM      4  C   UNL     1      17.419   2.061  24.377  0.00  0.00    +0.175 C 
BRANCH   4   5
ATOM      5  C   UNL     1      17.917   0.609  24.421  0.00  0.00    +0.176 C 
ATOM      6  O   UNL     1      16.790  -0.260  24.124  0.00  0.00    -0.332 OA
ATOM      7  C   UNL     1      17.101  -1.689  24.018  0.00  0.00    +0.277 C 
ATOM      8  C   UNL     1      17.820  -2.183  25.298  0.00  0.00    +0.110 C 
ATOM      9  C   UNL     1      19.008  -1.271  25.671  0.00  0.00    +0.143 C 
ATOM     10  C   UNL     1      18.572   0.193  25.751  0.00  0.00    +0.133 C 
BRANCH  10  11
ATOM     11  N   UNL     1      19.729   1.061  26.022  0.00  0.00    -0.308 N 
ATOM     12  H   UNL     1      20.503   1.031  25.374  0.00  0.00    +0.149 HD
ATOM     13  C   UNL     1      19.823   1.885  27.069  0.00  0.00    +0.210 C 
ATOM     14  C   UNL     1      18.638   1.888  28.053  0.00  0.00    +0.109 C 
ATOM     15  O   UNL     1      20.798   2.611  27.263  0.00  0.00    -0.276 OA
ENDBRANCH  10  11
BRANCH   7  16
ATOM     16  C   UNL     1      17.991  -1.965  22.788  0.00  0.00    +0.414 C 
ATOM     17  O   UNL     1      18.586  -3.036  22.681  0.00  0.00    -0.240 OA
ATOM     18  O   UNL     1      18.113  -1.117  21.903  0.00  0.00    -0.240 OA
ENDBRANCH   7  16
BRANCH   9  19
ATOM     19  O   UNL     1      19.545  -1.672  26.933  0.00  0.00    -0.390 OA
ATOM     20  H   UNL     1      18.992  -1.330  27.640  0.00  0.00    +0.210 HD
ENDBRANCH   9  19
BRANCH   7  21
ATOM     21  O   UNL     1      15.851  -2.413  23.888  0.00  0.00    -0.343 OA
ATOM     22  C   UNL     1      15.571  -3.350  24.959  0.00  0.00    +0.198 C 
ENDBRANCH   7  21
ENDBRANCH   4   5
BRANCH   4  23
ATOM     23  O   UNL     1      16.359   2.251  25.335  0.00  0.00    -0.387 OA
ATOM     24  H   UNL     1      15.607   2.664  24.902  0.00  0.00    +0.210 HD
ENDBRANCH   4  23
ENDBRANCH   1   4
BRANCH   1  25
ATOM     25  C   UNL     1      17.398   3.891  22.671  0.00  0.00    +0.141 C 
BRANCH  25  28
ATOM     26  C   UNL     1      18.623   5.704  23.819  0.00  0.00    +0.401 C 
ATOM     27  O   UNL     1      18.267   6.576  23.024  0.00  0.00    -0.226 OA
ATOM     28  N   UNL     1      18.270   4.421  23.726  0.00  0.00    -0.279 N 
ATOM     29  H   UNL     1      18.621   3.778  24.422  0.00  0.00    +0.152 HD
BRANCH  26  30
ATOM     30  O   UNL     1      19.471   6.065  24.912  0.00  0.00    -0.444 OA
BRANCH  30  31
ATOM     31  C   UNL     1      18.943   5.524  26.126  0.00  0.00    +0.292 C 
BRANCH  31  33
ATOM     32  N   UNL     1      19.050   7.869  26.928  0.00  0.00    -0.131 NA
ATOM     33  C   UNL     1      19.010   6.528  27.204  0.00  0.00    +0.120 A 
ATOM     34  C   UNL     1      19.047   6.349  28.568  0.00  0.00    +0.137 A 
ATOM     35  N   UNL     1      19.106   7.620  29.053  0.00  0.00    -0.251 N 
ATOM     36  N   UNL     1      19.114   8.530  28.076  0.00  0.00    -0.065 NA
BRANCH  35  37
ATOM     37  C   UNL     1      19.183   8.027  30.441  0.00  0.00    +0.150 C 
BRANCH  37  38
ATOM     38  C   UNL     1      17.814   8.180  31.089  0.00  0.00    +0.074 C 
BRANCH  38  39
ATOM     39  C   UNL     1      17.744   9.031  32.364  0.00  0.00    +0.134 C 
BRANCH  39  40
ATOM     40  N   UNL     1      16.647   8.678  33.423  0.00  0.00    +0.241 N 
ATOM     41  C   UNL     1      15.582   7.791  32.755  0.00  0.00    +0.192 C 
BRANCH  40  42
ATOM     42  C   UNL     1      15.979  10.035  33.824  0.00  0.00    +0.129 C 
ATOM     43  C   UNL     1      16.057  11.108  32.742  0.00  0.00    +0.060 C 
ENDBRANCH  40  42
BRANCH  40  44
ATOM     44  C   UNL     1      17.171   7.965  34.683  0.00  0.00    +0.129 C 
ATOM     45  C   UNL     1      16.114   7.722  35.747  0.00  0.00    +0.060 C 
ENDBRANCH  40  44
ENDBRANCH  39  40
ENDBRANCH  38  39
ENDBRANCH  37  38
ENDBRANCH  35  37
ENDBRANCH  31  33
ENDBRANCH  30  31
ENDBRANCH  26  30
ENDBRANCH  25  28
ENDBRANCH   1  25
TORSDOF 19
