REMARK VINA RESULT:    -7.124      5.034      6.708
REMARK INTER + INTRA:         -14.466
REMARK INTER:                 -12.171
REMARK INTRA:                  -2.294
REMARK UNBOUND:                -2.135
REMARK  Name = lig_assembled_51.pdb
REMARK  16 active torsions:
REMARK  status: ('A' for Active; 'I' for Inactive)
REMARK    1  A    between atoms: _2  and  _9
REMARK    2  A    between atoms: _4  and  _22
REMARK    3  A    between atoms: _6  and  _7
REMARK    4  A    between atoms: _6  and  _22
REMARK    5  A    between atoms: _18  and  _38
REMARK    6  A    between atoms: _20  and  _26
REMARK    7  A    between atoms: _21  and  _25
REMARK    8  A    between atoms: _25  and  _26
REMARK    9  A    between atoms: _28  and  _29
REMARK   10  A    between atoms: _30  and  _31
REMARK   11  A    between atoms: _32  and  _34
REMARK   12  A    between atoms: _34  and  _35
REMARK   13  A    between atoms: _34  and  _36
REMARK   14  A    between atoms: _36  and  _37
REMARK   15  A    between atoms: _36  and  _38
REMARK   16  A    between atoms: _39  and  _41
REMARK                            x       y       z     vdW  Elec       q    Type
REMARK                         _______ _______ _______ _____ _____    ______ ____
ROOT
ATOM      1  C   UNL     1       7.920   2.426  34.254  0.00  0.00    +0.163 C 
ENDROOT
BRANCH   1   2
ATOM      2  O   UNL     1       8.600   2.710  35.487  0.00  0.00    -0.388 OA
ATOM      3  H   UNL     1       9.467   2.297  35.477  0.00  0.00    +0.210 HD
ENDBRANCH   1   2
BRANCH   1   4
ATOM      4  C   UNL     1       8.623   1.289  33.520  0.00  0.00    +0.141 C 
BRANCH   4   7
ATOM      5  C   UNL     1       7.072  -0.635  33.546  0.00  0.00    +0.401 C 
ATOM      6  O   UNL     1       7.270  -0.899  34.734  0.00  0.00    -0.226 OA
ATOM      7  N   UNL     1       7.666   0.366  32.896  0.00  0.00    -0.279 N 
ATOM      8  H   UNL     1       7.446   0.497  31.918  0.00  0.00    +0.152 HD
BRANCH   5   9
ATOM      9  O   UNL     1       6.157  -1.441  32.799  0.00  0.00    -0.444 OA
BRANCH   9  10
ATOM     10  C   UNL     1       5.661  -0.693  31.686  0.00  0.00    +0.292 C 
BRANCH  10  12
ATOM     11  N   UNL     1       7.459  -1.651  30.280  0.00  0.00    -0.131 NA
ATOM     12  C   UNL     1       6.155  -1.267  30.420  0.00  0.00    +0.120 A 
ATOM     13  C   UNL     1       5.486  -1.511  29.242  0.00  0.00    +0.137 A 
ATOM     14  N   UNL     1       6.439  -2.040  28.416  0.00  0.00    -0.245 N 
ATOM     15  N   UNL     1       7.623  -2.122  29.051  0.00  0.00    -0.065 NA
BRANCH  14  16
ATOM     16  C   UNL     1       6.280  -2.472  27.025  0.00  0.00    +0.066 C 
ATOM     17  C   UNL     1       5.937  -3.986  26.974  0.00  0.00    +0.034 C 
ATOM     18  C   UNL     1       5.720  -4.450  25.523  0.00  0.00    -0.008 C 
ATOM     19  C   UNL     1       4.569  -3.642  24.900  0.00  0.00    +0.007 C 
ATOM     20  C   UNL     1       4.913  -2.144  24.902  0.00  0.00    -0.008 C 
ATOM     21  C   UNL     1       6.202  -1.917  24.098  0.00  0.00    +0.007 C 
ATOM     22  C   UNL     1       7.357  -2.715  24.723  0.00  0.00    -0.008 C 
ATOM     23  C   UNL     1       7.004  -4.210  24.715  0.00  0.00    +0.007 C 
ATOM     24  C   UNL     1       5.129  -1.676  26.351  0.00  0.00    +0.034 C 
ATOM     25  C   UNL     1       7.568  -2.250  26.175  0.00  0.00    +0.034 C 
ENDBRANCH  14  16
ENDBRANCH  10  12
ENDBRANCH   9  10
ENDBRANCH   5   9
ENDBRANCH   4   7
ENDBRANCH   1   4
BRANCH   1  26
ATOM     26  C   UNL     1       7.874   3.670  33.351  0.00  0.00    +0.175 C 
BRANCH  26  27
ATOM     27  C   UNL     1       6.995   4.782  33.942  0.00  0.00    +0.176 C 
ATOM     28  O   UNL     1       7.711   5.370  35.063  0.00  0.00    -0.332 OA
ATOM     29  C   UNL     1       7.065   6.527  35.691  0.00  0.00    +0.277 C 
ATOM     30  C   UNL     1       5.620   6.173  36.121  0.00  0.00    +0.110 C 
ATOM     31  C   UNL     1       4.829   5.515  34.970  0.00  0.00    +0.143 C 
ATOM     32  C   UNL     1       5.593   4.325  34.389  0.00  0.00    +0.133 C 
BRANCH  32  33
ATOM     33  N   UNL     1       4.870   3.761  33.238  0.00  0.00    -0.308 N 
ATOM     34  H   UNL     1       4.814   4.318  32.397  0.00  0.00    +0.149 HD
ATOM     35  C   UNL     1       4.284   2.561  33.233  0.00  0.00    +0.210 C 
ATOM     36  C   UNL     1       4.365   1.747  34.538  0.00  0.00    +0.109 C 
ATOM     37  O   UNL     1       3.698   2.108  32.249  0.00  0.00    -0.276 OA
ENDBRANCH  32  33
BRANCH  29  38
ATOM     38  C   UNL     1       7.036   7.728  34.723  0.00  0.00    +0.414 C 
ATOM     39  O   UNL     1       5.961   8.197  34.349  0.00  0.00    -0.240 OA
ATOM     40  O   UNL     1       8.085   8.229  34.317  0.00  0.00    -0.240 OA
ENDBRANCH  29  38
BRANCH  31  41
ATOM     41  O   UNL     1       3.560   5.070  35.452  0.00  0.00    -0.390 OA
ATOM     42  H   UNL     1       2.990   4.864  34.708  0.00  0.00    +0.210 HD
ENDBRANCH  31  41
BRANCH  29  43
ATOM     43  O   UNL     1       7.823   6.874  36.878  0.00  0.00    -0.343 OA
ATOM     44  C   UNL     1       9.107   6.212  37.000  0.00  0.00    +0.198 C 
ENDBRANCH  29  43
ENDBRANCH  26  27
BRANCH  26  45
ATOM     45  O   UNL     1       7.406   3.313  32.036  0.00  0.00    -0.387 OA
ATOM     46  H   UNL     1       6.812   2.561  32.100  0.00  0.00    +0.210 HD
ENDBRANCH  26  45
ENDBRANCH   1  26
TORSDOF 14
