REMARK VINA RESULT:    -5.765      2.628      5.133
REMARK INTER + INTRA:         -13.698
REMARK INTER:                 -11.485
REMARK INTRA:                  -2.213
REMARK UNBOUND:                -2.036
REMARK  Name = lig_assembled_45.pdb
REMARK  24 active torsions:
REMARK  status: ('A' for Active; 'I' for Inactive)
REMARK    1  A    between atoms: _2  and  _10
REMARK    2  A    between atoms: _3  and  _12
REMARK    3  A    between atoms: _3  and  _13
REMARK    4  A    between atoms: _3  and  _14
REMARK    5  A    between atoms: _3  and  _16
REMARK    6  A    between atoms: _5  and  _21
REMARK    7  A    between atoms: _6  and  _16
REMARK    8  A    between atoms: _7  and  _8
REMARK    9  A    between atoms: _7  and  _21
REMARK   10  A    between atoms: _10  and  _11
REMARK   11  A    between atoms: _11  and  _12
REMARK   12  A    between atoms: _14  and  _15
REMARK   13  A    between atoms: _17  and  _37
REMARK   14  A    between atoms: _19  and  _25
REMARK   15  A    between atoms: _20  and  _24
REMARK   16  A    between atoms: _24  and  _25
REMARK   17  A    between atoms: _27  and  _28
REMARK   18  A    between atoms: _29  and  _30
REMARK   19  A    between atoms: _31  and  _33
REMARK   20  A    between atoms: _33  and  _34
REMARK   21  A    between atoms: _33  and  _35
REMARK   22  A    between atoms: _35  and  _36
REMARK   23  A    between atoms: _35  and  _37
REMARK   24  A    between atoms: _38  and  _40
REMARK                            x       y       z     vdW  Elec       q    Type
REMARK                         _______ _______ _______ _____ _____    ______ ____
ROOT
ATOM      1  C   UNL     1       6.049   2.328  33.378  0.00  0.00    +0.163 C 
ENDROOT
BRANCH   1   2
ATOM      2  O   UNL     1       6.105   1.120  34.154  0.00  0.00    -0.388 OA
ATOM      3  H   UNL     1       6.286   0.375  33.575  0.00  0.00    +0.210 HD
ENDBRANCH   1   2
BRANCH   1   4
ATOM      4  C   UNL     1       7.463   2.833  33.044  0.00  0.00    +0.175 C 
BRANCH   4   5
ATOM      5  C   UNL     1       8.227   3.284  34.297  0.00  0.00    +0.176 C 
ATOM      6  O   UNL     1       8.726   2.095  34.969  0.00  0.00    -0.332 OA
ATOM      7  C   UNL     1       9.576   2.337  36.138  0.00  0.00    +0.277 C 
ATOM      8  C   UNL     1       8.847   3.246  37.158  0.00  0.00    +0.110 C 
ATOM      9  C   UNL     1       8.271   4.509  36.484  0.00  0.00    +0.143 C 
ATOM     10  C   UNL     1       7.405   4.142  35.279  0.00  0.00    +0.133 C 
BRANCH  10  11
ATOM     11  N   UNL     1       6.933   5.355  34.594  0.00  0.00    -0.308 N 
ATOM     12  H   UNL     1       7.613   5.908  34.092  0.00  0.00    +0.149 HD
ATOM     13  C   UNL     1       5.664   5.774  34.593  0.00  0.00    +0.210 C 
ATOM     14  C   UNL     1       4.657   4.923  35.390  0.00  0.00    +0.109 C 
ATOM     15  O   UNL     1       5.295   6.787  33.999  0.00  0.00    -0.276 OA
ENDBRANCH  10  11
BRANCH   7  16
ATOM     16  C   UNL     1      10.908   2.996  35.720  0.00  0.00    +0.414 C 
ATOM     17  O   UNL     1      11.451   3.817  36.457  0.00  0.00    -0.240 OA
ATOM     18  O   UNL     1      11.438   2.705  34.647  0.00  0.00    -0.240 OA
ENDBRANCH   7  16
BRANCH   9  19
ATOM     19  O   UNL     1       7.481   5.239  37.425  0.00  0.00    -0.390 OA
ATOM     20  H   UNL     1       6.565   4.962  37.358  0.00  0.00    +0.210 HD
ENDBRANCH   9  19
BRANCH   7  21
ATOM     21  O   UNL     1       9.842   1.060  36.773  0.00  0.00    -0.343 OA
ATOM     22  C   UNL     1       9.540  -0.102  35.959  0.00  0.00    +0.198 C 
ENDBRANCH   7  21
ENDBRANCH   4   5
BRANCH   4  23
ATOM     23  O   UNL     1       7.393   3.912  32.090  0.00  0.00    -0.387 OA
ATOM     24  H   UNL     1       8.143   4.498  32.213  0.00  0.00    +0.210 HD
ENDBRANCH   4  23
ENDBRANCH   1   4
BRANCH   1  25
ATOM     25  C   UNL     1       5.277   2.083  32.085  0.00  0.00    +0.141 C 
BRANCH  25  28
ATOM     26  C   UNL     1       3.094   3.228  32.250  0.00  0.00    +0.401 C 
ATOM     27  O   UNL     1       2.585   2.359  32.963  0.00  0.00    -0.226 OA
ATOM     28  N   UNL     1       4.344   3.177  31.789  0.00  0.00    -0.279 N 
ATOM     29  H   UNL     1       4.667   3.934  31.203  0.00  0.00    +0.152 HD
BRANCH  26  30
ATOM     30  O   UNL     1       2.312   4.367  31.879  0.00  0.00    -0.444 OA
BRANCH  30  31
ATOM     31  C   UNL     1       0.950   3.971  31.694  0.00  0.00    +0.292 C 
BRANCH  31  33
ATOM     32  N   UNL     1       1.638   3.678  29.329  0.00  0.00    -0.131 NA
ATOM     33  C   UNL     1       0.645   3.850  30.256  0.00  0.00    +0.120 A 
ATOM     34  C   UNL     1      -0.571   3.885  29.611  0.00  0.00    +0.137 A 
ATOM     35  N   UNL     1      -0.238   3.726  28.301  0.00  0.00    -0.251 N 
ATOM     36  N   UNL     1       1.080   3.608  28.127  0.00  0.00    -0.065 NA
BRANCH  35  37
ATOM     37  C   UNL     1      -1.136   3.703  27.164  0.00  0.00    +0.150 C 
BRANCH  37  38
ATOM     38  C   UNL     1      -0.538   4.354  25.924  0.00  0.00    +0.074 C 
BRANCH  38  39
ATOM     39  C   UNL     1      -0.273   3.437  24.722  0.00  0.00    +0.134 C 
BRANCH  39  40
ATOM     40  N   UNL     1       1.137   3.503  24.047  0.00  0.00    +0.241 N 
ATOM     41  C   UNL     1       1.045   2.877  22.645  0.00  0.00    +0.192 C 
BRANCH  40  42
ATOM     42  C   UNL     1       2.079   2.613  24.925  0.00  0.00    +0.129 C 
ATOM     43  C   UNL     1       2.811   1.527  24.144  0.00  0.00    +0.060 C 
ENDBRANCH  40  42
BRANCH  40  44
ATOM     44  C   UNL     1       1.729   4.920  23.923  0.00  0.00    +0.129 C 
ATOM     45  C   UNL     1       1.713   5.481  22.511  0.00  0.00    +0.060 C 
ENDBRANCH  40  44
ENDBRANCH  39  40
ENDBRANCH  38  39
ENDBRANCH  37  38
ENDBRANCH  35  37
ENDBRANCH  31  33
ENDBRANCH  30  31
ENDBRANCH  26  30
ENDBRANCH  25  28
ENDBRANCH   1  25
TORSDOF 19
