REMARK VINA RESULT:    -6.401      7.802     13.028
REMARK INTER + INTRA:         -13.213
REMARK INTER:                 -11.005
REMARK INTRA:                  -2.208
REMARK UNBOUND:                -2.135
REMARK  Name = lig_assembled_51.pdb
REMARK  16 active torsions:
REMARK  status: ('A' for Active; 'I' for Inactive)
REMARK    1  A    between atoms: _2  and  _9
REMARK    2  A    between atoms: _4  and  _22
REMARK    3  A    between atoms: _6  and  _7
REMARK    4  A    between atoms: _6  and  _22
REMARK    5  A    between atoms: _18  and  _38
REMARK    6  A    between atoms: _20  and  _26
REMARK    7  A    between atoms: _21  and  _25
REMARK    8  A    between atoms: _25  and  _26
REMARK    9  A    between atoms: _28  and  _29
REMARK   10  A    between atoms: _30  and  _31
REMARK   11  A    between atoms: _32  and  _34
REMARK   12  A    between atoms: _34  and  _35
REMARK   13  A    between atoms: _34  and  _36
REMARK   14  A    between atoms: _36  and  _37
REMARK   15  A    between atoms: _36  and  _38
REMARK   16  A    between atoms: _39  and  _41
REMARK                            x       y       z     vdW  Elec       q    Type
REMARK                         _______ _______ _______ _____ _____    ______ ____
ROOT
ATOM      1  C   UNL     1       8.477   4.499  38.592  0.00  0.00    +0.163 C 
ENDROOT
BRANCH   1   2
ATOM      2  O   UNL     1       8.248   5.879  38.262  0.00  0.00    -0.388 OA
ATOM      3  H   UNL     1       9.090   6.330  38.167  0.00  0.00    +0.210 HD
ENDBRANCH   1   2
BRANCH   1   4
ATOM      4  C   UNL     1       9.938   4.289  38.974  0.00  0.00    +0.141 C 
BRANCH   4   7
ATOM      5  C   UNL     1      11.968   4.643  37.610  0.00  0.00    +0.401 C 
ATOM      6  O   UNL     1      12.472   5.446  38.399  0.00  0.00    -0.226 OA
ATOM      7  N   UNL     1      10.784   4.059  37.796  0.00  0.00    -0.279 N 
ATOM      8  H   UNL     1      10.450   3.421  37.087  0.00  0.00    +0.152 HD
BRANCH   5   9
ATOM      9  O   UNL     1      12.677   4.307  36.414  0.00  0.00    -0.444 OA
BRANCH   9  10
ATOM     10  C   UNL     1      14.082   4.455  36.634  0.00  0.00    +0.292 C 
BRANCH  10  12
ATOM     11  N   UNL     1      14.657   5.062  34.304  0.00  0.00    -0.131 NA
ATOM     12  C   UNL     1      14.665   5.370  35.636  0.00  0.00    +0.120 A 
ATOM     13  C   UNL     1      15.275   6.592  35.810  0.00  0.00    +0.137 A 
ATOM     14  N   UNL     1      15.624   6.978  34.545  0.00  0.00    -0.245 N 
ATOM     15  N   UNL     1      15.245   6.051  33.646  0.00  0.00    -0.065 NA
BRANCH  14  16
ATOM     16  C   UNL     1      16.319   8.203  34.142  0.00  0.00    +0.066 C 
ATOM     17  C   UNL     1      16.840   8.957  35.396  0.00  0.00    +0.034 C 
ATOM     18  C   UNL     1      17.614  10.224  34.993  0.00  0.00    -0.008 C 
ATOM     19  C   UNL     1      18.804   9.828  34.102  0.00  0.00    +0.007 C 
ATOM     20  C   UNL     1      18.301   9.120  32.833  0.00  0.00    -0.008 C 
ATOM     21  C   UNL     1      17.365  10.063  32.062  0.00  0.00    +0.007 C 
ATOM     22  C   UNL     1      16.170  10.453  32.945  0.00  0.00    -0.008 C 
ATOM     23  C   UNL     1      16.683  11.160  34.209  0.00  0.00    +0.007 C 
ATOM     24  C   UNL     1      17.529   7.852  33.232  0.00  0.00    +0.034 C 
ATOM     25  C   UNL     1      15.402   9.183  33.350  0.00  0.00    +0.034 C 
ENDBRANCH  14  16
ENDBRANCH  10  12
ENDBRANCH   9  10
ENDBRANCH   5   9
ENDBRANCH   4   7
ENDBRANCH   1   4
BRANCH   1  26
ATOM     26  C   UNL     1       8.119   3.584  37.408  0.00  0.00    +0.175 C 
BRANCH  26  27
ATOM     27  C   UNL     1       7.672   4.383  36.175  0.00  0.00    +0.176 C 
ATOM     28  O   UNL     1       6.262   4.700  36.335  0.00  0.00    -0.332 OA
ATOM     29  C   UNL     1       5.683   5.557  35.295  0.00  0.00    +0.277 C 
ATOM     30  C   UNL     1       5.926   4.946  33.893  0.00  0.00    +0.110 C 
ATOM     31  C   UNL     1       7.407   4.562  33.688  0.00  0.00    +0.143 C 
ATOM     32  C   UNL     1       7.906   3.674  34.828  0.00  0.00    +0.133 C 
BRANCH  32  33
ATOM     33  N   UNL     1       9.341   3.387  34.667  0.00  0.00    -0.308 N 
ATOM     34  H   UNL     1       9.975   4.171  34.609  0.00  0.00    +0.149 HD
ATOM     35  C   UNL     1       9.859   2.158  34.592  0.00  0.00    +0.210 C 
ATOM     36  C   UNL     1       8.863   0.985  34.656  0.00  0.00    +0.109 C 
ATOM     37  O   UNL     1      11.066   1.948  34.472  0.00  0.00    -0.276 OA
ENDBRANCH  32  33
BRANCH  29  38
ATOM     38  C   UNL     1       6.291   6.973  35.352  0.00  0.00    +0.414 C 
ATOM     39  O   UNL     1       6.884   7.353  36.361  0.00  0.00    -0.240 OA
ATOM     40  O   UNL     1       6.187   7.736  34.391  0.00  0.00    -0.240 OA
ENDBRANCH  29  38
BRANCH  31  41
ATOM     41  O   UNL     1       7.557   3.868  32.449  0.00  0.00    -0.390 OA
ATOM     42  H   UNL     1       8.147   3.120  32.571  0.00  0.00    +0.210 HD
ENDBRANCH  31  41
BRANCH  29  43
ATOM     43  O   UNL     1       4.251   5.630  35.520  0.00  0.00    -0.343 OA
ATOM     44  C   UNL     1       3.830   5.351  36.879  0.00  0.00    +0.198 C 
ENDBRANCH  29  43
ENDBRANCH  26  27
BRANCH  26  45
ATOM     45  O   UNL     1       7.090   2.651  37.795  0.00  0.00    -0.387 OA
ATOM     46  H   UNL     1       7.129   2.506  38.743  0.00  0.00    +0.210 HD
ENDBRANCH  26  45
ENDBRANCH   1  26
TORSDOF 14
