REMARK VINA RESULT:    -6.399     14.428     16.417
REMARK INTER + INTRA:         -14.056
REMARK INTER:                 -11.341
REMARK INTRA:                  -2.715
REMARK UNBOUND:                -2.608
REMARK  Name = lig_assembled_4.pdb
REMARK  19 active torsions:
REMARK  status: ('A' for Active; 'I' for Inactive)
REMARK    1  A    between atoms: _2  and  _9
REMARK    2  A    between atoms: _4  and  _21
REMARK    3  A    between atoms: _6  and  _7
REMARK    4  A    between atoms: _6  and  _21
REMARK    5  A    between atoms: _10  and  _11
REMARK    6  A    between atoms: _11  and  _12
REMARK    7  A    between atoms: _11  and  _13
REMARK    8  A    between atoms: _17  and  _37
REMARK    9  A    between atoms: _19  and  _25
REMARK   10  A    between atoms: _20  and  _24
REMARK   11  A    between atoms: _24  and  _25
REMARK   12  A    between atoms: _27  and  _28
REMARK   13  A    between atoms: _29  and  _30
REMARK   14  A    between atoms: _31  and  _33
REMARK   15  A    between atoms: _33  and  _34
REMARK   16  A    between atoms: _33  and  _35
REMARK   17  A    between atoms: _35  and  _36
REMARK   18  A    between atoms: _35  and  _37
REMARK   19  A    between atoms: _38  and  _40
REMARK                            x       y       z     vdW  Elec       q    Type
REMARK                         _______ _______ _______ _____ _____    ______ ____
ROOT
ATOM      1  C   UNL     1      17.243   3.419  23.006  0.00  0.00    +0.163 C 
ENDROOT
BRANCH   1   2
ATOM      2  O   UNL     1      15.983   2.936  23.499  0.00  0.00    -0.388 OA
ATOM      3  H   UNL     1      15.479   3.668  23.864  0.00  0.00    +0.210 HD
ENDBRANCH   1   2
BRANCH   1   4
ATOM      4  C   UNL     1      17.527   2.827  21.629  0.00  0.00    +0.141 C 
BRANCH   4   7
ATOM      5  C   UNL     1      18.638   0.652  21.258  0.00  0.00    +0.401 C 
ATOM      6  O   UNL     1      19.668   1.150  20.797  0.00  0.00    -0.226 OA
ATOM      7  N   UNL     1      17.585   1.361  21.666  0.00  0.00    -0.279 N 
ATOM      8  H   UNL     1      16.782   0.860  22.020  0.00  0.00    +0.152 HD
BRANCH   5   9
ATOM      9  O   UNL     1      18.544  -0.771  21.366  0.00  0.00    -0.444 OA
BRANCH   9  10
ATOM     10  C   UNL     1      18.806  -1.166  22.716  0.00  0.00    +0.292 C 
BRANCH  10  12
ATOM     11  N   UNL     1      16.530  -0.984  23.653  0.00  0.00    -0.131 NA
ATOM     12  C   UNL     1      17.603  -1.756  23.330  0.00  0.00    +0.121 A 
ATOM     13  C   UNL     1      17.352  -3.057  23.704  0.00  0.00    +0.143 A 
ATOM     14  N   UNL     1      16.147  -3.005  24.380  0.00  0.00    -0.219 N 
ATOM     15  N   UNL     1      15.643  -1.757  24.265  0.00  0.00    -0.060 NA
BRANCH  14  16
ATOM     16  C   UNL     1      15.516  -4.055  25.112  0.00  0.00    +0.070 A 
ATOM     17  C   UNL     1      15.198  -5.319  24.545  0.00  0.00    -0.019 A 
ATOM     18  C   UNL     1      14.544  -6.259  25.375  0.00  0.00    +0.006 A 
ATOM     19  C   UNL     1      14.203  -5.971  26.697  0.00  0.00    +0.000 A 
ATOM     20  C   UNL     1      14.526  -4.737  27.241  0.00  0.00    +0.002 A 
ATOM     21  C   UNL     1      15.175  -3.785  26.456  0.00  0.00    +0.028 A 
BRANCH  17  22
ATOM     22  C   UNL     1      15.507  -5.720  23.102  0.00  0.00    +0.015 C 
ATOM     23  C   UNL     1      14.584  -5.099  22.041  0.00  0.00    +0.012 C 
ATOM     24  C   UNL     1      15.498  -7.245  22.969  0.00  0.00    +0.012 C 
ENDBRANCH  17  22
ENDBRANCH  14  16
ENDBRANCH  10  12
ENDBRANCH   9  10
ENDBRANCH   5   9
ENDBRANCH   4   7
ENDBRANCH   1   4
BRANCH   1  25
ATOM     25  C   UNL     1      18.387   3.054  23.968  0.00  0.00    +0.175 C 
BRANCH  25  26
ATOM     26  C   UNL     1      18.417   3.967  25.203  0.00  0.00    +0.176 C 
ATOM     27  O   UNL     1      19.711   4.627  25.240  0.00  0.00    -0.332 OA
ATOM     28  C   UNL     1      19.884   5.624  26.301  0.00  0.00    +0.277 C 
ATOM     29  C   UNL     1      19.574   5.002  27.684  0.00  0.00    +0.110 C 
ATOM     30  C   UNL     1      18.221   4.261  27.685  0.00  0.00    +0.143 C 
ATOM     31  C   UNL     1      18.148   3.250  26.539  0.00  0.00    +0.133 C 
BRANCH  31  32
ATOM     32  N   UNL     1      16.822   2.613  26.498  0.00  0.00    -0.308 N 
ATOM     33  H   UNL     1      16.014   3.212  26.402  0.00  0.00    +0.149 HD
ATOM     34  C   UNL     1      16.617   1.296  26.578  0.00  0.00    +0.210 C 
ATOM     35  C   UNL     1      17.867   0.413  26.749  0.00  0.00    +0.109 C 
ATOM     36  O   UNL     1      15.496   0.789  26.526  0.00  0.00    -0.276 OA
ENDBRANCH  31  32
BRANCH  28  37
ATOM     37  C   UNL     1      18.964   6.839  26.064  0.00  0.00    +0.414 C 
ATOM     38  O   UNL     1      18.793   7.671  26.955  0.00  0.00    -0.240 OA
ATOM     39  O   UNL     1      18.392   6.988  24.984  0.00  0.00    -0.240 OA
ENDBRANCH  28  37
BRANCH  30  40
ATOM     40  O   UNL     1      18.046   3.577  28.927  0.00  0.00    -0.390 OA
ATOM     41  H   UNL     1      18.408   2.691  28.859  0.00  0.00    +0.210 HD
ENDBRANCH  30  40
BRANCH  28  42
ATOM     42  O   UNL     1      21.270   6.053  26.292  0.00  0.00    -0.343 OA
ATOM     43  C   UNL     1      21.965   5.854  25.035  0.00  0.00    +0.198 C 
ENDBRANCH  28  42
ENDBRANCH  25  26
BRANCH  25  44
ATOM     44  O   UNL     1      19.652   3.110  23.279  0.00  0.00    -0.387 OA
ATOM     45  H   UNL     1      20.080   2.252  23.325  0.00  0.00    +0.210 HD
ENDBRANCH  25  44
ENDBRANCH   1  25
TORSDOF 15
