REMARK VINA RESULT:    -5.517      7.789     12.797
REMARK INTER + INTRA:         -13.655
REMARK INTER:                 -11.182
REMARK INTRA:                  -2.473
REMARK UNBOUND:                -2.172
REMARK  Name = lig_assembled_54.pdb
REMARK  24 active torsions:
REMARK  status: ('A' for Active; 'I' for Inactive)
REMARK    1  A    between atoms: _2  and  _9
REMARK    2  A    between atoms: _4  and  _21
REMARK    3  A    between atoms: _5  and  _14
REMARK    4  A    between atoms: _6  and  _7
REMARK    5  A    between atoms: _6  and  _21
REMARK    6  A    between atoms: _9  and  _10
REMARK    7  A    between atoms: _10  and  _11
REMARK    8  A    between atoms: _11  and  _15
REMARK    9  A    between atoms: _11  and  _16
REMARK   10  A    between atoms: _12  and  _13
REMARK   11  A    between atoms: _12  and  _16
REMARK   12  A    between atoms: _14  and  _15
REMARK   13  A    between atoms: _17  and  _37
REMARK   14  A    between atoms: _19  and  _25
REMARK   15  A    between atoms: _20  and  _24
REMARK   16  A    between atoms: _24  and  _25
REMARK   17  A    between atoms: _27  and  _28
REMARK   18  A    between atoms: _29  and  _30
REMARK   19  A    between atoms: _31  and  _33
REMARK   20  A    between atoms: _33  and  _34
REMARK   21  A    between atoms: _33  and  _35
REMARK   22  A    between atoms: _35  and  _36
REMARK   23  A    between atoms: _35  and  _37
REMARK   24  A    between atoms: _38  and  _40
REMARK                            x       y       z     vdW  Elec       q    Type
REMARK                         _______ _______ _______ _____ _____    ______ ____
ROOT
ATOM      1  C   UNL     1       8.591   2.303  36.185  0.00  0.00    +0.163 C 
ENDROOT
BRANCH   1   2
ATOM      2  O   UNL     1       8.370   2.781  37.522  0.00  0.00    -0.388 OA
ATOM      3  H   UNL     1       8.888   3.577  37.668  0.00  0.00    +0.210 HD
ENDBRANCH   1   2
BRANCH   1   4
ATOM      4  C   UNL     1       8.964   3.460  35.242  0.00  0.00    +0.175 C 
BRANCH   4   5
ATOM      5  C   UNL     1       7.794   4.431  35.027  0.00  0.00    +0.176 C 
ATOM      6  O   UNL     1       7.590   5.167  36.264  0.00  0.00    -0.332 OA
ATOM      7  C   UNL     1       6.574   6.222  36.214  0.00  0.00    +0.277 C 
ATOM      8  C   UNL     1       5.223   5.651  35.717  0.00  0.00    +0.110 C 
ATOM      9  C   UNL     1       5.395   4.833  34.420  0.00  0.00    +0.143 C 
ATOM     10  C   UNL     1       6.478   3.766  34.582  0.00  0.00    +0.133 C 
BRANCH  10  11
ATOM     11  N   UNL     1       6.692   3.052  33.314  0.00  0.00    -0.308 N 
ATOM     12  H   UNL     1       7.119   3.560  32.552  0.00  0.00    +0.149 HD
ATOM     13  C   UNL     1       6.359   1.775  33.103  0.00  0.00    +0.210 C 
ATOM     14  C   UNL     1       5.687   1.035  34.275  0.00  0.00    +0.109 C 
ATOM     15  O   UNL     1       6.564   1.198  32.034  0.00  0.00    -0.276 OA
ENDBRANCH  10  11
BRANCH   7  16
ATOM     16  C   UNL     1       7.022   7.369  35.285  0.00  0.00    +0.414 C 
ATOM     17  O   UNL     1       6.220   7.888  34.509  0.00  0.00    -0.240 OA
ATOM     18  O   UNL     1       8.184   7.775  35.310  0.00  0.00    -0.240 OA
ENDBRANCH   7  16
BRANCH   9  19
ATOM     19  O   UNL     1       4.159   4.201  34.082  0.00  0.00    -0.390 OA
ATOM     20  H   UNL     1       3.852   3.679  34.826  0.00  0.00    +0.210 HD
ENDBRANCH   9  19
BRANCH   7  21
ATOM     21  O   UNL     1       6.387   6.730  37.561  0.00  0.00    -0.343 OA
ATOM     22  C   UNL     1       5.161   6.309  38.209  0.00  0.00    +0.198 C 
ENDBRANCH   7  21
ENDBRANCH   4   5
BRANCH   4  23
ATOM     23  O   UNL     1       9.418   2.942  33.976  0.00  0.00    -0.387 OA
ATOM     24  H   UNL     1       9.055   3.473  33.263  0.00  0.00    +0.210 HD
ENDBRANCH   4  23
ENDBRANCH   1   4
BRANCH   1  25
ATOM     25  C   UNL     1       9.705   1.262  36.180  0.00  0.00    +0.141 C 
BRANCH  25  28
ATOM     26  C   UNL     1      12.063   1.926  35.852  0.00  0.00    +0.401 C 
ATOM     27  O   UNL     1      12.105   1.544  34.680  0.00  0.00    -0.226 OA
ATOM     28  N   UNL     1      10.984   1.827  36.629  0.00  0.00    -0.279 N 
ATOM     29  H   UNL     1      11.049   2.160  37.581  0.00  0.00    +0.152 HD
BRANCH  26  30
ATOM     30  O   UNL     1      13.231   2.509  36.435  0.00  0.00    -0.444 OA
BRANCH  30  31
ATOM     31  C   UNL     1      12.994   3.896  36.695  0.00  0.00    +0.292 C 
BRANCH  31  33
ATOM     32  N   UNL     1      14.135   4.430  34.562  0.00  0.00    -0.131 NA
ATOM     33  C   UNL     1      13.903   4.725  35.880  0.00  0.00    +0.120 A 
ATOM     34  C   UNL     1      14.615   5.854  36.221  0.00  0.00    +0.137 A 
ATOM     35  N   UNL     1      15.227   6.220  35.060  0.00  0.00    -0.251 N 
ATOM     36  N   UNL     1      14.942   5.358  34.067  0.00  0.00    -0.065 NA
BRANCH  35  37
ATOM     37  C   UNL     1      16.038   7.392  34.802  0.00  0.00    +0.150 C 
BRANCH  37  38
ATOM     38  C   UNL     1      15.479   8.224  33.658  0.00  0.00    +0.084 C 
BRANCH  38  39
ATOM     39  C   UNL     1      16.475   8.433  32.511  0.00  0.00    +0.252 C 
BRANCH  39  40
ATOM     40  O   UNL     1      17.807   8.171  32.961  0.00  0.00    -0.352 OA
BRANCH  40  41
ATOM     41  C   UNL     1      18.524   7.240  32.152  0.00  0.00    +0.159 C 
ATOM     42  C   UNL     1      18.423   7.673  30.703  0.00  0.00    +0.034 C 
ENDBRANCH  40  41
ENDBRANCH  39  40
BRANCH  39  43
ATOM     43  O   UNL     1      16.365   9.796  32.084  0.00  0.00    -0.352 OA
BRANCH  43  44
ATOM     44  C   UNL     1      15.983  10.673  33.146  0.00  0.00    +0.159 C 
ATOM     45  C   UNL     1      17.100  11.666  33.395  0.00  0.00    +0.034 C 
ENDBRANCH  43  44
ENDBRANCH  39  43
ENDBRANCH  38  39
ENDBRANCH  37  38
ENDBRANCH  35  37
ENDBRANCH  31  33
ENDBRANCH  30  31
ENDBRANCH  26  30
ENDBRANCH  25  28
ENDBRANCH   1  25
TORSDOF 20
