REMARK VINA RESULT:    -5.920      2.083      4.123
REMARK INTER + INTRA:         -13.182
REMARK INTER:                 -11.376
REMARK INTRA:                  -1.807
REMARK UNBOUND:                -2.936
REMARK  Name = lig_assembled_93.pdb
REMARK  16 active torsions:
REMARK  status: ('A' for Active; 'I' for Inactive)
REMARK    1  A    between atoms: _2  and  _9
REMARK    2  A    between atoms: _4  and  _18
REMARK    3  A    between atoms: _6  and  _7
REMARK    4  A    between atoms: _6  and  _18
REMARK    5  A    between atoms: _14  and  _34
REMARK    6  A    between atoms: _16  and  _22
REMARK    7  A    between atoms: _17  and  _21
REMARK    8  A    between atoms: _21  and  _22
REMARK    9  A    between atoms: _24  and  _25
REMARK   10  A    between atoms: _26  and  _27
REMARK   11  A    between atoms: _28  and  _30
REMARK   12  A    between atoms: _30  and  _31
REMARK   13  A    between atoms: _30  and  _32
REMARK   14  A    between atoms: _32  and  _33
REMARK   15  A    between atoms: _32  and  _34
REMARK   16  A    between atoms: _35  and  _37
REMARK                            x       y       z     vdW  Elec       q    Type
REMARK                         _______ _______ _______ _____ _____    ______ ____
ROOT
ATOM      1  C   UNL     1       3.119   2.791  32.575  0.00  0.00    +0.163 C 
ENDROOT
BRANCH   1   2
ATOM      2  O   UNL     1       3.877   2.042  31.611  0.00  0.00    -0.388 OA
ATOM      3  H   UNL     1       4.637   2.557  31.331  0.00  0.00    +0.210 HD
ENDBRANCH   1   2
BRANCH   1   4
ATOM      4  C   UNL     1       1.937   3.474  31.894  0.00  0.00    +0.141 C 
BRANCH   4   7
ATOM      5  C   UNL     1       1.439   3.334  29.478  0.00  0.00    +0.401 C 
ATOM      6  O   UNL     1       0.424   2.651  29.631  0.00  0.00    -0.226 OA
ATOM      7  N   UNL     1       2.210   3.758  30.480  0.00  0.00    -0.279 N 
ATOM      8  H   UNL     1       3.029   4.305  30.253  0.00  0.00    +0.152 HD
BRANCH   5   9
ATOM      9  O   UNL     1       1.835   3.703  28.154  0.00  0.00    -0.444 OA
BRANCH   9  10
ATOM     10  C   UNL     1       1.236   2.811  27.210  0.00  0.00    +0.292 C 
BRANCH  10  12
ATOM     11  N   UNL     1       0.765   4.851  25.904  0.00  0.00    -0.131 NA
ATOM     12  C   UNL     1       0.980   3.510  25.937  0.00  0.00    +0.121 A 
ATOM     13  C   UNL     1       0.920   3.019  24.653  0.00  0.00    +0.143 A 
ATOM     14  N   UNL     1       0.677   4.117  23.846  0.00  0.00    -0.219 N 
ATOM     15  N   UNL     1       0.578   5.204  24.641  0.00  0.00    -0.060 NA
BRANCH  14  16
ATOM     16  C   UNL     1       0.559   4.156  22.420  0.00  0.00    +0.080 A 
ATOM     17  C   UNL     1       1.734   3.948  21.660  0.00  0.00    +0.029 A 
ATOM     18  C   UNL     1       1.723   3.986  20.263  0.00  0.00    +0.002 A 
ATOM     19  C   UNL     1       0.540   4.231  19.586  0.00  0.00    +0.001 A 
ATOM     20  C   UNL     1      -0.633   4.433  20.308  0.00  0.00    +0.016 A 
ATOM     21  C   UNL     1      -0.642   4.397  21.719  0.00  0.00    +0.039 A 
ATOM     22  I   UNL     1      -2.571   4.733  22.521  0.00  0.00    -0.042 I 
ENDBRANCH  14  16
ENDBRANCH  10  12
ENDBRANCH   9  10
ENDBRANCH   5   9
ENDBRANCH   4   7
ENDBRANCH   1   4
BRANCH   1  23
ATOM     23  C   UNL     1       3.997   3.851  33.263  0.00  0.00    +0.175 C 
BRANCH  23  24
ATOM     24  C   UNL     1       5.411   3.327  33.555  0.00  0.00    +0.176 C 
ATOM     25  O   UNL     1       5.292   1.958  34.031  0.00  0.00    -0.332 OA
ATOM     26  C   UNL     1       6.557   1.255  34.262  0.00  0.00    +0.277 C 
ATOM     27  C   UNL     1       7.459   2.067  35.225  0.00  0.00    +0.110 C 
ATOM     28  C   UNL     1       7.590   3.538  34.778  0.00  0.00    +0.143 C 
ATOM     29  C   UNL     1       6.215   4.171  34.563  0.00  0.00    +0.133 C 
BRANCH  29  30
ATOM     30  N   UNL     1       6.353   5.544  34.054  0.00  0.00    -0.308 N 
ATOM     31  H   UNL     1       6.677   5.665  33.104  0.00  0.00    +0.149 HD
ATOM     32  C   UNL     1       6.080   6.642  34.765  0.00  0.00    +0.210 C 
ATOM     33  C   UNL     1       5.615   6.425  36.217  0.00  0.00    +0.109 C 
ATOM     34  O   UNL     1       6.192   7.779  34.307  0.00  0.00    -0.276 OA
ENDBRANCH  29  30
BRANCH  26  35
ATOM     35  C   UNL     1       7.303   1.019  32.933  0.00  0.00    +0.414 C 
ATOM     36  O   UNL     1       8.517   1.208  32.860  0.00  0.00    -0.240 OA
ATOM     37  O   UNL     1       6.692   0.640  31.933  0.00  0.00    -0.240 OA
ENDBRANCH  26  35
BRANCH  28  38
ATOM     38  O   UNL     1       8.301   4.281  35.769  0.00  0.00    -0.390 OA
ATOM     39  H   UNL     1       8.931   3.706  36.210  0.00  0.00    +0.210 HD
ENDBRANCH  28  38
BRANCH  26  40
ATOM     40  O   UNL     1       6.254  -0.020  34.885  0.00  0.00    -0.343 OA
ATOM     41  C   UNL     1       7.037  -0.325  36.067  0.00  0.00    +0.198 C 
ENDBRANCH  26  40
ENDBRANCH  23  24
BRANCH  23  42
ATOM     42  O   UNL     1       3.372   4.300  34.482  0.00  0.00    -0.387 OA
ATOM     43  H   UNL     1       3.981   4.185  35.215  0.00  0.00    +0.210 HD
ENDBRANCH  23  42
ENDBRANCH   1  23
TORSDOF 14
