REMARK VINA RESULT:    -6.151      3.275      5.411
REMARK INTER + INTRA:         -12.498
REMARK INTER:                 -10.263
REMARK INTRA:                  -2.235
REMARK UNBOUND:                -1.853
REMARK  Name = lig_assembled_86.pdb
REMARK  17 active torsions:
REMARK  status: ('A' for Active; 'I' for Inactive)
REMARK    1  A    between atoms: _2  and  _10
REMARK    2  A    between atoms: _3  and  _13
REMARK    3  A    between atoms: _5  and  _21
REMARK    4  A    between atoms: _7  and  _8
REMARK    5  A    between atoms: _7  and  _21
REMARK    6  A    between atoms: _17  and  _37
REMARK    7  A    between atoms: _19  and  _25
REMARK    8  A    between atoms: _20  and  _24
REMARK    9  A    between atoms: _24  and  _25
REMARK   10  A    between atoms: _27  and  _28
REMARK   11  A    between atoms: _29  and  _30
REMARK   12  A    between atoms: _31  and  _33
REMARK   13  A    between atoms: _33  and  _34
REMARK   14  A    between atoms: _33  and  _35
REMARK   15  A    between atoms: _35  and  _36
REMARK   16  A    between atoms: _35  and  _37
REMARK   17  A    between atoms: _38  and  _40
REMARK                            x       y       z     vdW  Elec       q    Type
REMARK                         _______ _______ _______ _____ _____    ______ ____
ROOT
ATOM      1  C   UNL     1       7.377   2.450  34.414  0.00  0.00    +0.163 C 
ENDROOT
BRANCH   1   2
ATOM      2  O   UNL     1       8.120   2.175  35.614  0.00  0.00    -0.388 OA
ATOM      3  H   UNL     1       8.913   2.715  35.630  0.00  0.00    +0.210 HD
ENDBRANCH   1   2
BRANCH   1   4
ATOM      4  C   UNL     1       7.611   1.344  33.391  0.00  0.00    +0.141 C 
BRANCH   4   7
ATOM      5  C   UNL     1       6.170   0.038  31.866  0.00  0.00    +0.401 C 
ATOM      6  O   UNL     1       6.836  -0.994  31.968  0.00  0.00    -0.226 OA
ATOM      7  N   UNL     1       6.463   1.180  32.490  0.00  0.00    -0.279 N 
ATOM      8  H   UNL     1       5.861   1.976  32.336  0.00  0.00    +0.152 HD
BRANCH   5   9
ATOM      9  O   UNL     1       5.011   0.037  31.029  0.00  0.00    -0.444 OA
BRANCH   9  10
ATOM     10  C   UNL     1       3.843  -0.167  31.829  0.00  0.00    +0.292 C 
BRANCH  10  12
ATOM     11  N   UNL     1       1.582   0.834  32.017  0.00  0.00    -0.131 NA
ATOM     12  C   UNL     1       2.705   0.588  31.272  0.00  0.00    +0.120 A 
ATOM     13  C   UNL     1       2.549   1.156  30.029  0.00  0.00    +0.137 A 
ATOM     14  N   UNL     1       1.331   1.762  30.093  0.00  0.00    -0.248 N 
ATOM     15  N   UNL     1       0.737   1.541  31.278  0.00  0.00    -0.065 NA
BRANCH  14  16
ATOM     16  C   UNL     1       0.692   2.568  29.064  0.00  0.00    +0.112 C 
ATOM     17  C   UNL     1       1.724   3.316  28.195  0.00  0.00    +0.045 C 
ATOM     18  C   UNL     1       1.469   3.234  26.687  0.00  0.00    +0.059 C 
ATOM     19  C   UNL     1       1.880   1.868  26.130  0.00  0.00    +0.020 C 
ATOM     20  C   UNL     1       0.597   1.040  26.156  0.00  0.00    +0.020 C 
ATOM     21  C   UNL     1      -0.440   1.961  26.802  0.00  0.00    +0.059 C 
ATOM     22  N   UNL     1       0.046   3.265  26.352  0.00  0.00    -0.299 NA
ATOM     23  C   UNL     1      -0.707   4.423  26.797  0.00  0.00    +0.105 C 
ATOM     24  C   UNL     1      -0.442   1.814  28.330  0.00  0.00    +0.045 C 
ENDBRANCH  14  16
ENDBRANCH  10  12
ENDBRANCH   9  10
ENDBRANCH   5   9
ENDBRANCH   4   7
ENDBRANCH   1   4
BRANCH   1  25
ATOM     25  C   UNL     1       7.789   3.804  33.811  0.00  0.00    +0.175 C 
BRANCH  25  26
ATOM     26  C   UNL     1       7.180   4.987  34.578  0.00  0.00    +0.176 C 
ATOM     27  O   UNL     1       7.899   5.123  35.835  0.00  0.00    -0.332 OA
ATOM     28  C   UNL     1       7.522   6.275  36.659  0.00  0.00    +0.277 C 
ATOM     29  C   UNL     1       5.996   6.274  36.926  0.00  0.00    +0.110 C 
ATOM     30  C   UNL     1       5.191   6.100  35.621  0.00  0.00    +0.143 C 
ATOM     31  C   UNL     1       5.667   4.874  34.841  0.00  0.00    +0.133 C 
BRANCH  31  32
ATOM     32  N   UNL     1       4.952   4.769  33.560  0.00  0.00    -0.308 N 
ATOM     33  H   UNL     1       5.152   5.459  32.850  0.00  0.00    +0.149 HD
ATOM     34  C   UNL     1       4.055   3.821  33.274  0.00  0.00    +0.210 C 
ATOM     35  C   UNL     1       3.753   2.800  34.386  0.00  0.00    +0.109 C 
ATOM     36  O   UNL     1       3.482   3.749  32.186  0.00  0.00    -0.276 OA
ENDBRANCH  31  32
BRANCH  28  37
ATOM     37  C   UNL     1       7.924   7.596  35.970  0.00  0.00    +0.414 C 
ATOM     38  O   UNL     1       7.941   7.674  34.742  0.00  0.00    -0.240 OA
ATOM     39  O   UNL     1       8.232   8.581  36.641  0.00  0.00    -0.240 OA
ENDBRANCH  28  37
BRANCH  30  40
ATOM     40  O   UNL     1       3.804   5.953  35.928  0.00  0.00    -0.390 OA
ATOM     41  H   UNL     1       3.708   5.543  36.790  0.00  0.00    +0.210 HD
ENDBRANCH  30  40
BRANCH  28  42
ATOM     42  O   UNL     1       8.208   6.160  37.932  0.00  0.00    -0.343 OA
ATOM     43  C   UNL     1       9.518   5.541  37.867  0.00  0.00    +0.198 C 
ENDBRANCH  28  42
ENDBRANCH  25  26
BRANCH  25  44
ATOM     44  O   UNL     1       7.410   3.864  32.422  0.00  0.00    -0.387 OA
ATOM     45  H   UNL     1       7.287   4.781  32.163  0.00  0.00    +0.210 HD
ENDBRANCH  25  44
ENDBRANCH   1  25
TORSDOF 14
