REMARK VINA RESULT:    -7.163     14.459     16.950
REMARK INTER + INTRA:         -14.392
REMARK INTER:                 -11.785
REMARK INTRA:                  -2.607
REMARK UNBOUND:                -1.575
REMARK  Name = lig_assembled_0.pdb
REMARK  17 active torsions:
REMARK  status: ('A' for Active; 'I' for Inactive)
REMARK    1  A    between atoms: _2  and  _10
REMARK    2  A    between atoms: _5  and  _21
REMARK    3  A    between atoms: _7  and  _8
REMARK    4  A    between atoms: _7  and  _21
REMARK    5  A    between atoms: _11  and  _12
REMARK    6  A    between atoms: _17  and  _37
REMARK    7  A    between atoms: _19  and  _25
REMARK    8  A    between atoms: _20  and  _24
REMARK    9  A    between atoms: _24  and  _25
REMARK   10  A    between atoms: _27  and  _28
REMARK   11  A    between atoms: _29  and  _30
REMARK   12  A    between atoms: _31  and  _33
REMARK   13  A    between atoms: _33  and  _34
REMARK   14  A    between atoms: _33  and  _35
REMARK   15  A    between atoms: _35  and  _36
REMARK   16  A    between atoms: _35  and  _37
REMARK   17  A    between atoms: _38  and  _40
REMARK                            x       y       z     vdW  Elec       q    Type
REMARK                         _______ _______ _______ _____ _____    ______ ____
ROOT
ATOM      1  C   UNL     1      17.623   3.977  22.426  0.00  0.00    +0.163 C 
ENDROOT
BRANCH   1   2
ATOM      2  O   UNL     1      16.912   5.142  22.875  0.00  0.00    -0.388 OA
ATOM      3  H   UNL     1      17.512   5.719  23.354  0.00  0.00    +0.210 HD
ENDBRANCH   1   2
BRANCH   1   4
ATOM      4  C   UNL     1      16.674   3.040  21.685  0.00  0.00    +0.141 C 
BRANCH   4   7
ATOM      5  C   UNL     1      17.630   1.157  20.402  0.00  0.00    +0.401 C 
ATOM      6  O   UNL     1      17.568   1.741  19.318  0.00  0.00    -0.226 OA
ATOM      7  N   UNL     1      17.228   1.687  21.558  0.00  0.00    -0.279 N 
ATOM      8  H   UNL     1      17.310   1.125  22.394  0.00  0.00    +0.152 HD
BRANCH   5   9
ATOM      9  O   UNL     1      18.157  -0.171  20.447  0.00  0.00    -0.444 OA
BRANCH   9  10
ATOM     10  C   UNL     1      19.018  -0.307  21.581  0.00  0.00    +0.292 C 
BRANCH  10  12
ATOM     11  N   UNL     1      19.005  -2.675  22.274  0.00  0.00    -0.131 NA
ATOM     12  C   UNL     1      18.551  -1.402  22.451  0.00  0.00    +0.121 A 
ATOM     13  C   UNL     1      17.682  -1.378  23.519  0.00  0.00    +0.143 A 
ATOM     14  N   UNL     1      17.558  -2.691  23.911  0.00  0.00    -0.219 N 
ATOM     15  N   UNL     1      18.440  -3.441  23.194  0.00  0.00    -0.060 NA
BRANCH  14  16
ATOM     16  C   UNL     1      16.792  -3.283  24.954  0.00  0.00    +0.079 A 
ATOM     17  C   UNL     1      15.662  -4.103  24.757  0.00  0.00    +0.062 A 
ATOM     18  C   UNL     1      14.970  -4.591  25.887  0.00  0.00    +0.015 A 
ATOM     19  C   UNL     1      15.372  -4.266  27.183  0.00  0.00    +0.001 A 
ATOM     20  C   UNL     1      16.493  -3.471  27.377  0.00  0.00    +0.002 A 
ATOM     21  C   UNL     1      17.203  -2.993  26.276  0.00  0.00    +0.028 A 
BRANCH  17  22
ATOM     22  C   UNL     1      15.249  -4.651  23.435  0.00  0.00    +0.244 C 
ATOM     23  O   UNL     1      14.796  -3.945  22.548  0.00  0.00    -0.270 OA
ATOM     24  N   UNL     1      15.431  -5.991  23.219  0.00  0.00    -0.325 N 
ATOM     25  H   UNL     1      15.195  -6.346  22.300  0.00  0.00    +0.145 HD
ATOM     26  H   UNL     1      15.812  -6.639  23.893  0.00  0.00    +0.145 HD
ENDBRANCH  17  22
ENDBRANCH  14  16
ENDBRANCH  10  12
ENDBRANCH   9  10
ENDBRANCH   5   9
ENDBRANCH   4   7
ENDBRANCH   1   4
BRANCH   1  27
ATOM     27  C   UNL     1      18.260   3.230  23.611  0.00  0.00    +0.175 C 
BRANCH  27  28
ATOM     28  C   UNL     1      18.329   4.102  24.873  0.00  0.00    +0.176 C 
ATOM     29  O   UNL     1      19.585   4.835  24.841  0.00  0.00    -0.332 OA
ATOM     30  C   UNL     1      19.779   5.806  25.923  0.00  0.00    +0.277 C 
ATOM     31  C   UNL     1      19.607   5.122  27.301  0.00  0.00    +0.110 C 
ATOM     32  C   UNL     1      18.301   4.303  27.372  0.00  0.00    +0.143 C 
ATOM     33  C   UNL     1      18.200   3.328  26.198  0.00  0.00    +0.133 C 
BRANCH  33  34
ATOM     34  N   UNL     1      16.913   2.617  26.229  0.00  0.00    -0.308 N 
ATOM     35  H   UNL     1      16.075   3.150  26.044  0.00  0.00    +0.149 HD
ATOM     36  C   UNL     1      16.779   1.312  26.484  0.00  0.00    +0.210 C 
ATOM     37  C   UNL     1      18.073   0.533  26.786  0.00  0.00    +0.109 C 
ATOM     38  O   UNL     1      15.689   0.740  26.488  0.00  0.00    -0.276 OA
ENDBRANCH  33  34
BRANCH  30  39
ATOM     39  C   UNL     1      18.777   6.972  25.798  0.00  0.00    +0.414 C 
ATOM     40  O   UNL     1      18.018   7.037  24.832  0.00  0.00    -0.240 OA
ATOM     41  O   UNL     1      18.728   7.848  26.662  0.00  0.00    -0.240 OA
ENDBRANCH  30  39
BRANCH  32  42
ATOM     42  O   UNL     1      18.257   3.571  28.597  0.00  0.00    -0.390 OA
ATOM     43  H   UNL     1      18.096   4.175  29.326  0.00  0.00    +0.210 HD
ENDBRANCH  32  42
BRANCH  30  44
ATOM     44  O   UNL     1      21.135   6.315  25.831  0.00  0.00    -0.343 OA
ATOM     45  C   UNL     1      21.537   6.750  24.507  0.00  0.00    +0.198 C 
ENDBRANCH  30  44
ENDBRANCH  27  28
BRANCH  27  46
ATOM     46  O   UNL     1      19.577   2.766  23.254  0.00  0.00    -0.387 OA
ATOM     47  H   UNL     1      19.601   2.558  22.317  0.00  0.00    +0.210 HD
ENDBRANCH  27  46
ENDBRANCH   1  27
TORSDOF 15
