REMARK VINA RESULT:    -5.786     25.098     28.150
REMARK INTER + INTRA:         -14.278
REMARK INTER:                  -9.468
REMARK INTRA:                  -4.810
REMARK UNBOUND:                -3.588
REMARK  Name = lig_assembled_58.pdb
REMARK  18 active torsions:
REMARK  status: ('A' for Active; 'I' for Inactive)
REMARK    1  A    between atoms: _2  and  _9
REMARK    2  A    between atoms: _4  and  _25
REMARK    3  A    between atoms: _6  and  _7
REMARK    4  A    between atoms: _6  and  _25
REMARK    5  A    between atoms: _9  and  _10
REMARK    6  A    between atoms: _9  and  _16
REMARK    7  A    between atoms: _21  and  _41
REMARK    8  A    between atoms: _23  and  _29
REMARK    9  A    between atoms: _24  and  _28
REMARK   10  A    between atoms: _28  and  _29
REMARK   11  A    between atoms: _31  and  _32
REMARK   12  A    between atoms: _33  and  _34
REMARK   13  A    between atoms: _35  and  _37
REMARK   14  A    between atoms: _37  and  _38
REMARK   15  A    between atoms: _37  and  _39
REMARK   16  A    between atoms: _39  and  _40
REMARK   17  A    between atoms: _39  and  _41
REMARK   18  A    between atoms: _42  and  _44
REMARK                            x       y       z     vdW  Elec       q    Type
REMARK                         _______ _______ _______ _____ _____    ______ ____
ROOT
ATOM      1  C   UNL     1      -5.420  19.410  28.417  0.00  0.00    +0.141 C 
ENDROOT
BRANCH   1   4
ATOM      2  C   UNL     1      -3.805  20.968  27.383  0.00  0.00    +0.401 C 
ATOM      3  O   UNL     1      -4.327  21.976  27.863  0.00  0.00    -0.226 OA
ATOM      4  N   UNL     1      -4.253  19.728  27.585  0.00  0.00    -0.279 N 
ATOM      5  H   UNL     1      -3.763  18.965  27.140  0.00  0.00    +0.152 HD
BRANCH   2   6
ATOM      6  O   UNL     1      -2.649  21.112  26.552  0.00  0.00    -0.444 OA
BRANCH   6   7
ATOM      7  C   UNL     1      -2.986  21.882  25.396  0.00  0.00    +0.292 C 
BRANCH   7   9
ATOM      8  N   UNL     1      -5.002  21.332  24.050  0.00  0.00    -0.131 NA
ATOM      9  C   UNL     1      -3.714  21.049  24.421  0.00  0.00    +0.120 A 
ATOM     10  C   UNL     1      -3.280  19.947  23.722  0.00  0.00    +0.138 A 
ATOM     11  N   UNL     1      -4.286  19.696  22.828  0.00  0.00    -0.240 N 
ATOM     12  N   UNL     1      -5.352  20.486  23.089  0.00  0.00    -0.064 NA
BRANCH  11  13
ATOM     13  C   UNL     1      -4.311  18.765  21.685  0.00  0.00    +0.169 C 
BRANCH  13  14
ATOM     14  C   UNL     1      -2.886  18.290  21.365  0.00  0.00    -0.019 A 
ATOM     15  C   UNL     1      -1.976  19.160  20.740  0.00  0.00    +0.006 A 
ATOM     16  C   UNL     1      -0.696  18.720  20.392  0.00  0.00    +0.000 A 
ATOM     17  C   UNL     1      -0.300  17.413  20.673  0.00  0.00    +0.000 A 
ATOM     18  C   UNL     1      -1.187  16.537  21.289  0.00  0.00    +0.000 A 
ATOM     19  C   UNL     1      -2.471  16.969  21.620  0.00  0.00    +0.006 A 
ENDBRANCH  13  14
BRANCH  13  20
ATOM     20  C   UNL     1      -5.344  17.643  21.857  0.00  0.00    -0.019 A 
ATOM     21  C   UNL     1      -5.392  16.871  23.032  0.00  0.00    +0.006 A 
ATOM     22  C   UNL     1      -6.334  15.849  23.182  0.00  0.00    +0.000 A 
ATOM     23  C   UNL     1      -7.257  15.593  22.172  0.00  0.00    +0.000 A 
ATOM     24  C   UNL     1      -7.263  16.378  21.027  0.00  0.00    +0.000 A 
ATOM     25  C   UNL     1      -6.329  17.403  20.879  0.00  0.00    +0.006 A 
ENDBRANCH  13  20
ENDBRANCH  11  13
ENDBRANCH   7   9
ENDBRANCH   6   7
ENDBRANCH   2   6
ENDBRANCH   1   4
BRANCH   1  26
ATOM     26  C   UNL     1      -6.172  18.188  27.899  0.00  0.00    +0.163 C 
BRANCH  26  27
ATOM     27  O   UNL     1      -6.886  17.558  28.975  0.00  0.00    -0.388 OA
ATOM     28  H   UNL     1      -6.318  16.914  29.403  0.00  0.00    +0.210 HD
ENDBRANCH  26  27
BRANCH  26  29
ATOM     29  C   UNL     1      -7.133  18.615  26.776  0.00  0.00    +0.175 C 
BRANCH  29  30
ATOM     30  C   UNL     1      -8.205  17.551  26.498  0.00  0.00    +0.176 C 
ATOM     31  O   UNL     1      -7.556  16.250  26.503  0.00  0.00    -0.332 OA
ATOM     32  C   UNL     1      -8.448  15.096  26.358  0.00  0.00    +0.277 C 
ATOM     33  C   UNL     1      -9.318  15.242  25.085  0.00  0.00    +0.110 C 
ATOM     34  C   UNL     1     -10.004  16.622  25.019  0.00  0.00    +0.143 C 
ATOM     35  C   UNL     1      -8.985  17.750  25.185  0.00  0.00    +0.133 C 
BRANCH  35  36
ATOM     36  N   UNL     1      -9.661  19.057  25.207  0.00  0.00    -0.308 N 
ATOM     37  H   UNL     1     -10.219  19.285  26.018  0.00  0.00    +0.149 HD
ATOM     38  C   UNL     1      -9.585  19.960  24.226  0.00  0.00    +0.210 C 
ATOM     39  C   UNL     1      -8.748  19.572  22.993  0.00  0.00    +0.109 C 
ATOM     40  O   UNL     1     -10.150  21.053  24.279  0.00  0.00    -0.276 OA
ENDBRANCH  35  36
BRANCH  32  41
ATOM     41  C   UNL     1      -9.361  14.951  27.593  0.00  0.00    +0.414 C 
ATOM     42  O   UNL     1      -8.995  15.375  28.688  0.00  0.00    -0.240 OA
ATOM     43  O   UNL     1     -10.464  14.412  27.494  0.00  0.00    -0.240 OA
ENDBRANCH  32  41
BRANCH  34  44
ATOM     44  O   UNL     1     -10.670  16.770  23.764  0.00  0.00    -0.390 OA
ATOM     45  H   UNL     1     -11.620  16.769  23.903  0.00  0.00    +0.210 HD
ENDBRANCH  34  44
BRANCH  32  46
ATOM     46  O   UNL     1      -7.626  13.909  26.216  0.00  0.00    -0.343 OA
ATOM     47  C   UNL     1      -7.995  13.036  25.118  0.00  0.00    +0.198 C 
ENDBRANCH  32  46
ENDBRANCH  29  30
BRANCH  29  48
ATOM     48  O   UNL     1      -6.394  18.902  25.572  0.00  0.00    -0.387 OA
ATOM     49  H   UNL     1      -5.954  19.751  25.661  0.00  0.00    +0.210 HD
ENDBRANCH  29  48
ENDBRANCH  26  29
ENDBRANCH   1  26
TORSDOF 16
