REMARK VINA RESULT:    -6.664      0.000      0.000
REMARK INTER + INTRA:         -15.521
REMARK INTER:                 -13.403
REMARK INTRA:                  -2.118
REMARK UNBOUND:                -3.014
REMARK  Name = lig_assembled_75.pdb
REMARK  19 active torsions:
REMARK  status: ('A' for Active; 'I' for Inactive)
REMARK    1  A    between atoms: _2  and  _9
REMARK    2  A    between atoms: _4  and  _23
REMARK    3  A    between atoms: _6  and  _7
REMARK    4  A    between atoms: _6  and  _23
REMARK    5  A    between atoms: _11  and  _12
REMARK    6  A    between atoms: _13  and  _14
REMARK    7  A    between atoms: _14  and  _17
REMARK    8  A    between atoms: _19  and  _39
REMARK    9  A    between atoms: _21  and  _27
REMARK   10  A    between atoms: _22  and  _26
REMARK   11  A    between atoms: _26  and  _27
REMARK   12  A    between atoms: _29  and  _30
REMARK   13  A    between atoms: _31  and  _32
REMARK   14  A    between atoms: _33  and  _35
REMARK   15  A    between atoms: _35  and  _36
REMARK   16  A    between atoms: _35  and  _37
REMARK   17  A    between atoms: _37  and  _38
REMARK   18  A    between atoms: _37  and  _39
REMARK   19  A    between atoms: _40  and  _42
REMARK                            x       y       z     vdW  Elec       q    Type
REMARK                         _______ _______ _______ _____ _____    ______ ____
ROOT
ATOM      1  C   UNL     1       3.630   2.530  31.616  0.00  0.00    +0.141 C 
ENDROOT
BRANCH   1   4
ATOM      2  C   UNL     1       1.533   3.342  30.592  0.00  0.00    +0.401 C 
ATOM      3  O   UNL     1       0.854   3.149  31.603  0.00  0.00    -0.226 OA
ATOM      4  N   UNL     1       2.837   3.076  30.508  0.00  0.00    -0.279 N 
ATOM      5  H   UNL     1       3.305   3.259  29.632  0.00  0.00    +0.152 HD
BRANCH   2   6
ATOM      6  O   UNL     1       0.904   3.880  29.426  0.00  0.00    -0.444 OA
BRANCH   6   7
ATOM      7  C   UNL     1       0.313   2.820  28.670  0.00  0.00    +0.292 C 
BRANCH   7   9
ATOM      8  N   UNL     1       1.737   1.876  26.882  0.00  0.00    -0.131 NA
ATOM      9  C   UNL     1       0.837   2.817  27.291  0.00  0.00    +0.121 A 
ATOM     10  C   UNL     1       0.565   3.666  26.245  0.00  0.00    +0.143 A 
ATOM     11  N   UNL     1       1.332   3.202  25.201  0.00  0.00    -0.220 N 
ATOM     12  N   UNL     1       2.035   2.117  25.613  0.00  0.00    -0.060 NA
BRANCH  11  13
ATOM     13  C   UNL     1       1.458   3.723  23.888  0.00  0.00    +0.068 A 
ATOM     14  C   UNL     1       1.448   2.841  22.793  0.00  0.00    +0.035 A 
ATOM     15  C   UNL     1       1.638   3.314  21.487  0.00  0.00    -0.023 A 
ATOM     16  C   UNL     1       1.773   4.693  21.285  0.00  0.00    +0.008 A 
ATOM     17  C   UNL     1       1.761   5.577  22.366  0.00  0.00    +0.003 A 
ATOM     18  C   UNL     1       1.613   5.096  23.667  0.00  0.00    +0.028 A 
BRANCH  15  19
ATOM     19  C   UNL     1       1.680   2.420  20.321  0.00  0.00    +0.015 C 
ATOM     20  C   UNL     1       2.385   2.678  19.207  0.00  0.00    +0.092 C 
BRANCH  20  21
ATOM     21  C   UNL     1       2.320   1.743  18.068  0.00  0.00    +0.330 C 
ATOM     22  O   UNL     1       1.436   0.924  17.891  0.00  0.00    -0.246 OA
BRANCH  21  23
ATOM     23  O   UNL     1       3.358   1.905  17.223  0.00  0.00    -0.478 OA
ATOM     24  H   UNL     1       4.120   2.395  17.580  0.00  0.00    +0.295 HD
ENDBRANCH  21  23
ENDBRANCH  20  21
ENDBRANCH  15  19
ENDBRANCH  11  13
ENDBRANCH   7   9
ENDBRANCH   6   7
ENDBRANCH   2   6
ENDBRANCH   1   4
BRANCH   1  25
ATOM     25  C   UNL     1       4.225   3.633  32.486  0.00  0.00    +0.163 C 
BRANCH  25  26
ATOM     26  O   UNL     1       3.293   4.004  33.515  0.00  0.00    -0.388 OA
ATOM     27  H   UNL     1       3.752   4.069  34.356  0.00  0.00    +0.210 HD
ENDBRANCH  25  26
BRANCH  25  28
ATOM     28  C   UNL     1       5.552   3.148  33.095  0.00  0.00    +0.175 C 
BRANCH  28  29
ATOM     29  C   UNL     1       5.868   3.848  34.424  0.00  0.00    +0.176 C 
ATOM     30  O   UNL     1       5.810   5.283  34.198  0.00  0.00    -0.332 OA
ATOM     31  C   UNL     1       5.984   6.120  35.389  0.00  0.00    +0.277 C 
ATOM     32  C   UNL     1       7.301   5.758  36.119  0.00  0.00    +0.110 C 
ATOM     33  C   UNL     1       7.422   4.237  36.353  0.00  0.00    +0.143 C 
ATOM     34  C   UNL     1       7.222   3.463  35.049  0.00  0.00    +0.133 C 
BRANCH  34  35
ATOM     35  N   UNL     1       7.253   2.014  35.300  0.00  0.00    -0.308 N 
ATOM     36  H   UNL     1       6.491   1.610  35.826  0.00  0.00    +0.149 HD
ATOM     37  C   UNL     1       8.222   1.198  34.879  0.00  0.00    +0.210 C 
ATOM     38  C   UNL     1       9.383   1.848  34.103  0.00  0.00    +0.109 C 
ATOM     39  O   UNL     1       8.215  -0.015  35.091  0.00  0.00    -0.276 OA
ENDBRANCH  34  35
BRANCH  31  40
ATOM     40  C   UNL     1       4.794   5.948  36.357  0.00  0.00    +0.414 C 
ATOM     41  O   UNL     1       4.931   6.185  37.556  0.00  0.00    -0.240 OA
ATOM     42  O   UNL     1       3.699   5.571  35.938  0.00  0.00    -0.240 OA
ENDBRANCH  31  40
BRANCH  31  43
ATOM     43  O   UNL     1       6.065   7.503  34.958  0.00  0.00    -0.343 OA
ATOM     44  C   UNL     1       7.326   7.881  34.350  0.00  0.00    +0.198 C 
ENDBRANCH  31  43
BRANCH  33  45
ATOM     45  O   UNL     1       8.711   3.933  36.887  0.00  0.00    -0.390 OA
ATOM     46  H   UNL     1       9.310   3.710  36.172  0.00  0.00    +0.210 HD
ENDBRANCH  33  45
ENDBRANCH  28  29
BRANCH  28  47
ATOM     47  O   UNL     1       6.630   3.348  32.159  0.00  0.00    -0.387 OA
ATOM     48  H   UNL     1       7.181   4.076  32.456  0.00  0.00    +0.210 HD
ENDBRANCH  28  47
ENDBRANCH  25  28
ENDBRANCH   1  25
TORSDOF 17
