REMARK VINA RESULT:    -7.214     17.458     23.790
REMARK INTER + INTRA:         -17.013
REMARK INTER:                 -13.242
REMARK INTRA:                  -3.771
REMARK UNBOUND:                -3.474
REMARK  Name = lig_assembled_34.pdb
REMARK  19 active torsions:
REMARK  status: ('A' for Active; 'I' for Inactive)
REMARK    1  A    between atoms: _2  and  _9
REMARK    2  A    between atoms: _4  and  _37
REMARK    3  A    between atoms: _6  and  _7
REMARK    4  A    between atoms: _6  and  _37
REMARK    5  A    between atoms: _11  and  _12
REMARK    6  A    between atoms: _13  and  _14
REMARK    7  A    between atoms: _18  and  _31
REMARK    8  A    between atoms: _33  and  _53
REMARK    9  A    between atoms: _35  and  _41
REMARK   10  A    between atoms: _36  and  _40
REMARK   11  A    between atoms: _40  and  _41
REMARK   12  A    between atoms: _43  and  _44
REMARK   13  A    between atoms: _45  and  _46
REMARK   14  A    between atoms: _47  and  _49
REMARK   15  A    between atoms: _49  and  _50
REMARK   16  A    between atoms: _49  and  _51
REMARK   17  A    between atoms: _51  and  _52
REMARK   18  A    between atoms: _51  and  _53
REMARK   19  A    between atoms: _54  and  _56
REMARK                            x       y       z     vdW  Elec       q    Type
REMARK                         _______ _______ _______ _____ _____    ______ ____
ROOT
ATOM      1  N   UNL     1       3.399  -0.848  27.157  0.00  0.00    -0.131 NA
ATOM      2  C   UNL     1       4.205  -1.386  26.195  0.00  0.00    +0.121 A 
ATOM      3  C   UNL     1       3.825  -0.895  24.971  0.00  0.00    +0.143 A 
ATOM      4  N   UNL     1       2.788  -0.024  25.228  0.00  0.00    -0.220 N 
ATOM      5  N   UNL     1       2.530  -0.032  26.564  0.00  0.00    -0.060 NA
ENDROOT
BRANCH   4   6
ATOM      6  C   UNL     1       2.096   0.808  24.308  0.00  0.00    +0.068 A 
ATOM      7  C   UNL     1       2.276   2.195  24.359  0.00  0.00    +0.038 A 
ATOM      8  C   UNL     1       1.525   3.092  23.561  0.00  0.00    +0.007 A 
ATOM      9  C   UNL     1       0.614   2.561  22.626  0.00  0.00    -0.008 A 
ATOM     10  C   UNL     1       0.474   1.154  22.546  0.00  0.00    +0.011 A 
ATOM     11  C   UNL     1       1.191   0.284  23.385  0.00  0.00    +0.028 A 
BRANCH   9  12
ATOM     12  C   UNL     1      -0.288   3.381  21.753  0.00  0.00    +0.004 A 
ATOM     13  C   UNL     1      -0.045   3.569  20.425  0.00  0.00    +0.026 A 
ATOM     14  C   UNL     1       1.147   3.037  19.753  0.00  0.00    +0.016 A 
ATOM     15  C   UNL     1       1.461   3.389  18.497  0.00  0.00    +0.051 A 
ATOM     16  C   UNL     1       0.586   4.308  17.730  0.00  0.00    +0.183 A 
ATOM     17  O   UNL     1       0.895   4.690  16.604  0.00  0.00    -0.288 OA
ATOM     18  C   UNL     1      -0.704   4.687  18.339  0.00  0.00    +0.097 A 
ATOM     19  C   UNL     1      -1.008   4.309  19.586  0.00  0.00    +0.140 A 
ATOM     20  O   UNL     1      -2.285   4.570  20.061  0.00  0.00    -0.455 OA
ATOM     21  C   UNL     1      -2.528   4.422  21.401  0.00  0.00    +0.140 A 
ATOM     22  C   UNL     1      -3.801   4.785  21.841  0.00  0.00    +0.092 A 
ATOM     23  C   UNL     1      -4.097   4.716  23.194  0.00  0.00    +0.120 A 
ATOM     24  C   UNL     1      -3.115   4.366  24.114  0.00  0.00    +0.046 A 
ATOM     25  C   UNL     1      -1.848   3.992  23.656  0.00  0.00    +0.016 A 
ATOM     26  C   UNL     1      -1.558   3.955  22.284  0.00  0.00    +0.026 A 
BRANCH  23  27
ATOM     27  O   UNL     1      -5.373   4.989  23.590  0.00  0.00    -0.507 OA
ATOM     28  H   UNL     1      -5.634   4.306  24.229  0.00  0.00    +0.292 HD
ENDBRANCH  23  27
ENDBRANCH   9  12
BRANCH   8  29
ATOM     29  C   UNL     1       1.716   4.570  23.844  0.00  0.00    +0.072 C 
ATOM     30  O   UNL     1       1.391   4.962  25.011  0.00  0.00    -0.545 OA
ATOM     31  O   UNL     1       2.104   5.317  22.898  0.00  0.00    -0.545 OA
ENDBRANCH   8  29
ENDBRANCH   4   6
BRANCH   2  32
ATOM     32  C   UNL     1       5.289  -2.337  26.511  0.00  0.00    +0.292 C 
BRANCH  32  33
ATOM     33  O   UNL     1       6.434  -1.648  27.021  0.00  0.00    -0.444 OA
BRANCH  33  34
ATOM     34  C   UNL     1       6.642  -2.014  28.388  0.00  0.00    +0.401 C 
ATOM     35  O   UNL     1       7.749  -2.433  28.734  0.00  0.00    -0.226 OA
ATOM     36  N   UNL     1       5.606  -1.871  29.216  0.00  0.00    -0.279 N 
ATOM     37  H   UNL     1       4.741  -1.510  28.840  0.00  0.00    +0.152 HD
BRANCH  36  38
ATOM     38  C   UNL     1       5.653  -2.210  30.644  0.00  0.00    +0.141 C 
BRANCH  38  39
ATOM     39  C   UNL     1       5.651  -0.965  31.524  0.00  0.00    +0.163 C 
BRANCH  39  40
ATOM     40  O   UNL     1       6.976  -0.414  31.600  0.00  0.00    -0.388 OA
ATOM     41  H   UNL     1       7.287  -0.206  30.716  0.00  0.00    +0.210 HD
ENDBRANCH  39  40
BRANCH  39  42
ATOM     42  C   UNL     1       4.659   0.065  30.955  0.00  0.00    +0.175 C 
BRANCH  42  43
ATOM     43  C   UNL     1       4.802   1.438  31.628  0.00  0.00    +0.176 C 
ATOM     44  O   UNL     1       5.139   1.218  33.026  0.00  0.00    -0.332 OA
ATOM     45  C   UNL     1       5.420   2.426  33.807  0.00  0.00    +0.277 C 
ATOM     46  C   UNL     1       4.240   3.424  33.704  0.00  0.00    +0.110 C 
ATOM     47  C   UNL     1       3.825   3.665  32.237  0.00  0.00    +0.143 C 
ATOM     48  C   UNL     1       3.560   2.342  31.517  0.00  0.00    +0.133 C 
BRANCH  48  49
ATOM     49  N   UNL     1       3.251   2.580  30.099  0.00  0.00    -0.308 N 
ATOM     50  H   UNL     1       4.006   2.868  29.493  0.00  0.00    +0.149 HD
ATOM     51  C   UNL     1       2.037   2.441  29.560  0.00  0.00    +0.210 C 
ATOM     52  C   UNL     1       0.901   2.027  30.515  0.00  0.00    +0.109 C 
ATOM     53  O   UNL     1       1.809   2.633  28.365  0.00  0.00    -0.276 OA
ENDBRANCH  48  49
BRANCH  45  54
ATOM     54  C   UNL     1       6.715   3.106  33.317  0.00  0.00    +0.414 C 
ATOM     55  O   UNL     1       6.998   4.243  33.692  0.00  0.00    -0.240 OA
ATOM     56  O   UNL     1       7.476   2.518  32.548  0.00  0.00    -0.240 OA
ENDBRANCH  45  54
BRANCH  47  57
ATOM     57  O   UNL     1       2.645   4.468  32.196  0.00  0.00    -0.390 OA
ATOM     58  H   UNL     1       2.742   5.212  32.795  0.00  0.00    +0.210 HD
ENDBRANCH  47  57
BRANCH  45  59
ATOM     59  O   UNL     1       5.568   2.037  35.197  0.00  0.00    -0.343 OA
ATOM     60  C   UNL     1       6.354   0.838  35.416  0.00  0.00    +0.198 C 
ENDBRANCH  45  59
ENDBRANCH  42  43
BRANCH  42  61
ATOM     61  O   UNL     1       3.308  -0.418  31.095  0.00  0.00    -0.387 OA
ATOM     62  H   UNL     1       3.159  -0.696  32.001  0.00  0.00    +0.210 HD
ENDBRANCH  42  61
ENDBRANCH  39  42
ENDBRANCH  38  39
ENDBRANCH  36  38
ENDBRANCH  33  34
ENDBRANCH  32  33
ENDBRANCH   2  32
TORSDOF 17
