REMARK VINA RESULT:    -6.025      6.710     12.635
REMARK INTER + INTRA:         -14.480
REMARK INTER:                 -11.868
REMARK INTRA:                  -2.611
REMARK UNBOUND:                -2.643
REMARK  Name = lig_assembled_37.pdb
REMARK  21 active torsions:
REMARK  status: ('A' for Active; 'I' for Inactive)
REMARK    1  A    between atoms: _2  and  _9
REMARK    2  A    between atoms: _4  and  _24
REMARK    3  A    between atoms: _6  and  _7
REMARK    4  A    between atoms: _6  and  _24
REMARK    5  A    between atoms: _9  and  _10
REMARK    6  A    between atoms: _9  and  _11
REMARK    7  A    between atoms: _11  and  _18
REMARK    8  A    between atoms: _12  and  _13
REMARK    9  A    between atoms: _12  and  _18
REMARK   10  A    between atoms: _20  and  _40
REMARK   11  A    between atoms: _22  and  _28
REMARK   12  A    between atoms: _23  and  _27
REMARK   13  A    between atoms: _27  and  _28
REMARK   14  A    between atoms: _30  and  _31
REMARK   15  A    between atoms: _32  and  _33
REMARK   16  A    between atoms: _34  and  _36
REMARK   17  A    between atoms: _36  and  _37
REMARK   18  A    between atoms: _36  and  _38
REMARK   19  A    between atoms: _38  and  _39
REMARK   20  A    between atoms: _38  and  _40
REMARK   21  A    between atoms: _41  and  _43
REMARK                            x       y       z     vdW  Elec       q    Type
REMARK                         _______ _______ _______ _____ _____    ______ ____
ROOT
ATOM      1  C   UNL     1       9.461   1.371  36.143  0.00  0.00    +0.141 C 
ENDROOT
BRANCH   1   4
ATOM      2  C   UNL     1      11.849   1.908  35.802  0.00  0.00    +0.401 C 
ATOM      3  O   UNL     1      11.821   1.696  34.588  0.00  0.00    -0.226 OA
ATOM      4  N   UNL     1      10.794   1.775  36.607  0.00  0.00    -0.279 N 
ATOM      5  H   UNL     1      10.919   1.963  37.592  0.00  0.00    +0.152 HD
BRANCH   2   6
ATOM      6  O   UNL     1      13.078   2.319  36.407  0.00  0.00    -0.444 OA
BRANCH   6   7
ATOM      7  C   UNL     1      12.942   3.650  36.910  0.00  0.00    +0.292 C 
BRANCH   7   9
ATOM      8  N   UNL     1      14.102   4.324  34.826  0.00  0.00    -0.131 NA
ATOM      9  C   UNL     1      13.777   4.584  36.131  0.00  0.00    +0.120 A 
ATOM     10  C   UNL     1      14.342   5.781  36.506  0.00  0.00    +0.138 A 
ATOM     11  N   UNL     1      15.021   6.190  35.396  0.00  0.00    -0.238 N 
ATOM     12  N   UNL     1      14.858   5.319  34.383  0.00  0.00    -0.065 NA
BRANCH  11  13
ATOM     13  C   UNL     1      15.784   7.404  35.181  0.00  0.00    +0.214 C 
ATOM     14  C   UNL     1      16.767   7.656  36.324  0.00  0.00    +0.045 C 
BRANCH  13  15
ATOM     15  C   UNL     1      16.519   7.360  33.859  0.00  0.00    +0.332 C 
ATOM     16  O   UNL     1      17.615   6.836  33.701  0.00  0.00    -0.248 OA
BRANCH  15  17
ATOM     17  O   UNL     1      15.805   7.979  32.881  0.00  0.00    -0.458 OA
BRANCH  17  18
ATOM     18  C   UNL     1      15.246   9.258  33.219  0.00  0.00    +0.267 C 
BRANCH  18  19
ATOM     19  C   UNL     1      16.337  10.294  33.291  0.00  0.00    -0.010 A 
ATOM     20  C   UNL     1      16.522  11.052  34.456  0.00  0.00    +0.007 A 
ATOM     21  C   UNL     1      17.550  11.992  34.535  0.00  0.00    +0.000 A 
ATOM     22  C   UNL     1      18.402  12.187  33.449  0.00  0.00    +0.000 A 
ATOM     23  C   UNL     1      18.225  11.445  32.284  0.00  0.00    +0.000 A 
ATOM     24  C   UNL     1      17.195  10.505  32.203  0.00  0.00    +0.007 A 
ENDBRANCH  18  19
ENDBRANCH  17  18
ENDBRANCH  15  17
ENDBRANCH  13  15
ENDBRANCH  11  13
ENDBRANCH   7   9
ENDBRANCH   6   7
ENDBRANCH   2   6
ENDBRANCH   1   4
BRANCH   1  25
ATOM     25  C   UNL     1       8.463   2.522  36.211  0.00  0.00    +0.163 C 
BRANCH  25  26
ATOM     26  O   UNL     1       8.445   3.080  37.535  0.00  0.00    -0.388 OA
ATOM     27  H   UNL     1       8.490   2.372  38.182  0.00  0.00    +0.210 HD
ENDBRANCH  25  26
BRANCH  25  28
ATOM     28  C   UNL     1       8.838   3.590  35.169  0.00  0.00    +0.175 C 
BRANCH  28  29
ATOM     29  C   UNL     1       7.683   4.567  34.901  0.00  0.00    +0.176 C 
ATOM     30  O   UNL     1       7.519   5.400  36.081  0.00  0.00    -0.332 OA
ATOM     31  C   UNL     1       6.524   6.470  35.968  0.00  0.00    +0.277 C 
ATOM     32  C   UNL     1       5.152   5.891  35.542  0.00  0.00    +0.110 C 
ATOM     33  C   UNL     1       5.281   4.972  34.309  0.00  0.00    +0.143 C 
ATOM     34  C   UNL     1       6.346   3.898  34.534  0.00  0.00    +0.133 C 
BRANCH  34  35
ATOM     35  N   UNL     1       6.520   3.084  33.321  0.00  0.00    -0.308 N 
ATOM     36  H   UNL     1       6.936   3.525  32.512  0.00  0.00    +0.149 HD
ATOM     37  C   UNL     1       6.165   1.800  33.218  0.00  0.00    +0.210 C 
ATOM     38  C   UNL     1       5.511   1.164  34.459  0.00  0.00    +0.109 C 
ATOM     39  O   UNL     1       6.337   1.138  32.194  0.00  0.00    -0.276 OA
ENDBRANCH  34  35
BRANCH  31  40
ATOM     40  C   UNL     1       6.976   7.532  34.944  0.00  0.00    +0.414 C 
ATOM     41  O   UNL     1       8.170   7.800  34.815  0.00  0.00    -0.240 OA
ATOM     42  O   UNL     1       6.147   8.120  34.248  0.00  0.00    -0.240 OA
ENDBRANCH  31  40
BRANCH  31  43
ATOM     43  O   UNL     1       6.375   7.084  37.275  0.00  0.00    -0.343 OA
ATOM     44  C   UNL     1       7.614   7.294  37.998  0.00  0.00    +0.198 C 
ENDBRANCH  31  43
BRANCH  33  45
ATOM     45  O   UNL     1       4.026   4.344  34.044  0.00  0.00    -0.390 OA
ATOM     46  H   UNL     1       4.130   3.708  33.331  0.00  0.00    +0.210 HD
ENDBRANCH  33  45
ENDBRANCH  28  29
BRANCH  28  47
ATOM     47  O   UNL     1       9.252   2.962  33.940  0.00  0.00    -0.387 OA
ATOM     48  H   UNL     1       8.480   2.770  33.402  0.00  0.00    +0.210 HD
ENDBRANCH  28  47
ENDBRANCH  25  28
ENDBRANCH   1  25
TORSDOF 18
