REMARK VINA RESULT:    -5.682      9.096     13.373
REMARK INTER + INTRA:         -13.572
REMARK INTER:                 -11.063
REMARK INTRA:                  -2.509
REMARK UNBOUND:                -3.239
REMARK  Name = lig_assembled_88.pdb
REMARK  18 active torsions:
REMARK  status: ('A' for Active; 'I' for Inactive)
REMARK    1  A    between atoms: _2  and  _9
REMARK    2  A    between atoms: _4  and  _20
REMARK    3  A    between atoms: _5  and  _15
REMARK    4  A    between atoms: _6  and  _7
REMARK    5  A    between atoms: _6  and  _20
REMARK    6  A    between atoms: _9  and  _10
REMARK    7  A    between atoms: _16  and  _36
REMARK    8  A    between atoms: _18  and  _24
REMARK    9  A    between atoms: _19  and  _23
REMARK   10  A    between atoms: _23  and  _24
REMARK   11  A    between atoms: _26  and  _27
REMARK   12  A    between atoms: _28  and  _29
REMARK   13  A    between atoms: _30  and  _32
REMARK   14  A    between atoms: _32  and  _33
REMARK   15  A    between atoms: _32  and  _34
REMARK   16  A    between atoms: _34  and  _35
REMARK   17  A    between atoms: _34  and  _36
REMARK   18  A    between atoms: _37  and  _39
REMARK                            x       y       z     vdW  Elec       q    Type
REMARK                         _______ _______ _______ _____ _____    ______ ____
ROOT
ATOM      1  C   UNL     1       8.329   2.560  35.398  0.00  0.00    +0.163 C 
ENDROOT
BRANCH   1   2
ATOM      2  O   UNL     1       8.559   3.232  36.647  0.00  0.00    -0.388 OA
ATOM      3  H   UNL     1       9.419   3.660  36.628  0.00  0.00    +0.210 HD
ENDBRANCH   1   2
BRANCH   1   4
ATOM      4  C   UNL     1       8.254   3.567  34.237  0.00  0.00    +0.175 C 
BRANCH   4   5
ATOM      5  C   UNL     1       7.171   4.631  34.465  0.00  0.00    +0.176 C 
ATOM      6  O   UNL     1       7.639   5.530  35.507  0.00  0.00    -0.332 OA
ATOM      7  C   UNL     1       6.775   6.681  35.788  0.00  0.00    +0.277 C 
ATOM      8  C   UNL     1       5.336   6.210  36.111  0.00  0.00    +0.110 C 
ATOM      9  C   UNL     1       4.806   5.227  35.046  0.00  0.00    +0.143 C 
ATOM     10  C   UNL     1       5.784   4.071  34.832  0.00  0.00    +0.133 C 
BRANCH  10  11
ATOM     11  N   UNL     1       5.310   3.188  33.754  0.00  0.00    -0.308 N 
ATOM     12  H   UNL     1       5.319   3.549  32.811  0.00  0.00    +0.149 HD
ATOM     13  C   UNL     1       4.868   1.942  33.942  0.00  0.00    +0.210 C 
ATOM     14  C   UNL     1       4.842   1.431  35.395  0.00  0.00    +0.109 C 
ATOM     15  O   UNL     1       4.491   1.220  33.019  0.00  0.00    -0.276 OA
ENDBRANCH  10  11
BRANCH   7  16
ATOM     16  C   UNL     1       6.744   7.647  34.586  0.00  0.00    +0.414 C 
ATOM     17  O   UNL     1       7.789   7.968  34.020  0.00  0.00    -0.240 OA
ATOM     18  O   UNL     1       5.675   8.106  34.181  0.00  0.00    -0.240 OA
ENDBRANCH   7  16
BRANCH   7  19
ATOM     19  O   UNL     1       7.304   7.366  36.952  0.00  0.00    -0.343 OA
ATOM     20  C   UNL     1       7.681   6.501  38.053  0.00  0.00    +0.198 C 
ENDBRANCH   7  19
BRANCH   9  21
ATOM     21  O   UNL     1       3.543   4.704  35.460  0.00  0.00    -0.390 OA
ATOM     22  H   UNL     1       2.891   4.857  34.772  0.00  0.00    +0.210 HD
ENDBRANCH   9  21
ENDBRANCH   4   5
BRANCH   4  23
ATOM     23  O   UNL     1       8.017   2.875  32.995  0.00  0.00    -0.387 OA
ATOM     24  H   UNL     1       7.431   2.130  33.149  0.00  0.00    +0.210 HD
ENDBRANCH   4  23
ENDBRANCH   1   4
BRANCH   1  25
ATOM     25  C   UNL     1       9.448   1.558  35.131  0.00  0.00    +0.141 C 
BRANCH  25  28
ATOM     26  C   UNL     1      11.616   2.743  35.157  0.00  0.00    +0.401 C 
ATOM     27  O   UNL     1      11.680   2.795  36.388  0.00  0.00    -0.226 OA
ATOM     28  N   UNL     1      10.606   2.189  34.486  0.00  0.00    -0.279 N 
ATOM     29  H   UNL     1      10.639   2.203  33.476  0.00  0.00    +0.152 HD
BRANCH  26  30
ATOM     30  O   UNL     1      12.676   3.309  34.383  0.00  0.00    -0.444 OA
BRANCH  30  31
ATOM     31  C   UNL     1      13.933   2.977  34.978  0.00  0.00    +0.292 C 
BRANCH  31  33
ATOM     32  N   UNL     1      14.142   5.391  35.486  0.00  0.00    -0.131 NA
ATOM     33  C   UNL     1      14.739   4.193  35.196  0.00  0.00    +0.120 A 
ATOM     34  C   UNL     1      16.104   4.371  35.142  0.00  0.00    +0.137 A 
ATOM     35  N   UNL     1      16.265   5.712  35.332  0.00  0.00    -0.247 N 
ATOM     36  N   UNL     1      15.089   6.314  35.589  0.00  0.00    -0.065 NA
BRANCH  35  37
ATOM     37  C   UNL     1      17.486   6.495  35.213  0.00  0.00    +0.184 C 
BRANCH  37  38
ATOM     38  C   UNL     1      17.548   7.317  33.941  0.00  0.00    +0.017 A 
ATOM     39  C   UNL     1      18.111   6.822  32.749  0.00  0.00    +0.024 A 
ATOM     40  C   UNL     1      18.151   7.609  31.594  0.00  0.00    +0.019 A 
ATOM     41 BR   UNL     1      18.960   6.928  30.026  0.00  0.00    -0.050 Br
ATOM     42  C   UNL     1      17.606   8.889  31.585  0.00  0.00    +0.034 A 
ATOM     43  C   UNL     1      17.004   9.374  32.743  0.00  0.00    +0.061 A 
ATOM     44 BR   UNL     1      16.229  11.104  32.714  0.00  0.00    -0.046 Br
ATOM     45  C   UNL     1      16.971   8.594  33.907  0.00  0.00    +0.136 A 
BRANCH  45  46
ATOM     46  O   UNL     1      16.367   9.056  35.047  0.00  0.00    -0.505 OA
ATOM     47  H   UNL     1      15.733   9.750  34.783  0.00  0.00    +0.292 HD
ENDBRANCH  45  46
ENDBRANCH  37  38
ENDBRANCH  35  37
ENDBRANCH  31  33
ENDBRANCH  30  31
ENDBRANCH  26  30
ENDBRANCH  25  28
ENDBRANCH   1  25
TORSDOF 16
