REMARK VINA RESULT:    -6.165      2.142      3.381
REMARK INTER + INTRA:         -13.779
REMARK INTER:                 -12.264
REMARK INTRA:                  -1.516
REMARK UNBOUND:                -1.667
REMARK  Name = lig_assembled_43.pdb
REMARK  20 active torsions:
REMARK  status: ('A' for Active; 'I' for Inactive)
REMARK    1  A    between atoms: _2  and  _9
REMARK    2  A    between atoms: _4  and  _18
REMARK    3  A    between atoms: _6  and  _7
REMARK    4  A    between atoms: _6  and  _18
REMARK    5  A    between atoms: _9  and  _10
REMARK    6  A    between atoms: _10  and  _11
REMARK    7  A    between atoms: _11  and  _12
REMARK    8  A    between atoms: _12  and  _13
REMARK    9  A    between atoms: _14  and  _34
REMARK   10  A    between atoms: _16  and  _22
REMARK   11  A    between atoms: _17  and  _21
REMARK   12  A    between atoms: _21  and  _22
REMARK   13  A    between atoms: _24  and  _25
REMARK   14  A    between atoms: _26  and  _27
REMARK   15  A    between atoms: _28  and  _30
REMARK   16  A    between atoms: _30  and  _31
REMARK   17  A    between atoms: _30  and  _32
REMARK   18  A    between atoms: _32  and  _33
REMARK   19  A    between atoms: _32  and  _34
REMARK   20  A    between atoms: _35  and  _37
REMARK                            x       y       z     vdW  Elec       q    Type
REMARK                         _______ _______ _______ _____ _____    ______ ____
ROOT
ATOM      1  C   UNL     1       6.342   2.886  32.717  0.00  0.00    +0.163 C 
ENDROOT
BRANCH   1   2
ATOM      2  O   UNL     1       6.320   3.263  31.331  0.00  0.00    -0.388 OA
ATOM      3  H   UNL     1       5.968   4.152  31.246  0.00  0.00    +0.210 HD
ENDBRANCH   1   2
BRANCH   1   4
ATOM      4  C   UNL     1       7.468   3.616  33.469  0.00  0.00    +0.175 C 
BRANCH   4   5
ATOM      5  C   UNL     1       7.025   4.081  34.864  0.00  0.00    +0.176 C 
ATOM      6  O   UNL     1       7.207   5.522  34.935  0.00  0.00    -0.332 OA
ATOM      7  C   UNL     1       6.734   6.161  36.166  0.00  0.00    +0.277 C 
ATOM      8  C   UNL     1       7.378   5.491  37.405  0.00  0.00    +0.110 C 
ATOM      9  C   UNL     1       7.237   3.954  37.359  0.00  0.00    +0.143 C 
ATOM     10  C   UNL     1       7.756   3.396  36.033  0.00  0.00    +0.133 C 
BRANCH  10  11
ATOM     11  N   UNL     1       7.537   1.942  35.966  0.00  0.00    -0.308 N 
ATOM     12  H   UNL     1       6.584   1.608  35.982  0.00  0.00    +0.149 HD
ATOM     13  C   UNL     1       8.515   1.036  35.886  0.00  0.00    +0.210 C 
ATOM     14  C   UNL     1       9.958   1.577  35.890  0.00  0.00    +0.109 C 
ATOM     15  O   UNL     1       8.301  -0.174  35.816  0.00  0.00    -0.276 OA
ENDBRANCH  10  11
BRANCH   7  16
ATOM     16  C   UNL     1       5.198   6.074  36.273  0.00  0.00    +0.414 C 
ATOM     17  O   UNL     1       4.511   5.966  35.258  0.00  0.00    -0.240 OA
ATOM     18  O   UNL     1       4.645   6.110  37.373  0.00  0.00    -0.240 OA
ENDBRANCH   7  16
BRANCH   9  19
ATOM     19  O   UNL     1       7.972   3.371  38.435  0.00  0.00    -0.390 OA
ATOM     20  H   UNL     1       7.831   2.421  38.442  0.00  0.00    +0.210 HD
ENDBRANCH   9  19
BRANCH   7  21
ATOM     21  O   UNL     1       7.143   7.553  36.135  0.00  0.00    -0.343 OA
ATOM     22  C   UNL     1       8.315   7.864  36.930  0.00  0.00    +0.198 C 
ENDBRANCH   7  21
ENDBRANCH   4   5
BRANCH   4  23
ATOM     23  O   UNL     1       7.933   4.741  32.696  0.00  0.00    -0.387 OA
ATOM     24  H   UNL     1       7.484   5.538  32.988  0.00  0.00    +0.210 HD
ENDBRANCH   4  23
ENDBRANCH   1   4
BRANCH   1  25
ATOM     25  C   UNL     1       5.001   3.211  33.367  0.00  0.00    +0.141 C 
BRANCH  25  28
ATOM     26  C   UNL     1       2.771   4.025  32.681  0.00  0.00    +0.401 C 
ATOM     27  O   UNL     1       2.236   3.752  33.759  0.00  0.00    -0.226 OA
ATOM     28  N   UNL     1       4.057   3.800  32.409  0.00  0.00    -0.279 N 
ATOM     29  H   UNL     1       4.401   4.049  31.493  0.00  0.00    +0.152 HD
BRANCH  26  30
ATOM     30  O   UNL     1       1.982   4.614  31.644  0.00  0.00    -0.444 OA
BRANCH  30  31
ATOM     31  C   UNL     1       0.870   3.766  31.349  0.00  0.00    +0.292 C 
BRANCH  31  33
ATOM     32  N   UNL     1      -0.417   4.341  29.314  0.00  0.00    -0.131 NA
ATOM     33  C   UNL     1       0.647   3.700  29.893  0.00  0.00    +0.120 A 
ATOM     34  C   UNL     1       1.370   3.054  28.915  0.00  0.00    +0.137 A 
ATOM     35  N   UNL     1       0.690   3.336  27.768  0.00  0.00    -0.251 N 
ATOM     36  N   UNL     1      -0.380   4.109  28.008  0.00  0.00    -0.065 NA
BRANCH  35  37
ATOM     37  C   UNL     1       0.980   2.881  26.425  0.00  0.00    +0.145 C 
BRANCH  37  38
ATOM     38  C   UNL     1       2.186   3.607  25.836  0.00  0.00    +0.024 C 
BRANCH  38  39
ATOM     39  C   UNL     1       1.826   4.386  24.570  0.00  0.00    +0.006 C 
BRANCH  39  40
ATOM     40  C   UNL     1       1.942   3.488  23.336  0.00  0.00    +0.026 C 
BRANCH  40  41
ATOM     41  C   UNL     1       1.270   4.089  22.137  0.00  0.00    -0.034 C 
ATOM     42  C   UNL     1       1.765   4.025  20.894  0.00  0.00    +0.004 C 
ENDBRANCH  40  41
ENDBRANCH  39  40
ENDBRANCH  38  39
ENDBRANCH  37  38
ENDBRANCH  35  37
ENDBRANCH  31  33
ENDBRANCH  30  31
ENDBRANCH  26  30
ENDBRANCH  25  28
ENDBRANCH   1  25
TORSDOF 18
