REMARK VINA RESULT:    -6.778      2.228      3.141
REMARK INTER + INTRA:         -14.831
REMARK INTER:                 -12.575
REMARK INTRA:                  -2.257
REMARK UNBOUND:                -1.911
REMARK  Name = lig_assembled_26.pdb
REMARK  20 active torsions:
REMARK  status: ('A' for Active; 'I' for Inactive)
REMARK    1  A    between atoms: _2  and  _9
REMARK    2  A    between atoms: _4  and  _23
REMARK    3  A    between atoms: _6  and  _7
REMARK    4  A    between atoms: _6  and  _23
REMARK    5  A    between atoms: _9  and  _10
REMARK    6  A    between atoms: _9  and  _11
REMARK    7  A    between atoms: _11  and  _12
REMARK    8  A    between atoms: _12  and  _13
REMARK    9  A    between atoms: _19  and  _39
REMARK   10  A    between atoms: _21  and  _27
REMARK   11  A    between atoms: _22  and  _26
REMARK   12  A    between atoms: _26  and  _27
REMARK   13  A    between atoms: _29  and  _30
REMARK   14  A    between atoms: _31  and  _32
REMARK   15  A    between atoms: _33  and  _35
REMARK   16  A    between atoms: _35  and  _36
REMARK   17  A    between atoms: _35  and  _37
REMARK   18  A    between atoms: _37  and  _38
REMARK   19  A    between atoms: _37  and  _39
REMARK   20  A    between atoms: _40  and  _42
REMARK                            x       y       z     vdW  Elec       q    Type
REMARK                         _______ _______ _______ _____ _____    ______ ____
ROOT
ATOM      1  C   UNL     1       6.765   2.008  33.156  0.00  0.00    +0.163 C 
ENDROOT
BRANCH   1   2
ATOM      2  O   UNL     1       8.159   1.848  32.847  0.00  0.00    -0.388 OA
ATOM      3  H   UNL     1       8.344   2.238  31.990  0.00  0.00    +0.210 HD
ENDBRANCH   1   2
BRANCH   1   4
ATOM      4  C   UNL     1       6.576   2.535  34.589  0.00  0.00    +0.175 C 
BRANCH   4   5
ATOM      5  C   UNL     1       7.847   3.205  35.131  0.00  0.00    +0.176 C 
ATOM      6  O   UNL     1       8.475   2.284  36.064  0.00  0.00    -0.332 OA
ATOM      7  C   UNL     1       9.767   2.713  36.607  0.00  0.00    +0.277 C 
ATOM      8  C   UNL     1       9.643   4.113  37.257  0.00  0.00    +0.110 C 
ATOM      9  C   UNL     1       8.952   5.120  36.313  0.00  0.00    +0.143 C 
ATOM     10  C   UNL     1       7.618   4.570  35.806  0.00  0.00    +0.133 C 
BRANCH  10  11
ATOM     11  N   UNL     1       7.011   5.500  34.840  0.00  0.00    -0.308 N 
ATOM     12  H   UNL     1       7.519   5.693  33.988  0.00  0.00    +0.149 HD
ATOM     13  C   UNL     1       5.834   6.106  35.016  0.00  0.00    +0.210 C 
ATOM     14  C   UNL     1       5.097   5.811  36.337  0.00  0.00    +0.109 C 
ATOM     15  O   UNL     1       5.343   6.868  34.184  0.00  0.00    -0.276 OA
ENDBRANCH  10  11
BRANCH   7  16
ATOM     16  C   UNL     1      10.840   2.753  35.498  0.00  0.00    +0.414 C 
ATOM     17  O   UNL     1      11.902   3.346  35.683  0.00  0.00    -0.240 OA
ATOM     18  O   UNL     1      10.643   2.192  34.419  0.00  0.00    -0.240 OA
ENDBRANCH   7  16
BRANCH   7  19
ATOM     19  O   UNL     1      10.161   1.766  37.633  0.00  0.00    -0.343 OA
ATOM     20  C   UNL     1       9.062   1.145  38.346  0.00  0.00    +0.198 C 
ENDBRANCH   7  19
BRANCH   9  21
ATOM     21  O   UNL     1       8.722   6.349  37.004  0.00  0.00    -0.390 OA
ATOM     22  H   UNL     1       9.564   6.743  37.245  0.00  0.00    +0.210 HD
ENDBRANCH   9  21
ENDBRANCH   4   5
BRANCH   4  23
ATOM     23  O   UNL     1       6.168   1.463  35.463  0.00  0.00    -0.387 OA
ATOM     24  H   UNL     1       6.743   1.440  36.231  0.00  0.00    +0.210 HD
ENDBRANCH   4  23
ENDBRANCH   1   4
BRANCH   1  25
ATOM     25  C   UNL     1       6.119   2.975  32.169  0.00  0.00    +0.141 C 
BRANCH  25  28
ATOM     26  C   UNL     1       3.658   3.197  32.187  0.00  0.00    +0.401 C 
ATOM     27  O   UNL     1       3.661   4.202  32.903  0.00  0.00    -0.226 OA
ATOM     28  N   UNL     1       4.761   2.555  31.800  0.00  0.00    -0.279 N 
ATOM     29  H   UNL     1       4.657   1.734  31.221  0.00  0.00    +0.152 HD
BRANCH  26  30
ATOM     30  O   UNL     1       2.409   2.669  31.737  0.00  0.00    -0.444 OA
BRANCH  30  31
ATOM     31  C   UNL     1       1.578   3.736  31.271  0.00  0.00    +0.292 C 
BRANCH  31  33
ATOM     32  N   UNL     1       0.180   4.081  29.251  0.00  0.00    -0.131 NA
ATOM     33  C   UNL     1       1.324   3.596  29.826  0.00  0.00    +0.120 A 
ATOM     34  C   UNL     1       2.107   3.016  28.855  0.00  0.00    +0.137 A 
ATOM     35  N   UNL     1       1.377   3.151  27.712  0.00  0.00    -0.248 N 
ATOM     36  N   UNL     1       0.230   3.819  27.951  0.00  0.00    -0.065 NA
BRANCH  35  37
ATOM     37  C   UNL     1       1.707   2.756  26.352  0.00  0.00    +0.113 C 
ATOM     38  C   UNL     1       2.060   1.271  26.191  0.00  0.00    +0.033 C 
BRANCH  37  39
ATOM     39  C   UNL     1       0.647   3.204  25.329  0.00  0.00    +0.106 C 
BRANCH  39  40
ATOM     40  C   UNL     1       1.165   4.180  24.289  0.00  0.00    +0.165 C 
ATOM     41  O   UNL     1       1.352   5.369  24.539  0.00  0.00    -0.292 OA
BRANCH  40  42
ATOM     42  C   UNL     1       1.419   3.686  22.902  0.00  0.00    +0.017 A 
ATOM     43  C   UNL     1       1.598   4.553  21.817  0.00  0.00    +0.011 A 
ATOM     44  C   UNL     1       1.875   4.038  20.548  0.00  0.00    +0.001 A 
ATOM     45  C   UNL     1       1.967   2.660  20.355  0.00  0.00    +0.000 A 
ATOM     46  C   UNL     1       1.780   1.792  21.426  0.00  0.00    +0.001 A 
ATOM     47  C   UNL     1       1.507   2.302  22.696  0.00  0.00    +0.011 A 
ENDBRANCH  40  42
ENDBRANCH  39  40
ENDBRANCH  37  39
ENDBRANCH  35  37
ENDBRANCH  31  33
ENDBRANCH  30  31
ENDBRANCH  26  30
ENDBRANCH  25  28
ENDBRANCH   1  25
TORSDOF 17
