REMARK VINA RESULT:    -7.186      8.245     12.292
REMARK INTER + INTRA:         -15.345
REMARK INTER:                 -11.686
REMARK INTRA:                  -3.659
REMARK UNBOUND:                -2.067
REMARK  Name = lig_assembled_79.pdb
REMARK  20 active torsions:
REMARK  status: ('A' for Active; 'I' for Inactive)
REMARK    1  A    between atoms: _2  and  _10
REMARK    2  A    between atoms: _5  and  _26
REMARK    3  A    between atoms: _7  and  _8
REMARK    4  A    between atoms: _7  and  _26
REMARK    5  A    between atoms: _10  and  _11
REMARK    6  A    between atoms: _10  and  _12
REMARK    7  A    between atoms: _10  and  _13
REMARK    8  A    between atoms: _13  and  _14
REMARK    9  A    between atoms: _22  and  _42
REMARK   10  A    between atoms: _24  and  _30
REMARK   11  A    between atoms: _25  and  _29
REMARK   12  A    between atoms: _29  and  _30
REMARK   13  A    between atoms: _32  and  _33
REMARK   14  A    between atoms: _34  and  _35
REMARK   15  A    between atoms: _36  and  _38
REMARK   16  A    between atoms: _38  and  _39
REMARK   17  A    between atoms: _38  and  _40
REMARK   18  A    between atoms: _40  and  _41
REMARK   19  A    between atoms: _40  and  _42
REMARK   20  A    between atoms: _43  and  _45
REMARK                            x       y       z     vdW  Elec       q    Type
REMARK                         _______ _______ _______ _____ _____    ______ ____
ROOT
ATOM      1  C   UNL     1       0.860  -2.371  25.169  0.00  0.00    +0.401 C 
ATOM      2  O   UNL     1      -0.342  -2.096  25.134  0.00  0.00    -0.226 OA
ATOM      3  N   UNL     1       1.829  -1.463  25.289  0.00  0.00    -0.279 N 
ATOM      4  H   UNL     1       2.786  -1.787  25.318  0.00  0.00    +0.152 HD
ENDROOT
BRANCH   3   5
ATOM      5  C   UNL     1       1.585  -0.018  25.382  0.00  0.00    +0.141 C 
BRANCH   5   6
ATOM      6  C   UNL     1       1.765   0.676  24.036  0.00  0.00    +0.163 C 
BRANCH   6   7
ATOM      7  O   UNL     1       2.525  -0.161  23.149  0.00  0.00    -0.388 OA
ATOM      8  H   UNL     1       3.388  -0.335  23.533  0.00  0.00    +0.210 HD
ENDBRANCH   6   7
BRANCH   6   9
ATOM      9  C   UNL     1       0.387   1.004  23.437  0.00  0.00    +0.175 C 
BRANCH   9  10
ATOM     10  C   UNL     1       0.329   2.427  22.864  0.00  0.00    +0.176 C 
ATOM     11  O   UNL     1       1.108   2.446  21.636  0.00  0.00    -0.332 OA
ATOM     12  C   UNL     1       1.081   3.706  20.888  0.00  0.00    +0.277 C 
ATOM     13  C   UNL     1       1.507   4.885  21.797  0.00  0.00    +0.110 C 
ATOM     14  C   UNL     1       0.727   4.888  23.129  0.00  0.00    +0.143 C 
ATOM     15  C   UNL     1       0.820   3.528  23.822  0.00  0.00    +0.133 C 
BRANCH  15  16
ATOM     16  N   UNL     1       0.003   3.516  25.045  0.00  0.00    -0.308 N 
ATOM     17  H   UNL     1      -1.002   3.510  24.940  0.00  0.00    +0.149 HD
ATOM     18  C   UNL     1       0.501   3.513  26.284  0.00  0.00    +0.210 C 
ATOM     19  C   UNL     1       2.036   3.548  26.409  0.00  0.00    +0.109 C 
ATOM     20  O   UNL     1      -0.208   3.488  27.290  0.00  0.00    -0.276 OA
ENDBRANCH  15  16
BRANCH  12  21
ATOM     21  C   UNL     1      -0.329   3.975  20.321  0.00  0.00    +0.414 C 
ATOM     22  O   UNL     1      -0.749   5.128  20.224  0.00  0.00    -0.240 OA
ATOM     23  O   UNL     1      -1.045   3.041  19.961  0.00  0.00    -0.240 OA
ENDBRANCH  12  21
BRANCH  14  24
ATOM     24  O   UNL     1       1.255   5.894  23.994  0.00  0.00    -0.390 OA
ATOM     25  H   UNL     1       1.644   5.480  24.767  0.00  0.00    +0.210 HD
ENDBRANCH  14  24
BRANCH  12  26
ATOM     26  O   UNL     1       2.033   3.602  19.798  0.00  0.00    -0.343 OA
ATOM     27  C   UNL     1       2.391   2.247  19.425  0.00  0.00    +0.198 C 
ENDBRANCH  12  26
ENDBRANCH   9  10
BRANCH   9  28
ATOM     28  O   UNL     1      -0.641   0.827  24.432  0.00  0.00    -0.387 OA
ATOM     29  H   UNL     1      -0.534   1.484  25.124  0.00  0.00    +0.210 HD
ENDBRANCH   9  28
ENDBRANCH   6   9
ENDBRANCH   5   6
ENDBRANCH   3   5
BRANCH   1  30
ATOM     30  O   UNL     1       1.262  -3.741  25.081  0.00  0.00    -0.444 OA
BRANCH  30  31
ATOM     31  C   UNL     1       1.955  -3.957  23.849  0.00  0.00    +0.292 C 
BRANCH  31  33
ATOM     32  N   UNL     1       4.039  -2.685  23.501  0.00  0.00    -0.131 NA
ATOM     33  C   UNL     1       3.403  -3.765  24.041  0.00  0.00    +0.120 A 
ATOM     34  C   UNL     1       4.321  -4.539  24.714  0.00  0.00    +0.138 A 
ATOM     35  N   UNL     1       5.491  -3.836  24.631  0.00  0.00    -0.238 N 
ATOM     36  N   UNL     1       5.320  -2.758  23.825  0.00  0.00    -0.064 NA
BRANCH  35  37
ATOM     37  C   UNL     1       6.869  -4.174  25.094  0.00  0.00    +0.122 C 
ATOM     38  C   UNL     1       7.680  -4.540  23.828  0.00  0.00    +0.044 C 
ATOM     39  C   UNL     1       6.679  -5.330  26.096  0.00  0.00    +0.044 C 
BRANCH  37  40
ATOM     40  C   UNL     1       7.593  -2.997  25.780  0.00  0.00    +0.192 C 
ATOM     41  O   UNL     1       8.518  -2.414  25.206  0.00  0.00    -0.289 OA
BRANCH  40  42
ATOM     42  C   UNL     1       7.240  -2.525  27.151  0.00  0.00    +0.045 A 
ATOM     43  C   UNL     1       8.159  -2.657  28.186  0.00  0.00    +0.095 A 
ATOM     44  N   UNL     1       7.617  -2.189  29.344  0.00  0.00    -0.360 N 
ATOM     45  H   UNL     1       8.077  -2.182  30.245  0.00  0.00    +0.165 HD
ATOM     46  C   UNL     1       6.344  -1.736  29.116  0.00  0.00    +0.047 A 
ATOM     47  C   UNL     1       5.430  -1.187  30.028  0.00  0.00    +0.026 A 
ATOM     48  C   UNL     1       4.177  -0.800  29.554  0.00  0.00    +0.002 A 
ATOM     49  C   UNL     1       3.854  -0.955  28.215  0.00  0.00    +0.001 A 
ATOM     50  C   UNL     1       4.780  -1.505  27.321  0.00  0.00    +0.011 A 
ATOM     51  C   UNL     1       6.066  -1.919  27.754  0.00  0.00    +0.010 A 
ENDBRANCH  40  42
ENDBRANCH  37  40
ENDBRANCH  35  37
ENDBRANCH  31  33
ENDBRANCH  30  31
ENDBRANCH   1  30
TORSDOF 16
