REMARK VINA RESULT:    -5.509      7.111     11.602
REMARK INTER + INTRA:         -13.725
REMARK INTER:                 -11.398
REMARK INTRA:                  -2.327
REMARK UNBOUND:                -3.868
REMARK  Name = lig_assembled_85.pdb
REMARK  19 active torsions:
REMARK  status: ('A' for Active; 'I' for Inactive)
REMARK    1  A    between atoms: _2  and  _10
REMARK    2  A    between atoms: _3  and  _6
REMARK    3  A    between atoms: _3  and  _17
REMARK    4  A    between atoms: _5  and  _23
REMARK    5  A    between atoms: _7  and  _8
REMARK    6  A    between atoms: _7  and  _23
REMARK    7  A    between atoms: _15  and  _16
REMARK    8  A    between atoms: _19  and  _39
REMARK    9  A    between atoms: _21  and  _27
REMARK   10  A    between atoms: _22  and  _26
REMARK   11  A    between atoms: _26  and  _27
REMARK   12  A    between atoms: _29  and  _30
REMARK   13  A    between atoms: _31  and  _32
REMARK   14  A    between atoms: _33  and  _35
REMARK   15  A    between atoms: _35  and  _36
REMARK   16  A    between atoms: _35  and  _37
REMARK   17  A    between atoms: _37  and  _38
REMARK   18  A    between atoms: _37  and  _39
REMARK   19  A    between atoms: _40  and  _42
REMARK                            x       y       z     vdW  Elec       q    Type
REMARK                         _______ _______ _______ _____ _____    ______ ____
ROOT
ATOM      1  C   UNL     1      19.932   6.554  24.140  0.00  0.00    +0.141 C 
ENDROOT
BRANCH   1   4
ATOM      2  C   UNL     1      19.481   7.893  26.167  0.00  0.00    +0.401 C 
ATOM      3  O   UNL     1      18.262   7.929  25.986  0.00  0.00    -0.226 OA
ATOM      4  N   UNL     1      20.338   7.279  25.351  0.00  0.00    -0.279 N 
ATOM      5  H   UNL     1      21.322   7.313  25.578  0.00  0.00    +0.152 HD
BRANCH   2   6
ATOM      6  O   UNL     1      20.033   8.548  27.312  0.00  0.00    -0.444 OA
BRANCH   6   7
ATOM      7  C   UNL     1      19.620   7.865  28.498  0.00  0.00    +0.292 C 
BRANCH   7   9
ATOM      8  N   UNL     1      18.098   9.742  29.002  0.00  0.00    -0.131 NA
ATOM      9  C   UNL     1      18.995   8.810  29.440  0.00  0.00    +0.121 A 
ATOM     10  C   UNL     1      19.120   8.904  30.807  0.00  0.00    +0.143 A 
ATOM     11  N   UNL     1      18.266   9.918  31.165  0.00  0.00    -0.219 N 
ATOM     12  N   UNL     1      17.640  10.393  30.062  0.00  0.00    -0.060 NA
BRANCH  11  13
ATOM     13  C   UNL     1      17.930  10.401  32.448  0.00  0.00    +0.080 A 
ATOM     14  C   UNL     1      16.964   9.817  33.283  0.00  0.00    +0.062 A 
ATOM     15  C   UNL     1      16.554  10.546  34.423  0.00  0.00    +0.016 A 
ATOM     16  C   UNL     1      17.100  11.795  34.739  0.00  0.00    +0.021 A 
ATOM     17  C   UNL     1      18.106  12.320  33.942  0.00  0.00    +0.043 A 
ATOM     18 CL   UNL     1      18.763  13.870  34.294  0.00  0.00    -0.083 Cl
ATOM     19  C   UNL     1      18.541  11.621  32.820  0.00  0.00    +0.048 A 
BRANCH  14  20
ATOM     20  C   UNL     1      16.225   8.533  33.095  0.00  0.00    +0.248 C 
ATOM     21  O   UNL     1      15.147   8.632  32.503  0.00  0.00    -0.270 OA
ATOM     22  N   UNL     1      16.659   7.302  33.600  0.00  0.00    -0.304 N 
ATOM     23  C   UNL     1      17.948   6.988  34.202  0.00  0.00    +0.132 C 
ATOM     24  C   UNL     1      15.803   6.152  33.330  0.00  0.00    +0.132 C 
ENDBRANCH  14  20
ENDBRANCH  11  13
ENDBRANCH   7   9
ENDBRANCH   6   7
ENDBRANCH   2   6
ENDBRANCH   1   4
BRANCH   1  25
ATOM     25  C   UNL     1      20.353   5.089  24.186  0.00  0.00    +0.163 C 
BRANCH  25  26
ATOM     26  O   UNL     1      21.747   4.988  24.521  0.00  0.00    -0.388 OA
ATOM     27  H   UNL     1      21.948   5.592  25.240  0.00  0.00    +0.210 HD
ENDBRANCH  25  26
BRANCH  25  28
ATOM     28  C   UNL     1      19.485   4.337  25.210  0.00  0.00    +0.175 C 
BRANCH  28  29
ATOM     29  C   UNL     1      19.206   2.890  24.779  0.00  0.00    +0.176 C 
ATOM     30  O   UNL     1      18.372   2.932  23.588  0.00  0.00    -0.332 OA
ATOM     31  C   UNL     1      18.088   1.634  22.967  0.00  0.00    +0.277 C 
ATOM     32  C   UNL     1      17.472   0.662  24.004  0.00  0.00    +0.110 C 
ATOM     33  C   UNL     1      18.307   0.608  25.300  0.00  0.00    +0.143 C 
ATOM     34  C   UNL     1      18.545   2.012  25.858  0.00  0.00    +0.133 C 
BRANCH  34  35
ATOM     35  N   UNL     1      19.414   1.954  27.044  0.00  0.00    -0.308 N 
ATOM     36  H   UNL     1      20.307   1.491  26.952  0.00  0.00    +0.149 HD
ATOM     37  C   UNL     1      19.100   2.475  28.234  0.00  0.00    +0.210 C 
ATOM     38  C   UNL     1      17.721   3.151  28.348  0.00  0.00    +0.109 C 
ATOM     39  O   UNL     1      19.854   2.424  29.206  0.00  0.00    -0.276 OA
ENDBRANCH  34  35
BRANCH  31  40
ATOM     40  C   UNL     1      19.373   1.015  22.380  0.00  0.00    +0.414 C 
ATOM     41  O   UNL     1      20.298   1.739  22.013  0.00  0.00    -0.240 OA
ATOM     42  O   UNL     1      19.485  -0.207  22.274  0.00  0.00    -0.240 OA
ENDBRANCH  31  40
BRANCH  33  43
ATOM     43  O   UNL     1      17.626  -0.178  26.279  0.00  0.00    -0.390 OA
ATOM     44  H   UNL     1      17.226  -0.941  25.856  0.00  0.00    +0.210 HD
ENDBRANCH  33  43
BRANCH  31  45
ATOM     45  O   UNL     1      17.120   1.846  21.908  0.00  0.00    -0.343 OA
ATOM     46  C   UNL     1      16.857   3.236  21.588  0.00  0.00    +0.198 C 
ENDBRANCH  31  45
ENDBRANCH  28  29
BRANCH  28  47
ATOM     47  O   UNL     1      18.245   5.041  25.422  0.00  0.00    -0.387 OA
ATOM     48  H   UNL     1      18.309   5.568  26.222  0.00  0.00    +0.210 HD
ENDBRANCH  28  47
ENDBRANCH  25  28
ENDBRANCH   1  25
TORSDOF 15
