REMARK VINA RESULT:    -5.822      5.261      6.669
REMARK INTER + INTRA:         -12.665
REMARK INTER:                 -10.873
REMARK INTRA:                  -1.792
REMARK UNBOUND:                -2.248
REMARK  Name = lig_assembled_61.pdb
REMARK  17 active torsions:
REMARK  status: ('A' for Active; 'I' for Inactive)
REMARK    1  A    between atoms: _2  and  _9
REMARK    2  A    between atoms: _4  and  _17
REMARK    3  A    between atoms: _6  and  _7
REMARK    4  A    between atoms: _6  and  _17
REMARK    5  A    between atoms: _9  and  _10
REMARK    6  A    between atoms: _13  and  _33
REMARK    7  A    between atoms: _15  and  _21
REMARK    8  A    between atoms: _16  and  _20
REMARK    9  A    between atoms: _20  and  _21
REMARK   10  A    between atoms: _23  and  _24
REMARK   11  A    between atoms: _25  and  _26
REMARK   12  A    between atoms: _27  and  _29
REMARK   13  A    between atoms: _29  and  _30
REMARK   14  A    between atoms: _29  and  _31
REMARK   15  A    between atoms: _31  and  _32
REMARK   16  A    between atoms: _31  and  _33
REMARK   17  A    between atoms: _34  and  _36
REMARK                            x       y       z     vdW  Elec       q    Type
REMARK                         _______ _______ _______ _____ _____    ______ ____
ROOT
ATOM      1  C   UNL     1       7.878   2.394  34.311  0.00  0.00    +0.163 C 
ENDROOT
BRANCH   1   2
ATOM      2  O   UNL     1       8.614   2.625  35.524  0.00  0.00    -0.388 OA
ATOM      3  H   UNL     1       8.538   3.549  35.774  0.00  0.00    +0.210 HD
ENDBRANCH   1   2
BRANCH   1   4
ATOM      4  C   UNL     1       8.485   1.222  33.547  0.00  0.00    +0.141 C 
BRANCH   4   7
ATOM      5  C   UNL     1       7.443  -0.759  32.502  0.00  0.00    +0.401 C 
ATOM      6  O   UNL     1       8.220  -1.561  33.026  0.00  0.00    -0.226 OA
ATOM      7  N   UNL     1       7.498   0.560  32.685  0.00  0.00    -0.279 N 
ATOM      8  H   UNL     1       6.822   1.137  32.205  0.00  0.00    +0.152 HD
BRANCH   5   9
ATOM      9  O   UNL     1       6.415  -1.252  31.638  0.00  0.00    -0.444 OA
BRANCH   9  10
ATOM     10  C   UNL     1       6.876  -2.430  30.971  0.00  0.00    +0.292 C 
BRANCH  10  12
ATOM     11  N   UNL     1       5.781  -1.661  28.889  0.00  0.00    -0.131 NA
ATOM     12  C   UNL     1       6.861  -2.233  29.509  0.00  0.00    +0.120 A 
ATOM     13  C   UNL     1       7.814  -2.543  28.564  0.00  0.00    +0.137 A 
ATOM     14  N   UNL     1       7.230  -2.189  27.383  0.00  0.00    -0.247 N 
ATOM     15  N   UNL     1       6.026  -1.622  27.585  0.00  0.00    -0.065 NA
BRANCH  14  16
ATOM     16  C   UNL     1       7.764  -2.323  26.040  0.00  0.00    +0.180 C 
BRANCH  16  17
ATOM     17  C   UNL     1       6.752  -2.901  25.091  0.00  0.00    -0.019 A 
ATOM     18  C   UNL     1       5.902  -2.123  24.233  0.00  0.00    +0.013 A 
ATOM     19  C   UNL     1       5.036  -2.899  23.492  0.00  0.00    +0.045 A 
ATOM     20  S   UNL     1       5.242  -4.564  23.806  0.00  0.00    -0.105 S 
ATOM     21  C   UNL     1       6.479  -4.252  24.942  0.00  0.00    +0.050 A 
ENDBRANCH  16  17
ENDBRANCH  14  16
ENDBRANCH  10  12
ENDBRANCH   9  10
ENDBRANCH   5   9
ENDBRANCH   4   7
ENDBRANCH   1   4
BRANCH   1  22
ATOM     22  C   UNL     1       7.881   3.647  33.419  0.00  0.00    +0.175 C 
BRANCH  22  23
ATOM     23  C   UNL     1       7.018   4.775  34.003  0.00  0.00    +0.176 C 
ATOM     24  O   UNL     1       7.758   5.385  35.095  0.00  0.00    -0.332 OA
ATOM     25  C   UNL     1       7.129   6.558  35.710  0.00  0.00    +0.277 C 
ATOM     26  C   UNL     1       5.692   6.220  36.176  0.00  0.00    +0.110 C 
ATOM     27  C   UNL     1       4.876   5.540  35.057  0.00  0.00    +0.143 C 
ATOM     28  C   UNL     1       5.624   4.335  34.487  0.00  0.00    +0.133 C 
BRANCH  28  29
ATOM     29  N   UNL     1       4.876   3.748  33.364  0.00  0.00    -0.308 N 
ATOM     30  H   UNL     1       4.807   4.285  32.511  0.00  0.00    +0.149 HD
ATOM     31  C   UNL     1       4.282   2.552  33.398  0.00  0.00    +0.210 C 
ATOM     32  C   UNL     1       4.383   1.769  34.720  0.00  0.00    +0.109 C 
ATOM     33  O   UNL     1       3.675   2.079  32.436  0.00  0.00    -0.276 OA
ENDBRANCH  28  29
BRANCH  25  34
ATOM     34  C   UNL     1       7.085   7.738  34.717  0.00  0.00    +0.414 C 
ATOM     35  O   UNL     1       8.130   8.237  34.299  0.00  0.00    -0.240 OA
ATOM     36  O   UNL     1       6.006   8.191  34.333  0.00  0.00    -0.240 OA
ENDBRANCH  25  34
BRANCH  25  37
ATOM     37  O   UNL     1       7.912   6.929  36.874  0.00  0.00    -0.343 OA
ATOM     38  C   UNL     1       7.175   6.963  38.122  0.00  0.00    +0.198 C 
ENDBRANCH  25  37
BRANCH  27  39
ATOM     39  O   UNL     1       3.615   5.111  35.573  0.00  0.00    -0.390 OA
ATOM     40  H   UNL     1       2.974   5.820  35.485  0.00  0.00    +0.210 HD
ENDBRANCH  27  39
ENDBRANCH  22  23
BRANCH  22  41
ATOM     41  O   UNL     1       7.430   3.312  32.091  0.00  0.00    -0.387 OA
ATOM     42  H   UNL     1       8.125   3.505  31.458  0.00  0.00    +0.210 HD
ENDBRANCH  22  41
ENDBRANCH   1  22
TORSDOF 15
