REMARK VINA RESULT:    -6.287      0.000      0.000
REMARK INTER + INTRA:         -14.802
REMARK INTER:                 -11.959
REMARK INTRA:                  -2.843
REMARK UNBOUND:                -2.450
REMARK  Name = lig_assembled_10.pdb
REMARK  21 active torsions:
REMARK  status: ('A' for Active; 'I' for Inactive)
REMARK    1  A    between atoms: _2  and  _9
REMARK    2  A    between atoms: _4  and  _20
REMARK    3  A    between atoms: _5  and  _9
REMARK    4  A    between atoms: _5  and  _12
REMARK    5  A    between atoms: _6  and  _7
REMARK    6  A    between atoms: _6  and  _20
REMARK    7  A    between atoms: _9  and  _10
REMARK    8  A    between atoms: _10  and  _11
REMARK    9  A    between atoms: _11  and  _14
REMARK   10  A    between atoms: _16  and  _36
REMARK   11  A    between atoms: _18  and  _24
REMARK   12  A    between atoms: _19  and  _23
REMARK   13  A    between atoms: _23  and  _24
REMARK   14  A    between atoms: _26  and  _27
REMARK   15  A    between atoms: _28  and  _29
REMARK   16  A    between atoms: _30  and  _32
REMARK   17  A    between atoms: _32  and  _33
REMARK   18  A    between atoms: _32  and  _34
REMARK   19  A    between atoms: _34  and  _35
REMARK   20  A    between atoms: _34  and  _36
REMARK   21  A    between atoms: _37  and  _39
REMARK                            x       y       z     vdW  Elec       q    Type
REMARK                         _______ _______ _______ _____ _____    ______ ____
ROOT
ATOM      1  C   UNL     1      17.750   4.039  22.606  0.00  0.00    +0.163 C 
ENDROOT
BRANCH   1   2
ATOM      2  O   UNL     1      17.028   5.220  22.992  0.00  0.00    -0.388 OA
ATOM      3  H   UNL     1      16.911   5.226  23.945  0.00  0.00    +0.210 HD
ENDBRANCH   1   2
BRANCH   1   4
ATOM      4  C   UNL     1      18.328   3.320  23.837  0.00  0.00    +0.175 C 
BRANCH   4   5
ATOM      5  C   UNL     1      18.359   4.228  25.075  0.00  0.00    +0.176 C 
ATOM      6  O   UNL     1      19.603   4.980  25.047  0.00  0.00    -0.332 OA
ATOM      7  C   UNL     1      19.761   5.984  26.103  0.00  0.00    +0.277 C 
ATOM      8  C   UNL     1      19.573   5.337  27.497  0.00  0.00    +0.110 C 
ATOM      9  C   UNL     1      18.278   4.500  27.566  0.00  0.00    +0.143 C 
ATOM     10  C   UNL     1      18.216   3.490  26.419  0.00  0.00    +0.133 C 
BRANCH  10  11
ATOM     11  N   UNL     1      16.939   2.759  26.445  0.00  0.00    -0.308 N 
ATOM     12  H   UNL     1      16.086   3.298  26.400  0.00  0.00    +0.149 HD
ATOM     13  C   UNL     1      16.834   1.430  26.524  0.00  0.00    +0.210 C 
ATOM     14  C   UNL     1      18.152   0.638  26.617  0.00  0.00    +0.109 C 
ATOM     15  O   UNL     1      15.751   0.844  26.529  0.00  0.00    -0.276 OA
ENDBRANCH  10  11
BRANCH   7  16
ATOM     16  C   UNL     1      18.744   7.130  25.926  0.00  0.00    +0.414 C 
ATOM     17  O   UNL     1      17.969   7.129  24.970  0.00  0.00    -0.240 OA
ATOM     18  O   UNL     1      18.698   8.055  26.737  0.00  0.00    -0.240 OA
ENDBRANCH   7  16
BRANCH   7  19
ATOM     19  O   UNL     1      21.110   6.512  26.023  0.00  0.00    -0.343 OA
ATOM     20  C   UNL     1      21.528   6.923  24.697  0.00  0.00    +0.198 C 
ENDBRANCH   7  19
BRANCH   9  21
ATOM     21  O   UNL     1      18.221   3.802  28.811  0.00  0.00    -0.390 OA
ATOM     22  H   UNL     1      19.112   3.665  29.143  0.00  0.00    +0.210 HD
ENDBRANCH   9  21
ENDBRANCH   4   5
BRANCH   4  23
ATOM     23  O   UNL     1      19.651   2.827  23.549  0.00  0.00    -0.387 OA
ATOM     24  H   UNL     1      19.589   1.954  23.155  0.00  0.00    +0.210 HD
ENDBRANCH   4  23
ENDBRANCH   1   4
BRANCH   1  25
ATOM     25  C   UNL     1      16.829   3.089  21.846  0.00  0.00    +0.141 C 
BRANCH  25  28
ATOM     26  C   UNL     1      17.709   1.204  20.513  0.00  0.00    +0.401 C 
ATOM     27  O   UNL     1      17.494   1.748  19.428  0.00  0.00    -0.226 OA
ATOM     28  N   UNL     1      17.424   1.756  21.693  0.00  0.00    -0.279 N 
ATOM     29  H   UNL     1      17.629   1.227  22.529  0.00  0.00    +0.152 HD
BRANCH  26  30
ATOM     30  O   UNL     1      18.296  -0.100  20.532  0.00  0.00    -0.444 OA
BRANCH  30  31
ATOM     31  C   UNL     1      19.052  -0.266  21.734  0.00  0.00    +0.292 C 
BRANCH  31  33
ATOM     32  N   UNL     1      19.331  -2.635  22.402  0.00  0.00    -0.131 NA
ATOM     33  C   UNL     1      18.608  -1.474  22.454  0.00  0.00    +0.120 A 
ATOM     34  C   UNL     1      17.501  -1.668  23.250  0.00  0.00    +0.138 A 
ATOM     35  N   UNL     1      17.626  -2.950  23.689  0.00  0.00    -0.237 N 
ATOM     36  N   UNL     1      18.717  -3.535  23.155  0.00  0.00    -0.065 NA
BRANCH  35  37
ATOM     37  C   UNL     1      16.802  -3.731  24.597  0.00  0.00    +0.227 C 
BRANCH  37  38
ATOM     38  C   UNL     1      16.270  -5.022  24.012  0.00  0.00    +0.330 C 
ATOM     39  O   UNL     1      15.110  -5.125  23.627  0.00  0.00    -0.249 OA
BRANCH  38  40
ATOM     40  O   UNL     1      17.134  -6.050  23.887  0.00  0.00    -0.479 OA
ATOM     41  H   UNL     1      16.739  -6.955  23.787  0.00  0.00    +0.295 HD
ENDBRANCH  38  40
ENDBRANCH  37  38
BRANCH  37  42
ATOM     42  C   UNL     1      15.712  -2.922  25.313  0.00  0.00    +0.158 C 
BRANCH  42  43
ATOM     43  C   UNL     1      15.989  -2.775  26.783  0.00  0.00    +0.307 C 
ATOM     44  O   UNL     1      17.112  -2.628  27.251  0.00  0.00    -0.251 OA
BRANCH  43  45
ATOM     45  O   UNL     1      14.878  -2.737  27.541  0.00  0.00    -0.481 OA
ATOM     46  H   UNL     1      14.297  -3.520  27.469  0.00  0.00    +0.295 HD
ENDBRANCH  43  45
ENDBRANCH  42  43
ENDBRANCH  37  42
ENDBRANCH  35  37
ENDBRANCH  31  33
ENDBRANCH  30  31
ENDBRANCH  26  30
ENDBRANCH  25  28
ENDBRANCH   1  25
TORSDOF 19
