REMARK VINA RESULT:    -5.645     10.827     18.805
REMARK INTER + INTRA:         -13.880
REMARK INTER:                 -12.144
REMARK INTRA:                  -1.736
REMARK UNBOUND:                -3.450
REMARK  Name = lig_assembled_66.pdb
REMARK  18 active torsions:
REMARK  status: ('A' for Active; 'I' for Inactive)
REMARK    1  A    between atoms: _2  and  _10
REMARK    2  A    between atoms: _5  and  _21
REMARK    3  A    between atoms: _7  and  _8
REMARK    4  A    between atoms: _7  and  _21
REMARK    5  A    between atoms: _10  and  _11
REMARK    6  A    between atoms: _15  and  _16
REMARK    7  A    between atoms: _17  and  _37
REMARK    8  A    between atoms: _19  and  _25
REMARK    9  A    between atoms: _20  and  _24
REMARK   10  A    between atoms: _24  and  _25
REMARK   11  A    between atoms: _27  and  _28
REMARK   12  A    between atoms: _29  and  _30
REMARK   13  A    between atoms: _31  and  _33
REMARK   14  A    between atoms: _33  and  _34
REMARK   15  A    between atoms: _33  and  _35
REMARK   16  A    between atoms: _35  and  _36
REMARK   17  A    between atoms: _35  and  _37
REMARK   18  A    between atoms: _38  and  _40
REMARK                            x       y       z     vdW  Elec       q    Type
REMARK                         _______ _______ _______ _____ _____    ______ ____
ROOT
ATOM      1  C   UNL     1      -2.186   8.156  13.363  0.00  0.00    +0.163 C 
ENDROOT
BRANCH   1   2
ATOM      2  O   UNL     1      -2.340   8.323  11.944  0.00  0.00    -0.388 OA
ATOM      3  H   UNL     1      -1.835   9.087  11.655  0.00  0.00    +0.210 HD
ENDBRANCH   1   2
BRANCH   1   4
ATOM      4  C   UNL     1      -2.840   9.321  14.127  0.00  0.00    +0.175 C 
BRANCH   4   5
ATOM      5  C   UNL     1      -3.177  10.501  13.204  0.00  0.00    +0.176 C 
ATOM      6  O   UNL     1      -1.942  10.947  12.580  0.00  0.00    -0.332 OA
ATOM      7  C   UNL     1      -2.086  12.007  11.577  0.00  0.00    +0.277 C 
ATOM      8  C   UNL     1      -2.837  13.221  12.177  0.00  0.00    +0.110 C 
ATOM      9  C   UNL     1      -4.142  12.792  12.881  0.00  0.00    +0.143 C 
ATOM     10  C   UNL     1      -3.877  11.683  13.900  0.00  0.00    +0.133 C 
BRANCH  10  11
ATOM     11  N   UNL     1      -5.139  11.223  14.500  0.00  0.00    -0.308 N 
ATOM     12  H   UNL     1      -5.795  10.736  13.905  0.00  0.00    +0.149 HD
ATOM     13  C   UNL     1      -5.475  11.407  15.780  0.00  0.00    +0.210 C 
ATOM     14  C   UNL     1      -4.466  12.176  16.654  0.00  0.00    +0.109 C 
ATOM     15  O   UNL     1      -6.533  10.998  16.259  0.00  0.00    -0.276 OA
ENDBRANCH  10  11
BRANCH   7  16
ATOM     16  C   UNL     1      -2.848  11.490  10.339  0.00  0.00    +0.414 C 
ATOM     17  O   UNL     1      -3.697  12.194   9.795  0.00  0.00    -0.240 OA
ATOM     18  O   UNL     1      -2.614  10.369   9.885  0.00  0.00    -0.240 OA
ENDBRANCH   7  16
BRANCH   7  19
ATOM     19  O   UNL     1      -0.757  12.439  11.187  0.00  0.00    -0.343 OA
ATOM     20  C   UNL     1      -0.694  13.755  10.581  0.00  0.00    +0.198 C 
ENDBRANCH   7  19
BRANCH   9  21
ATOM     21  O   UNL     1      -4.722  13.915  13.547  0.00  0.00    -0.390 OA
ATOM     22  H   UNL     1      -4.461  14.723  13.099  0.00  0.00    +0.210 HD
ENDBRANCH   9  21
ENDBRANCH   4   5
BRANCH   4  23
ATOM     23  O   UNL     1      -1.979   9.758  15.198  0.00  0.00    -0.387 OA
ATOM     24  H   UNL     1      -1.551   8.996  15.596  0.00  0.00    +0.210 HD
ENDBRANCH   4  23
ENDBRANCH   1   4
BRANCH   1  25
ATOM     25  C   UNL     1      -2.816   6.840  13.805  0.00  0.00    +0.141 C 
BRANCH  25  28
ATOM     26  C   UNL     1      -2.889   6.321  16.220  0.00  0.00    +0.401 C 
ATOM     27  O   UNL     1      -4.048   6.716  16.366  0.00  0.00    -0.226 OA
ATOM     28  N   UNL     1      -2.233   6.347  15.059  0.00  0.00    -0.279 N 
ATOM     29  H   UNL     1      -1.281   6.010  15.042  0.00  0.00    +0.152 HD
BRANCH  26  30
ATOM     30  O   UNL     1      -2.185   5.802  17.351  0.00  0.00    -0.444 OA
BRANCH  30  31
ATOM     31  C   UNL     1      -0.778   5.832  17.093  0.00  0.00    +0.292 C 
BRANCH  31  33
ATOM     32  N   UNL     1       1.065   4.183  17.244  0.00  0.00    -0.131 NA
ATOM     33  C   UNL     1      -0.113   4.681  17.734  0.00  0.00    +0.120 A 
ATOM     34  C   UNL     1      -0.468   3.971  18.859  0.00  0.00    +0.137 A 
ATOM     35  N   UNL     1       0.564   3.094  19.035  0.00  0.00    -0.247 N 
ATOM     36  N   UNL     1       1.474   3.212  18.050  0.00  0.00    -0.065 NA
BRANCH  35  37
ATOM     37  C   UNL     1       0.868   2.318  20.223  0.00  0.00    +0.180 C 
BRANCH  37  38
ATOM     38  C   UNL     1       1.269   3.166  21.404  0.00  0.00    -0.025 A 
ATOM     39  C   UNL     1       1.498   4.541  21.244  0.00  0.00    +0.005 A 
ATOM     40  C   UNL     1       1.788   5.349  22.346  0.00  0.00    +0.002 A 
ATOM     41  C   UNL     1       1.871   4.788  23.620  0.00  0.00    +0.019 A 
ATOM     42  C   UNL     1       1.680   3.415  23.792  0.00  0.00    +0.052 A 
ATOM     43  C   UNL     1       1.379   2.607  22.688  0.00  0.00    +0.024 A 
BRANCH  42  44
ATOM     44  C   UNL     1       1.782   2.833  25.100  0.00  0.00    +0.099 C 
ATOM     45  N   UNL     1       1.873   2.364  26.157  0.00  0.00    -0.191 NA
ENDBRANCH  42  44
ENDBRANCH  37  38
ENDBRANCH  35  37
ENDBRANCH  31  33
ENDBRANCH  30  31
ENDBRANCH  26  30
ENDBRANCH  25  28
ENDBRANCH   1  25
TORSDOF 16
