REMARK VINA RESULT:    -6.324      0.000      0.000
REMARK INTER + INTRA:         -15.646
REMARK INTER:                 -12.469
REMARK INTRA:                  -3.176
REMARK UNBOUND:                -2.852
REMARK  Name = lig_assembled_11.pdb
REMARK  22 active torsions:
REMARK  status: ('A' for Active; 'I' for Inactive)
REMARK    1  A    between atoms: _2  and  _9
REMARK    2  A    between atoms: _4  and  _21
REMARK    3  A    between atoms: _5  and  _9
REMARK    4  A    between atoms: _5  and  _13
REMARK    5  A    between atoms: _6  and  _7
REMARK    6  A    between atoms: _6  and  _21
REMARK    7  A    between atoms: _9  and  _10
REMARK    8  A    between atoms: _10  and  _11
REMARK    9  A    between atoms: _11  and  _12
REMARK   10  A    between atoms: _12  and  _15
REMARK   11  A    between atoms: _17  and  _37
REMARK   12  A    between atoms: _19  and  _25
REMARK   13  A    between atoms: _20  and  _24
REMARK   14  A    between atoms: _24  and  _25
REMARK   15  A    between atoms: _27  and  _28
REMARK   16  A    between atoms: _29  and  _30
REMARK   17  A    between atoms: _31  and  _33
REMARK   18  A    between atoms: _33  and  _34
REMARK   19  A    between atoms: _33  and  _35
REMARK   20  A    between atoms: _35  and  _36
REMARK   21  A    between atoms: _35  and  _37
REMARK   22  A    between atoms: _38  and  _40
REMARK                            x       y       z     vdW  Elec       q    Type
REMARK                         _______ _______ _______ _____ _____    ______ ____
ROOT
ATOM      1  C   UNL     1      17.716   3.984  22.596  0.00  0.00    +0.163 C 
ENDROOT
BRANCH   1   2
ATOM      2  O   UNL     1      17.099   5.213  23.013  0.00  0.00    -0.388 OA
ATOM      3  H   UNL     1      16.372   5.020  23.610  0.00  0.00    +0.210 HD
ENDBRANCH   1   2
BRANCH   1   4
ATOM      4  C   UNL     1      18.221   3.182  23.808  0.00  0.00    +0.175 C 
BRANCH   4   5
ATOM      5  C   UNL     1      18.283   4.038  25.082  0.00  0.00    +0.176 C 
ATOM      6  O   UNL     1      19.538   4.772  25.067  0.00  0.00    -0.332 OA
ATOM      7  C   UNL     1      19.726   5.729  26.162  0.00  0.00    +0.277 C 
ATOM      8  C   UNL     1      19.546   5.028  27.530  0.00  0.00    +0.110 C 
ATOM      9  C   UNL     1      18.239   4.209  27.583  0.00  0.00    +0.143 C 
ATOM     10  C   UNL     1      18.146   3.248  26.397  0.00  0.00    +0.133 C 
BRANCH  10  11
ATOM     11  N   UNL     1      16.858   2.537  26.410  0.00  0.00    -0.308 N 
ATOM     12  H   UNL     1      16.013   3.089  26.355  0.00  0.00    +0.149 HD
ATOM     13  C   UNL     1      16.732   1.209  26.490  0.00  0.00    +0.210 C 
ATOM     14  C   UNL     1      18.037   0.398  26.598  0.00  0.00    +0.109 C 
ATOM     15  O   UNL     1      15.641   0.639  26.484  0.00  0.00    -0.276 OA
ENDBRANCH  10  11
BRANCH   7  16
ATOM     16  C   UNL     1      18.725   6.897  26.045  0.00  0.00    +0.414 C 
ATOM     17  O   UNL     1      18.602   7.703  26.966  0.00  0.00    -0.240 OA
ATOM     18  O   UNL     1      18.041   7.034  25.029  0.00  0.00    -0.240 OA
ENDBRANCH   7  16
BRANCH   7  19
ATOM     19  O   UNL     1      21.082   6.239  26.084  0.00  0.00    -0.343 OA
ATOM     20  C   UNL     1      21.560   6.509  24.742  0.00  0.00    +0.198 C 
ENDBRANCH   7  19
BRANCH   9  21
ATOM     21  O   UNL     1      18.187   3.462  28.799  0.00  0.00    -0.390 OA
ATOM     22  H   UNL     1      17.656   3.935  29.443  0.00  0.00    +0.210 HD
ENDBRANCH   9  21
ENDBRANCH   4   5
BRANCH   4  23
ATOM     23  O   UNL     1      19.518   2.618  23.526  0.00  0.00    -0.387 OA
ATOM     24  H   UNL     1      19.542   2.310  22.617  0.00  0.00    +0.210 HD
ENDBRANCH   4  23
ENDBRANCH   1   4
BRANCH   1  25
ATOM     25  C   UNL     1      16.719   3.141  21.808  0.00  0.00    +0.141 C 
BRANCH  25  28
ATOM     26  C   UNL     1      17.933   1.318  20.663  0.00  0.00    +0.401 C 
ATOM     27  O   UNL     1      18.333   2.035  19.743  0.00  0.00    -0.226 OA
ATOM     28  N   UNL     1      17.169   1.750  21.667  0.00  0.00    -0.279 N 
ATOM     29  H   UNL     1      16.883   1.083  22.370  0.00  0.00    +0.152 HD
BRANCH  26  30
ATOM     30  O   UNL     1      18.295  -0.065  20.673  0.00  0.00    -0.444 OA
BRANCH  30  31
ATOM     31  C   UNL     1      19.056  -0.352  21.849  0.00  0.00    +0.292 C 
BRANCH  31  33
ATOM     32  N   UNL     1      18.980  -2.737  22.509  0.00  0.00    -0.131 NA
ATOM     33  C   UNL     1      18.455  -1.476  22.590  0.00  0.00    +0.120 A 
ATOM     34  C   UNL     1      17.368  -1.497  23.433  0.00  0.00    +0.138 A 
ATOM     35  N   UNL     1      17.252  -2.807  23.802  0.00  0.00    -0.238 N 
ATOM     36  N   UNL     1      18.244  -3.541  23.265  0.00  0.00    -0.065 NA
BRANCH  35  37
ATOM     37  C   UNL     1      16.346  -3.446  24.750  0.00  0.00    +0.217 C 
BRANCH  37  38
ATOM     38  C   UNL     1      16.526  -2.974  26.185  0.00  0.00    +0.330 C 
ATOM     39  O   UNL     1      17.534  -3.110  26.862  0.00  0.00    -0.249 OA
BRANCH  38  40
ATOM     40  O   UNL     1      15.434  -2.361  26.706  0.00  0.00    -0.479 OA
ATOM     41  H   UNL     1      15.319  -2.401  27.676  0.00  0.00    +0.295 HD
ENDBRANCH  38  40
ENDBRANCH  37  38
BRANCH  37  42
ATOM     42  C   UNL     1      16.370  -4.979  24.623  0.00  0.00    +0.049 C 
BRANCH  42  43
ATOM     43  C   UNL     1      15.090  -5.601  24.050  0.00  0.00    +0.123 C 
BRANCH  43  44
ATOM     44  C   UNL     1      14.992  -5.361  22.561  0.00  0.00    +0.305 C 
ATOM     45  O   UNL     1      14.733  -4.286  22.045  0.00  0.00    -0.251 OA
BRANCH  44  46
ATOM     46  O   UNL     1      15.199  -6.484  21.838  0.00  0.00    -0.481 OA
ATOM     47  H   UNL     1      14.490  -7.150  21.911  0.00  0.00    +0.295 HD
ENDBRANCH  44  46
ENDBRANCH  43  44
ENDBRANCH  42  43
ENDBRANCH  37  42
ENDBRANCH  35  37
ENDBRANCH  31  33
ENDBRANCH  30  31
ENDBRANCH  26  30
ENDBRANCH  25  28
ENDBRANCH   1  25
TORSDOF 20
