REMARK VINA RESULT:    -5.332      6.365     11.182
REMARK INTER + INTRA:         -13.005
REMARK INTER:                 -11.101
REMARK INTRA:                  -1.903
REMARK UNBOUND:                -3.154
REMARK  Name = lig_assembled_67.pdb
REMARK  18 active torsions:
REMARK  status: ('A' for Active; 'I' for Inactive)
REMARK    1  A    between atoms: _2  and  _9
REMARK    2  A    between atoms: _4  and  _19
REMARK    3  A    between atoms: _6  and  _7
REMARK    4  A    between atoms: _6  and  _19
REMARK    5  A    between atoms: _9  and  _10
REMARK    6  A    between atoms: _10  and  _11
REMARK    7  A    between atoms: _15  and  _35
REMARK    8  A    between atoms: _17  and  _23
REMARK    9  A    between atoms: _18  and  _22
REMARK   10  A    between atoms: _22  and  _23
REMARK   11  A    between atoms: _25  and  _26
REMARK   12  A    between atoms: _27  and  _28
REMARK   13  A    between atoms: _29  and  _31
REMARK   14  A    between atoms: _31  and  _32
REMARK   15  A    between atoms: _31  and  _33
REMARK   16  A    between atoms: _33  and  _34
REMARK   17  A    between atoms: _33  and  _35
REMARK   18  A    between atoms: _36  and  _38
REMARK                            x       y       z     vdW  Elec       q    Type
REMARK                         _______ _______ _______ _____ _____    ______ ____
ROOT
ATOM      1  C   UNL     1       1.433   3.648  22.002  0.00  0.00    +0.163 C 
ENDROOT
BRANCH   1   2
ATOM      2  O   UNL     1       2.146   2.402  22.066  0.00  0.00    -0.388 OA
ATOM      3  H   UNL     1       3.020   2.513  21.684  0.00  0.00    +0.210 HD
ENDBRANCH   1   2
BRANCH   1   4
ATOM      4  C   UNL     1       1.761   4.534  23.216  0.00  0.00    +0.175 C 
BRANCH   4   5
ATOM      5  C   UNL     1       1.033   4.066  24.485  0.00  0.00    +0.176 C 
ATOM      6  O   UNL     1       1.711   2.877  24.977  0.00  0.00    -0.332 OA
ATOM      7  C   UNL     1       1.216   2.347  26.251  0.00  0.00    +0.277 C 
ATOM      8  C   UNL     1      -0.308   2.086  26.173  0.00  0.00    +0.110 C 
ATOM      9  C   UNL     1      -1.068   3.312  25.625  0.00  0.00    +0.143 C 
ATOM     10  C   UNL     1      -0.469   3.782  24.299  0.00  0.00    +0.133 C 
BRANCH  10  11
ATOM     11  N   UNL     1      -1.145   5.002  23.832  0.00  0.00    -0.308 N 
ATOM     12  H   UNL     1      -0.992   5.855  24.351  0.00  0.00    +0.149 HD
ATOM     13  C   UNL     1      -1.949   5.056  22.766  0.00  0.00    +0.210 C 
ATOM     14  C   UNL     1      -2.182   3.733  22.011  0.00  0.00    +0.109 C 
ATOM     15  O   UNL     1      -2.490   6.095  22.389  0.00  0.00    -0.276 OA
ENDBRANCH  10  11
BRANCH   7  16
ATOM     16  C   UNL     1       1.513   3.327  27.404  0.00  0.00    +0.414 C 
ATOM     17  O   UNL     1       2.634   3.818  27.528  0.00  0.00    -0.240 OA
ATOM     18  O   UNL     1       0.632   3.628  28.211  0.00  0.00    -0.240 OA
ENDBRANCH   7  16
BRANCH   9  19
ATOM     19  O   UNL     1      -2.443   2.978  25.428  0.00  0.00    -0.390 OA
ATOM     20  H   UNL     1      -2.695   3.178  24.523  0.00  0.00    +0.210 HD
ENDBRANCH   9  19
BRANCH   7  21
ATOM     21  O   UNL     1       1.884   1.083  26.501  0.00  0.00    -0.343 OA
ATOM     22  C   UNL     1       1.185  -0.087  26.006  0.00  0.00    +0.198 C 
ENDBRANCH   7  21
ENDBRANCH   4   5
BRANCH   4  23
ATOM     23  O   UNL     1       1.432   5.908  22.933  0.00  0.00    -0.387 OA
ATOM     24  H   UNL     1       1.436   6.049  21.983  0.00  0.00    +0.210 HD
ENDBRANCH   4  23
ENDBRANCH   1   4
BRANCH   1  25
ATOM     25  C   UNL     1       1.793   4.390  20.719  0.00  0.00    +0.141 C 
BRANCH  25  28
ATOM     26  C   UNL     1       0.472   3.743  18.733  0.00  0.00    +0.401 C 
ATOM     27  O   UNL     1      -0.406   4.587  18.925  0.00  0.00    -0.226 OA
ATOM     28  N   UNL     1       1.533   3.576  19.525  0.00  0.00    -0.279 N 
ATOM     29  H   UNL     1       2.194   2.850  19.289  0.00  0.00    +0.152 HD
BRANCH  26  30
ATOM     30  O   UNL     1       0.365   2.875  17.601  0.00  0.00    -0.444 OA
BRANCH  30  31
ATOM     31  C   UNL     1       0.919   1.597  17.925  0.00  0.00    +0.292 C 
BRANCH  31  33
ATOM     32  N   UNL     1       3.368   1.593  17.574  0.00  0.00    -0.131 NA
ATOM     33  C   UNL     1       2.110   1.327  17.099  0.00  0.00    +0.120 A 
ATOM     34  C   UNL     1       2.211   0.813  15.826  0.00  0.00    +0.137 A 
ATOM     35  N   UNL     1       3.550   0.794  15.584  0.00  0.00    -0.251 N 
ATOM     36  N   UNL     1       4.243   1.265  16.634  0.00  0.00    -0.065 NA
BRANCH  35  37
ATOM     37  C   UNL     1       4.239   0.337  14.398  0.00  0.00    +0.150 C 
BRANCH  37  38
ATOM     38  C   UNL     1       5.739   0.131  14.603  0.00  0.00    +0.084 C 
BRANCH  38  39
ATOM     39  C   UNL     1       6.312  -0.932  13.677  0.00  0.00    +0.252 C 
ATOM     40  O   UNL     1       5.721  -0.826  12.377  0.00  0.00    -0.349 OA
ATOM     41  C   UNL     1       6.747  -1.309  11.513  0.00  0.00    +0.191 C 
ATOM     42  C   UNL     1       8.011  -0.806  12.161  0.00  0.00    +0.191 C 
ATOM     43  O   UNL     1       7.731  -0.781  13.562  0.00  0.00    -0.349 OA
ENDBRANCH  38  39
ENDBRANCH  37  38
ENDBRANCH  35  37
ENDBRANCH  31  33
ENDBRANCH  30  31
ENDBRANCH  26  30
ENDBRANCH  25  28
ENDBRANCH   1  25
TORSDOF 16
