REMARK VINA RESULT:    -6.324      9.338     13.532
REMARK INTER + INTRA:         -13.374
REMARK INTER:                 -11.159
REMARK INTRA:                  -2.215
REMARK UNBOUND:                -1.873
REMARK  Name = lig_assembled_60.pdb
REMARK  18 active torsions:
REMARK  status: ('A' for Active; 'I' for Inactive)
REMARK    1  A    between atoms: _2  and  _10
REMARK    2  A    between atoms: _3  and  _41
REMARK    3  A    between atoms: _5  and  _21
REMARK    4  A    between atoms: _7  and  _8
REMARK    5  A    between atoms: _7  and  _21
REMARK    6  A    between atoms: _13  and  _41
REMARK    7  A    between atoms: _17  and  _37
REMARK    8  A    between atoms: _19  and  _25
REMARK    9  A    between atoms: _20  and  _24
REMARK   10  A    between atoms: _24  and  _25
REMARK   11  A    between atoms: _27  and  _28
REMARK   12  A    between atoms: _29  and  _30
REMARK   13  A    between atoms: _31  and  _33
REMARK   14  A    between atoms: _33  and  _34
REMARK   15  A    between atoms: _33  and  _35
REMARK   16  A    between atoms: _35  and  _36
REMARK   17  A    between atoms: _35  and  _37
REMARK   18  A    between atoms: _38  and  _40
REMARK                            x       y       z     vdW  Elec       q    Type
REMARK                         _______ _______ _______ _____ _____    ______ ____
ROOT
ATOM      1  C   UNL     1      10.004   4.593  39.303  0.00  0.00    +0.141 C 
ENDROOT
BRANCH   1   4
ATOM      2  C   UNL     1      12.363   5.308  39.125  0.00  0.00    +0.401 C 
ATOM      3  O   UNL     1      12.432   5.695  40.294  0.00  0.00    -0.226 OA
ATOM      4  N   UNL     1      11.265   4.785  38.577  0.00  0.00    -0.279 N 
ATOM      5  H   UNL     1      11.304   4.506  37.607  0.00  0.00    +0.152 HD
BRANCH   2   6
ATOM      6  O   UNL     1      13.516   5.421  38.287  0.00  0.00    -0.444 OA
BRANCH   6   7
ATOM      7  C   UNL     1      13.354   4.587  37.137  0.00  0.00    +0.292 C 
BRANCH   7   9
ATOM      8  N   UNL     1      14.143   4.491  34.792  0.00  0.00    -0.131 NA
ATOM      9  C   UNL     1      14.126   5.125  36.001  0.00  0.00    +0.121 A 
ATOM     10  C   UNL     1      14.895   6.262  35.923  0.00  0.00    +0.143 A 
ATOM     11  N   UNL     1      15.340   6.303  34.620  0.00  0.00    -0.220 N 
ATOM     12  N   UNL     1      14.890   5.207  33.962  0.00  0.00    -0.060 NA
BRANCH  11  13
ATOM     13  C   UNL     1      16.105   7.310  33.977  0.00  0.00    +0.067 A 
ATOM     14  C   UNL     1      16.243   8.581  34.555  0.00  0.00    +0.030 A 
ATOM     15  C   UNL     1      16.939   9.586  33.880  0.00  0.00    +0.030 A 
ATOM     16  C   UNL     1      17.512   9.317  32.635  0.00  0.00    +0.105 A 
ATOM     17  C   UNL     1      17.395   8.050  32.057  0.00  0.00    +0.030 A 
ATOM     18  C   UNL     1      16.698   7.044  32.732  0.00  0.00    +0.030 A 
BRANCH  16  19
ATOM     19  S   UNL     1      18.323  10.620  31.756  0.00  0.00    +0.056 S 
ATOM     20  O   UNL     1      18.251  11.836  32.531  0.00  0.00    -0.153 OA
ATOM     21  O   UNL     1      19.564  10.119  31.210  0.00  0.00    -0.153 OA
BRANCH  19  22
ATOM     22  N   UNL     1      17.296  10.840  30.449  0.00  0.00    -0.204 NA
ATOM     23  H   UNL     1      17.648  10.326  29.642  0.00  0.00    +0.144 HD
ATOM     24  H   UNL     1      17.165  11.838  30.277  0.00  0.00    +0.144 HD
ENDBRANCH  19  22
ENDBRANCH  16  19
ENDBRANCH  11  13
ENDBRANCH   7   9
ENDBRANCH   6   7
ENDBRANCH   2   6
ENDBRANCH   1   4
BRANCH   1  25
ATOM     25  C   UNL     1       8.794   4.948  38.445  0.00  0.00    +0.163 C 
BRANCH  25  26
ATOM     26  O   UNL     1       8.925   6.287  37.941  0.00  0.00    -0.388 OA
ATOM     27  H   UNL     1       9.853   6.488  37.802  0.00  0.00    +0.210 HD
ENDBRANCH  25  26
BRANCH  25  28
ATOM     28  C   UNL     1       8.666   3.936  37.293  0.00  0.00    +0.175 C 
BRANCH  28  29
ATOM     29  C   UNL     1       8.154   4.592  36.003  0.00  0.00    +0.176 C 
ATOM     30  O   UNL     1       6.798   5.057  36.246  0.00  0.00    -0.332 OA
ATOM     31  C   UNL     1       6.180   5.809  35.149  0.00  0.00    +0.277 C 
ATOM     32  C   UNL     1       6.224   4.988  33.837  0.00  0.00    +0.110 C 
ATOM     33  C   UNL     1       7.641   4.445  33.553  0.00  0.00    +0.143 C 
ATOM     34  C   UNL     1       8.188   3.683  34.760  0.00  0.00    +0.133 C 
BRANCH  34  35
ATOM     35  N   UNL     1       9.571   3.246  34.509  0.00  0.00    -0.308 N 
ATOM     36  H   UNL     1      10.254   3.953  34.277  0.00  0.00    +0.149 HD
ATOM     37  C   UNL     1       9.981   1.976  34.568  0.00  0.00    +0.210 C 
ATOM     38  C   UNL     1       8.910   0.920  34.899  0.00  0.00    +0.109 C 
ATOM     39  O   UNL     1      11.149   1.641  34.368  0.00  0.00    -0.276 OA
ENDBRANCH  34  35
BRANCH  31  40
ATOM     40  C   UNL     1       6.898   7.158  34.938  0.00  0.00    +0.414 C 
ATOM     41  O   UNL     1       7.051   7.608  33.803  0.00  0.00    -0.240 OA
ATOM     42  O   UNL     1       7.324   7.796  35.902  0.00  0.00    -0.240 OA
ENDBRANCH  31  40
BRANCH  33  43
ATOM     43  O   UNL     1       7.604   3.574  32.423  0.00  0.00    -0.390 OA
ATOM     44  H   UNL     1       8.440   3.622  31.953  0.00  0.00    +0.210 HD
ENDBRANCH  33  43
BRANCH  31  45
ATOM     45  O   UNL     1       4.790   6.045  35.494  0.00  0.00    -0.343 OA
ATOM     46  C   UNL     1       4.472   5.882  36.900  0.00  0.00    +0.198 C 
ENDBRANCH  31  45
ENDBRANCH  28  29
BRANCH  28  47
ATOM     47  O   UNL     1       7.798   2.852  37.678  0.00  0.00    -0.387 OA
ATOM     48  H   UNL     1       7.007   2.867  37.135  0.00  0.00    +0.210 HD
ENDBRANCH  28  47
ENDBRANCH  25  28
ENDBRANCH   1  25
TORSDOF 16
