REMARK VINA RESULT:    -6.405      2.507      4.428
REMARK INTER + INTRA:         -14.963
REMARK INTER:                 -12.643
REMARK INTRA:                  -2.320
REMARK UNBOUND:                -2.754
REMARK  Name = lig_assembled_12.pdb
REMARK  19 active torsions:
REMARK  status: ('A' for Active; 'I' for Inactive)
REMARK    1  A    between atoms: _2  and  _9
REMARK    2  A    between atoms: _4  and  _21
REMARK    3  A    between atoms: _6  and  _7
REMARK    4  A    between atoms: _6  and  _21
REMARK    5  A    between atoms: _9  and  _16
REMARK    6  A    between atoms: _10  and  _11
REMARK    7  A    between atoms: _10  and  _16
REMARK    8  A    between atoms: _17  and  _37
REMARK    9  A    between atoms: _19  and  _25
REMARK   10  A    between atoms: _20  and  _24
REMARK   11  A    between atoms: _24  and  _25
REMARK   12  A    between atoms: _27  and  _28
REMARK   13  A    between atoms: _29  and  _30
REMARK   14  A    between atoms: _31  and  _33
REMARK   15  A    between atoms: _33  and  _34
REMARK   16  A    between atoms: _33  and  _35
REMARK   17  A    between atoms: _35  and  _36
REMARK   18  A    between atoms: _35  and  _37
REMARK   19  A    between atoms: _38  and  _40
REMARK                            x       y       z     vdW  Elec       q    Type
REMARK                         _______ _______ _______ _____ _____    ______ ____
ROOT
ATOM      1  C   UNL     1       7.227   3.795  33.448  0.00  0.00    +0.163 C 
ENDROOT
BRANCH   1   2
ATOM      2  O   UNL     1       7.722   5.058  32.974  0.00  0.00    -0.388 OA
ATOM      3  H   UNL     1       8.031   4.962  32.070  0.00  0.00    +0.210 HD
ENDBRANCH   1   2
BRANCH   1   4
ATOM      4  C   UNL     1       6.010   3.991  34.369  0.00  0.00    +0.175 C 
BRANCH   4   5
ATOM      5  C   UNL     1       6.209   5.158  35.348  0.00  0.00    +0.176 C 
ATOM      6  O   UNL     1       7.576   5.101  35.840  0.00  0.00    -0.332 OA
ATOM      7  C   UNL     1       7.982   6.206  36.713  0.00  0.00    +0.277 C 
ATOM      8  C   UNL     1       7.003   6.343  37.904  0.00  0.00    +0.110 C 
ATOM      9  C   UNL     1       5.534   6.375  37.433  0.00  0.00    +0.143 C 
ATOM     10  C   UNL     1       5.221   5.182  36.529  0.00  0.00    +0.133 C 
BRANCH  10  11
ATOM     11  N   UNL     1       3.844   5.271  36.017  0.00  0.00    -0.308 N 
ATOM     12  H   UNL     1       3.632   6.010  35.362  0.00  0.00    +0.149 HD
ATOM     13  C   UNL     1       2.858   4.439  36.361  0.00  0.00    +0.210 C 
ATOM     14  C   UNL     1       3.208   3.339  37.382  0.00  0.00    +0.109 C 
ATOM     15  O   UNL     1       1.718   4.528  35.905  0.00  0.00    -0.276 OA
ENDBRANCH  10  11
BRANCH   7  16
ATOM     16  C   UNL     1       8.028   7.534  35.928  0.00  0.00    +0.414 C 
ATOM     17  O   UNL     1       7.872   7.539  34.708  0.00  0.00    -0.240 OA
ATOM     18  O   UNL     1       8.221   8.599  36.515  0.00  0.00    -0.240 OA
ENDBRANCH   7  16
BRANCH   9  19
ATOM     19  O   UNL     1       4.664   6.349  38.565  0.00  0.00    -0.390 OA
ATOM     20  H   UNL     1       3.913   6.925  38.406  0.00  0.00    +0.210 HD
ENDBRANCH   9  19
BRANCH   7  21
ATOM     21  O   UNL     1       9.301   5.903  37.237  0.00  0.00    -0.343 OA
ATOM     22  C   UNL     1       9.665   4.500  37.203  0.00  0.00    +0.198 C 
ENDBRANCH   7  21
ENDBRANCH   4   5
BRANCH   4  23
ATOM     23  O   UNL     1       5.734   2.776  35.093  0.00  0.00    -0.387 OA
ATOM     24  H   UNL     1       6.552   2.293  35.232  0.00  0.00    +0.210 HD
ENDBRANCH   4  23
ENDBRANCH   1   4
BRANCH   1  25
ATOM     25  C   UNL     1       6.836   2.911  32.268  0.00  0.00    +0.141 C 
BRANCH  25  28
ATOM     26  C   UNL     1       4.807   1.587  31.782  0.00  0.00    +0.401 C 
ATOM     27  O   UNL     1       5.432   0.586  31.426  0.00  0.00    -0.226 OA
ATOM     28  N   UNL     1       5.383   2.721  32.185  0.00  0.00    -0.279 N 
ATOM     29  H   UNL     1       4.785   3.491  32.449  0.00  0.00    +0.152 HD
BRANCH  26  30
ATOM     30  O   UNL     1       3.378   1.556  31.765  0.00  0.00    -0.444 OA
BRANCH  30  31
ATOM     31  C   UNL     1       2.874   2.875  31.536  0.00  0.00    +0.292 C 
BRANCH  31  33
ATOM     32  N   UNL     1       1.321   3.975  29.946  0.00  0.00    -0.131 NA
ATOM     33  C   UNL     1       2.173   2.941  30.240  0.00  0.00    +0.120 A 
ATOM     34  C   UNL     1       2.217   2.077  29.172  0.00  0.00    +0.139 A 
ATOM     35  N   UNL     1       1.350   2.621  28.270  0.00  0.00    -0.226 N 
ATOM     36  N   UNL     1       0.830   3.775  28.730  0.00  0.00    -0.063 NA
BRANCH  35  37
ATOM     37  C   UNL     1       1.000   2.141  26.945  0.00  0.00    +0.305 C 
BRANCH  37  38
ATOM     38  O   UNL     1       1.746   2.868  25.971  0.00  0.00    -0.353 OA
BRANCH  38  39
ATOM     39  C   UNL     1       1.922   2.119  24.776  0.00  0.00    +0.197 C 
BRANCH  39  40
ATOM     40  C   UNL     1       1.834   3.081  23.622  0.00  0.00    -0.022 A 
ATOM     41  C   UNL     1       1.853   2.614  22.301  0.00  0.00    +0.006 A 
ATOM     42  C   UNL     1       1.811   3.509  21.232  0.00  0.00    +0.000 A 
ATOM     43  C   UNL     1       1.758   4.881  21.472  0.00  0.00    +0.000 A 
ATOM     44  C   UNL     1       1.750   5.359  22.781  0.00  0.00    +0.000 A 
ATOM     45  C   UNL     1       1.792   4.464  23.852  0.00  0.00    +0.006 A 
ENDBRANCH  39  40
ENDBRANCH  38  39
ENDBRANCH  37  38
ENDBRANCH  35  37
ENDBRANCH  31  33
ENDBRANCH  30  31
ENDBRANCH  26  30
ENDBRANCH  25  28
ENDBRANCH   1  25
TORSDOF 17
