REMARK VINA RESULT:    -6.224      3.185      5.681
REMARK INTER + INTRA:         -14.507
REMARK INTER:                 -12.376
REMARK INTRA:                  -2.131
REMARK UNBOUND:                -2.643
REMARK  Name = lig_assembled_21.pdb
REMARK  20 active torsions:
REMARK  status: ('A' for Active; 'I' for Inactive)
REMARK    1  A    between atoms: _2  and  _9
REMARK    2  A    between atoms: _4  and  _23
REMARK    3  A    between atoms: _6  and  _7
REMARK    4  A    between atoms: _6  and  _23
REMARK    5  A    between atoms: _9  and  _10
REMARK    6  A    between atoms: _11  and  _18
REMARK    7  A    between atoms: _12  and  _13
REMARK    8  A    between atoms: _12  and  _18
REMARK    9  A    between atoms: _19  and  _39
REMARK   10  A    between atoms: _21  and  _27
REMARK   11  A    between atoms: _22  and  _26
REMARK   12  A    between atoms: _26  and  _27
REMARK   13  A    between atoms: _29  and  _30
REMARK   14  A    between atoms: _31  and  _32
REMARK   15  A    between atoms: _33  and  _35
REMARK   16  A    between atoms: _35  and  _36
REMARK   17  A    between atoms: _35  and  _37
REMARK   18  A    between atoms: _37  and  _38
REMARK   19  A    between atoms: _37  and  _39
REMARK   20  A    between atoms: _40  and  _42
REMARK                            x       y       z     vdW  Elec       q    Type
REMARK                         _______ _______ _______ _____ _____    ______ ____
ROOT
ATOM      1  C   UNL     1       7.486   2.535  34.422  0.00  0.00    +0.163 C 
ENDROOT
BRANCH   1   2
ATOM      2  O   UNL     1       8.366   2.205  35.509  0.00  0.00    -0.388 OA
ATOM      3  H   UNL     1       8.698   1.312  35.394  0.00  0.00    +0.210 HD
ENDBRANCH   1   2
BRANCH   1   4
ATOM      4  C   UNL     1       7.831   3.914  33.834  0.00  0.00    +0.175 C 
BRANCH   4   5
ATOM      5  C   UNL     1       7.237   5.061  34.665  0.00  0.00    +0.176 C 
ATOM      6  O   UNL     1       7.985   5.146  35.909  0.00  0.00    -0.332 OA
ATOM      7  C   UNL     1       7.626   6.260  36.791  0.00  0.00    +0.277 C 
ATOM      8  C   UNL     1       6.107   6.242  37.094  0.00  0.00    +0.110 C 
ATOM      9  C   UNL     1       5.270   6.121  35.802  0.00  0.00    +0.143 C 
ATOM     10  C   UNL     1       5.731   4.931  34.960  0.00  0.00    +0.133 C 
BRANCH  10  11
ATOM     11  N   UNL     1       4.985   4.878  33.692  0.00  0.00    -0.308 N 
ATOM     12  H   UNL     1       5.205   5.567  32.987  0.00  0.00    +0.149 HD
ATOM     13  C   UNL     1       4.038   3.979  33.414  0.00  0.00    +0.210 C 
ATOM     14  C   UNL     1       3.709   2.958  34.520  0.00  0.00    +0.109 C 
ATOM     15  O   UNL     1       3.440   3.949  32.338  0.00  0.00    -0.276 OA
ENDBRANCH  10  11
BRANCH   7  16
ATOM     16  C   UNL     1       8.007   7.610  36.149  0.00  0.00    +0.414 C 
ATOM     17  O   UNL     1       8.186   8.603  36.854  0.00  0.00    -0.240 OA
ATOM     18  O   UNL     1       8.137   7.707  34.928  0.00  0.00    -0.240 OA
ENDBRANCH   7  16
BRANCH   9  19
ATOM     19  O   UNL     1       3.892   5.956  36.136  0.00  0.00    -0.390 OA
ATOM     20  H   UNL     1       3.407   5.663  35.360  0.00  0.00    +0.210 HD
ENDBRANCH   9  19
BRANCH   7  21
ATOM     21  O   UNL     1       8.343   6.093  38.041  0.00  0.00    -0.343 OA
ATOM     22  C   UNL     1       7.506   6.023  39.223  0.00  0.00    +0.198 C 
ENDBRANCH   7  21
ENDBRANCH   4   5
BRANCH   4  23
ATOM     23  O   UNL     1       7.373   4.001  32.470  0.00  0.00    -0.387 OA
ATOM     24  H   UNL     1       8.065   3.693  31.880  0.00  0.00    +0.210 HD
ENDBRANCH   4  23
ENDBRANCH   1   4
BRANCH   1  25
ATOM     25  C   UNL     1       7.587   1.475  33.330  0.00  0.00    +0.141 C 
BRANCH  25  28
ATOM     26  C   UNL     1       6.100  -0.091  32.129  0.00  0.00    +0.401 C 
ATOM     27  O   UNL     1       7.019  -0.650  31.527  0.00  0.00    -0.226 OA
ATOM     28  N   UNL     1       6.274   0.916  32.986  0.00  0.00    -0.279 N 
ATOM     29  H   UNL     1       5.456   1.317  33.425  0.00  0.00    +0.152 HD
BRANCH  26  30
ATOM     30  O   UNL     1       4.756  -0.528  31.908  0.00  0.00    -0.444 OA
BRANCH  30  31
ATOM     31  C   UNL     1       3.924   0.602  31.636  0.00  0.00    +0.292 C 
BRANCH  31  33
ATOM     32  N   UNL     1       3.682  -0.541  29.458  0.00  0.00    -0.131 NA
ATOM     33  C   UNL     1       3.343   0.494  30.286  0.00  0.00    +0.120 A 
ATOM     34  C   UNL     1       2.417   1.292  29.651  0.00  0.00    +0.137 A 
ATOM     35  N   UNL     1       2.165   0.638  28.475  0.00  0.00    -0.247 N 
ATOM     36  N   UNL     1       2.958  -0.442  28.354  0.00  0.00    -0.065 NA
BRANCH  35  37
ATOM     37  C   UNL     1       1.127   0.980  27.509  0.00  0.00    +0.184 C 
BRANCH  37  38
ATOM     38  C   UNL     1       1.572   1.830  26.342  0.00  0.00    +0.016 A 
ATOM     39  C   UNL     1       1.418   3.228  26.339  0.00  0.00    +0.137 A 
ATOM     40  C   UNL     1       1.839   3.995  25.253  0.00  0.00    +0.047 A 
ATOM     41  C   UNL     1       2.438   3.373  24.157  0.00  0.00    +0.004 A 
ATOM     42  C   UNL     1       2.586   1.988  24.135  0.00  0.00    +0.001 A 
ATOM     43  C   UNL     1       2.159   1.221  25.220  0.00  0.00    +0.009 A 
BRANCH  39  44
ATOM     44  O   UNL     1       0.743   3.798  27.445  0.00  0.00    -0.426 OA
BRANCH  44  45
ATOM     45  C   UNL     1      -0.506   4.410  27.329  0.00  0.00    +0.309 C 
ATOM     46  O   UNL     1      -0.863   5.208  26.472  0.00  0.00    -0.251 OA
ATOM     47  C   UNL     1      -1.411   3.874  28.399  0.00  0.00    +0.136 C 
ENDBRANCH  44  45
ENDBRANCH  39  44
ENDBRANCH  37  38
ENDBRANCH  35  37
ENDBRANCH  31  33
ENDBRANCH  30  31
ENDBRANCH  26  30
ENDBRANCH  25  28
ENDBRANCH   1  25
TORSDOF 17
