REMARK VINA RESULT:    -6.106      5.092      6.054
REMARK INTER + INTRA:         -15.265
REMARK INTER:                 -13.284
REMARK INTRA:                  -1.981
REMARK UNBOUND:                -3.269
REMARK  Name = lig_assembled_84.pdb
REMARK  21 active torsions:
REMARK  status: ('A' for Active; 'I' for Inactive)
REMARK    1  A    between atoms: _2  and  _11
REMARK    2  A    between atoms: _3  and  _14
REMARK    3  A    between atoms: _4  and  _17
REMARK    4  A    between atoms: _6  and  _28
REMARK    5  A    between atoms: _8  and  _9
REMARK    6  A    between atoms: _8  and  _28
REMARK    7  A    between atoms: _11  and  _12
REMARK    8  A    between atoms: _12  and  _13
REMARK    9  A    between atoms: _12  and  _14
REMARK   10  A    between atoms: _24  and  _44
REMARK   11  A    between atoms: _26  and  _32
REMARK   12  A    between atoms: _27  and  _31
REMARK   13  A    between atoms: _31  and  _32
REMARK   14  A    between atoms: _34  and  _35
REMARK   15  A    between atoms: _36  and  _37
REMARK   16  A    between atoms: _38  and  _40
REMARK   17  A    between atoms: _40  and  _41
REMARK   18  A    between atoms: _40  and  _42
REMARK   19  A    between atoms: _42  and  _43
REMARK   20  A    between atoms: _42  and  _44
REMARK   21  A    between atoms: _45  and  _47
REMARK                            x       y       z     vdW  Elec       q    Type
REMARK                         _______ _______ _______ _____ _____    ______ ____
ROOT
ATOM      1  C   UNL     1       5.976   0.528  32.423  0.00  0.00    +0.401 C 
ATOM      2  O   UNL     1       5.810   1.532  31.726  0.00  0.00    -0.226 OA
ATOM      3  N   UNL     1       6.973   0.384  33.297  0.00  0.00    -0.279 N 
ATOM      4  H   UNL     1       7.020  -0.474  33.830  0.00  0.00    +0.152 HD
ENDROOT
BRANCH   1   5
ATOM      5  O   UNL     1       5.054  -0.559  32.306  0.00  0.00    -0.444 OA
BRANCH   5   6
ATOM      6  C   UNL     1       4.023  -0.213  31.377  0.00  0.00    +0.292 C 
BRANCH   6   8
ATOM      7  N   UNL     1       3.522  -0.456  28.962  0.00  0.00    -0.131 NA
ATOM      8  C   UNL     1       4.343  -0.716  30.028  0.00  0.00    +0.120 A 
ATOM      9  C   UNL     1       5.393  -1.500  29.606  0.00  0.00    +0.137 A 
ATOM     10  N   UNL     1       5.118  -1.737  28.292  0.00  0.00    -0.251 N 
ATOM     11  N   UNL     1       4.007  -1.089  27.902  0.00  0.00    -0.065 NA
BRANCH  10  12
ATOM     12  C   UNL     1       5.785  -2.665  27.400  0.00  0.00    +0.149 C 
BRANCH  12  13
ATOM     13  C   UNL     1       7.269  -2.348  27.148  0.00  0.00    +0.021 C 
ATOM     14  C   UNL     1       8.181  -3.386  27.816  0.00  0.00    +0.010 C 
BRANCH  13  15
ATOM     15  C   UNL     1       7.585  -2.308  25.633  0.00  0.00    +0.089 C 
BRANCH  15  16
ATOM     16  N   UNL     1       6.930  -3.342  24.819  0.00  0.00    -0.299 NA
ATOM     17  C   UNL     1       7.955  -4.179  24.140  0.00  0.00    +0.103 C 
ATOM     18  C   UNL     1       7.312  -5.332  23.342  0.00  0.00    +0.120 C 
ATOM     19  N   UNL     1       6.381  -4.786  22.348  0.00  0.00    -0.327 N 
ATOM     20  C   UNL     1       5.355  -3.894  22.907  0.00  0.00    +0.120 C 
ATOM     21  C   UNL     1       6.022  -2.792  23.781  0.00  0.00    +0.103 C 
BRANCH  19  22
ATOM     22  C   UNL     1       6.432  -5.127  21.016  0.00  0.00    +0.030 A 
ATOM     23  C   UNL     1       5.334  -4.914  20.163  0.00  0.00    +0.024 A 
ATOM     24  C   UNL     1       5.359  -5.277  18.812  0.00  0.00    +0.022 A 
ATOM     25  C   UNL     1       6.497  -5.860  18.281  0.00  0.00    +0.041 A 
ATOM     26 CL   UNL     1       6.534  -6.315  16.622  0.00  0.00    -0.084 Cl
ATOM     27  C   UNL     1       7.606  -6.085  19.089  0.00  0.00    +0.022 A 
ATOM     28  C   UNL     1       7.566  -5.722  20.442  0.00  0.00    +0.024 A 
ENDBRANCH  19  22
ENDBRANCH  15  16
ENDBRANCH  13  15
ENDBRANCH  12  13
ENDBRANCH  10  12
ENDBRANCH   6   8
ENDBRANCH   5   6
ENDBRANCH   1   5
BRANCH   3  29
ATOM     29  C   UNL     1       8.006   1.401  33.529  0.00  0.00    +0.141 C 
BRANCH  29  30
ATOM     30  C   UNL     1       7.508   2.520  34.438  0.00  0.00    +0.163 C 
BRANCH  30  31
ATOM     31  O   UNL     1       8.117   2.407  35.735  0.00  0.00    -0.388 OA
ATOM     32  H   UNL     1       7.877   3.168  36.269  0.00  0.00    +0.210 HD
ENDBRANCH  30  31
BRANCH  30  33
ATOM     33  C   UNL     1       7.825   3.882  33.797  0.00  0.00    +0.175 C 
BRANCH  33  34
ATOM     34  C   UNL     1       7.198   5.047  34.576  0.00  0.00    +0.176 C 
ATOM     35  O   UNL     1       7.926   5.194  35.826  0.00  0.00    -0.332 OA
ATOM     36  C   UNL     1       7.532   6.333  36.660  0.00  0.00    +0.277 C 
ATOM     37  C   UNL     1       6.010   6.296  36.942  0.00  0.00    +0.110 C 
ATOM     38  C   UNL     1       5.194   6.109  35.646  0.00  0.00    +0.143 C 
ATOM     39  C   UNL     1       5.690   4.898  34.855  0.00  0.00    +0.133 C 
BRANCH  39  40
ATOM     40  N   UNL     1       4.964   4.782  33.580  0.00  0.00    -0.308 N 
ATOM     41  H   UNL     1       5.158   5.466  32.863  0.00  0.00    +0.149 HD
ATOM     42  C   UNL     1       4.065   3.832  33.310  0.00  0.00    +0.210 C 
ATOM     43  C   UNL     1       3.772   2.820  34.434  0.00  0.00    +0.109 C 
ATOM     44  O   UNL     1       3.482   3.751  32.228  0.00  0.00    -0.276 OA
ENDBRANCH  39  40
BRANCH  36  45
ATOM     45  C   UNL     1       7.896   7.666  35.973  0.00  0.00    +0.414 C 
ATOM     46  O   UNL     1       8.185   8.653  36.648  0.00  0.00    -0.240 OA
ATOM     47  O   UNL     1       7.901   7.753  34.744  0.00  0.00    -0.240 OA
ENDBRANCH  36  45
BRANCH  36  48
ATOM     48  O   UNL     1       8.234   6.228  37.925  0.00  0.00    -0.343 OA
ATOM     49  C   UNL     1       7.382   6.186  39.097  0.00  0.00    +0.198 C 
ENDBRANCH  36  48
BRANCH  38  50
ATOM     50  O   UNL     1       3.814   5.929  35.966  0.00  0.00    -0.390 OA
ATOM     51  H   UNL     1       3.281   6.071  35.180  0.00  0.00    +0.210 HD
ENDBRANCH  38  50
ENDBRANCH  33  34
BRANCH  33  52
ATOM     52  O   UNL     1       7.378   3.902  32.427  0.00  0.00    -0.387 OA
ATOM     53  H   UNL     1       6.511   3.495  32.367  0.00  0.00    +0.210 HD
ENDBRANCH  33  52
ENDBRANCH  30  33
ENDBRANCH  29  30
ENDBRANCH   3  29
TORSDOF 18
