REMARK VINA RESULT:    -5.355      2.836     11.790
REMARK INTER + INTRA:         -12.302
REMARK INTER:                 -10.619
REMARK INTRA:                  -1.683
REMARK UNBOUND:                -2.094
REMARK  Name = lig_assembled_19.pdb
REMARK  20 active torsions:
REMARK  status: ('A' for Active; 'I' for Inactive)
REMARK    1  A    between atoms: _2  and  _9
REMARK    2  A    between atoms: _4  and  _18
REMARK    3  A    between atoms: _5  and  _11
REMARK    4  A    between atoms: _6  and  _7
REMARK    5  A    between atoms: _6  and  _18
REMARK    6  A    between atoms: _9  and  _10
REMARK    7  A    between atoms: _10  and  _13
REMARK    8  A    between atoms: _11  and  _13
REMARK    9  A    between atoms: _14  and  _34
REMARK   10  A    between atoms: _16  and  _22
REMARK   11  A    between atoms: _17  and  _21
REMARK   12  A    between atoms: _21  and  _22
REMARK   13  A    between atoms: _24  and  _25
REMARK   14  A    between atoms: _26  and  _27
REMARK   15  A    between atoms: _28  and  _30
REMARK   16  A    between atoms: _30  and  _31
REMARK   17  A    between atoms: _30  and  _32
REMARK   18  A    between atoms: _32  and  _33
REMARK   19  A    between atoms: _32  and  _34
REMARK   20  A    between atoms: _35  and  _37
REMARK                            x       y       z     vdW  Elec       q    Type
REMARK                         _______ _______ _______ _____ _____    ______ ____
ROOT
ATOM      1  C   UNL     1       0.488   2.564  27.262  0.00  0.00    +0.163 C 
ENDROOT
BRANCH   1   2
ATOM      2  O   UNL     1      -0.502   3.548  26.924  0.00  0.00    -0.388 OA
ATOM      3  H   UNL     1      -1.119   3.646  27.654  0.00  0.00    +0.210 HD
ENDBRANCH   1   2
BRANCH   1   4
ATOM      4  C   UNL     1       0.727   1.599  26.089  0.00  0.00    +0.175 C 
BRANCH   4   5
ATOM      5  C   UNL     1       1.030   2.344  24.780  0.00  0.00    +0.176 C 
ATOM      6  O   UNL     1      -0.212   2.931  24.303  0.00  0.00    -0.332 OA
ATOM      7  C   UNL     1      -0.097   3.775  23.110  0.00  0.00    +0.277 C 
ATOM      8  C   UNL     1       0.591   2.997  21.961  0.00  0.00    +0.110 C 
ATOM      9  C   UNL     1       1.900   2.329  22.429  0.00  0.00    +0.143 C 
ATOM     10  C   UNL     1       1.666   1.477  23.677  0.00  0.00    +0.133 C 
BRANCH  10  11
ATOM     11  N   UNL     1       2.936   0.916  24.164  0.00  0.00    -0.308 N 
ATOM     12  H   UNL     1       3.668   1.562  24.424  0.00  0.00    +0.149 HD
ATOM     13  C   UNL     1       3.184  -0.391  24.285  0.00  0.00    +0.210 C 
ATOM     14  C   UNL     1       2.057  -1.350  23.857  0.00  0.00    +0.109 C 
ATOM     15  O   UNL     1       4.252  -0.832  24.710  0.00  0.00    -0.276 OA
ENDBRANCH  10  11
BRANCH   7  16
ATOM     16  C   UNL     1       0.709   5.054  23.421  0.00  0.00    +0.414 C 
ATOM     17  O   UNL     1       1.350   5.614  22.533  0.00  0.00    -0.240 OA
ATOM     18  O   UNL     1       0.717   5.525  24.559  0.00  0.00    -0.240 OA
ENDBRANCH   7  16
BRANCH   9  19
ATOM     19  O   UNL     1       2.419   1.503  21.386  0.00  0.00    -0.390 OA
ATOM     20  H   UNL     1       1.707   1.245  20.797  0.00  0.00    +0.210 HD
ENDBRANCH   9  19
BRANCH   7  21
ATOM     21  O   UNL     1      -1.436   4.133  22.682  0.00  0.00    -0.343 OA
ATOM     22  C   UNL     1      -1.785   3.708  21.341  0.00  0.00    +0.198 C 
ENDBRANCH   7  21
ENDBRANCH   4   5
BRANCH   4  23
ATOM     23  O   UNL     1      -0.413   0.734  25.916  0.00  0.00    -0.387 OA
ATOM     24  H   UNL     1      -0.955   1.059  25.192  0.00  0.00    +0.210 HD
ENDBRANCH   4  23
ENDBRANCH   1   4
BRANCH   1  25
ATOM     25  C   UNL     1       1.799   3.249  27.634  0.00  0.00    +0.141 C 
BRANCH  25  28
ATOM     26  C   UNL     1       1.365   3.650  30.033  0.00  0.00    +0.401 C 
ATOM     27  O   UNL     1       0.358   4.333  29.833  0.00  0.00    -0.226 OA
ATOM     28  N   UNL     1       2.103   3.109  29.064  0.00  0.00    -0.279 N 
ATOM     29  H   UNL     1       2.918   2.573  29.327  0.00  0.00    +0.152 HD
BRANCH  26  30
ATOM     30  O   UNL     1       1.789   3.415  31.379  0.00  0.00    -0.444 OA
BRANCH  30  31
ATOM     31  C   UNL     1       3.022   2.691  31.372  0.00  0.00    +0.292 C 
BRANCH  31  33
ATOM     32  N   UNL     1       3.566   4.266  33.206  0.00  0.00    -0.131 NA
ATOM     33  C   UNL     1       3.946   3.239  32.382  0.00  0.00    +0.120 A 
ATOM     34  C   UNL     1       5.240   2.878  32.681  0.00  0.00    +0.137 A 
ATOM     35  N   UNL     1       5.592   3.729  33.685  0.00  0.00    -0.248 N 
ATOM     36  N   UNL     1       4.585   4.558  34.003  0.00  0.00    -0.065 NA
BRANCH  35  37
ATOM     37  C   UNL     1       6.854   3.798  34.389  0.00  0.00    +0.186 C 
BRANCH  37  38
ATOM     38  C   UNL     1       6.956   5.055  35.247  0.00  0.00    +0.255 C 
BRANCH  38  39
ATOM     39  O   UNL     1       7.327   6.214  34.473  0.00  0.00    -0.463 OA
BRANCH  39  40
ATOM     40  C   UNL     1       7.537   7.358  35.177  0.00  0.00    +0.304 C 
ATOM     41  O   UNL     1       7.792   8.446  34.681  0.00  0.00    -0.251 OA
ATOM     42  C   UNL     1       7.383   7.117  36.647  0.00  0.00    +0.136 C 
ENDBRANCH  39  40
ENDBRANCH  38  39
ENDBRANCH  37  38
ENDBRANCH  35  37
ENDBRANCH  31  33
ENDBRANCH  30  31
ENDBRANCH  26  30
ENDBRANCH  25  28
ENDBRANCH   1  25
TORSDOF 17
