REMARK VINA RESULT:    -6.174     11.500     17.604
REMARK INTER + INTRA:         -13.363
REMARK INTER:                 -10.669
REMARK INTRA:                  -2.694
REMARK UNBOUND:                -1.955
REMARK  Name = lig_assembled_78.pdb
REMARK  18 active torsions:
REMARK  status: ('A' for Active; 'I' for Inactive)
REMARK    1  A    between atoms: _2  and  _9
REMARK    2  A    between atoms: _4  and  _21
REMARK    3  A    between atoms: _6  and  _7
REMARK    4  A    between atoms: _6  and  _21
REMARK    5  A    between atoms: _9  and  _41
REMARK    6  A    between atoms: _10  and  _41
REMARK    7  A    between atoms: _17  and  _37
REMARK    8  A    between atoms: _19  and  _25
REMARK    9  A    between atoms: _20  and  _24
REMARK   10  A    between atoms: _24  and  _25
REMARK   11  A    between atoms: _27  and  _28
REMARK   12  A    between atoms: _29  and  _30
REMARK   13  A    between atoms: _31  and  _33
REMARK   14  A    between atoms: _33  and  _34
REMARK   15  A    between atoms: _33  and  _35
REMARK   16  A    between atoms: _35  and  _36
REMARK   17  A    between atoms: _35  and  _37
REMARK   18  A    between atoms: _38  and  _40
REMARK                            x       y       z     vdW  Elec       q    Type
REMARK                         _______ _______ _______ _____ _____    ______ ____
ROOT
ATOM      1  C   UNL     1      -6.392   7.650  19.256  0.00  0.00    +0.163 C 
ENDROOT
BRANCH   1   2
ATOM      2  O   UNL     1      -7.722   7.309  18.830  0.00  0.00    -0.388 OA
ATOM      3  H   UNL     1      -7.682   6.860  17.983  0.00  0.00    +0.210 HD
ENDBRANCH   1   2
BRANCH   1   4
ATOM      4  C   UNL     1      -5.844   8.840  18.449  0.00  0.00    +0.175 C 
BRANCH   4   5
ATOM      5  C   UNL     1      -5.125   8.388  17.170  0.00  0.00    +0.176 C 
ATOM      6  O   UNL     1      -4.107   7.420  17.547  0.00  0.00    -0.332 OA
ATOM      7  C   UNL     1      -3.384   6.795  16.435  0.00  0.00    +0.277 C 
ATOM      8  C   UNL     1      -2.763   7.877  15.517  0.00  0.00    +0.110 C 
ATOM      9  C   UNL     1      -3.801   8.947  15.116  0.00  0.00    +0.143 C 
ATOM     10  C   UNL     1      -4.495   9.528  16.348  0.00  0.00    +0.133 C 
BRANCH  10  11
ATOM     11  N   UNL     1      -5.541  10.482  15.948  0.00  0.00    -0.308 N 
ATOM     12  H   UNL     1      -6.377  10.112  15.517  0.00  0.00    +0.149 HD
ATOM     13  C   UNL     1      -5.459  11.804  16.116  0.00  0.00    +0.210 C 
ATOM     14  C   UNL     1      -4.161  12.339  16.751  0.00  0.00    +0.109 C 
ATOM     15  O   UNL     1      -6.358  12.578  15.784  0.00  0.00    -0.276 OA
ENDBRANCH  10  11
BRANCH   7  16
ATOM     16  C   UNL     1      -4.324   5.895  15.608  0.00  0.00    +0.414 C 
ATOM     17  O   UNL     1      -4.143   5.753  14.399  0.00  0.00    -0.240 OA
ATOM     18  O   UNL     1      -5.264   5.310  16.149  0.00  0.00    -0.240 OA
ENDBRANCH   7  16
BRANCH   7  19
ATOM     19  O   UNL     1      -2.308   5.997  16.993  0.00  0.00    -0.343 OA
ATOM     20  C   UNL     1      -0.988   6.302  16.476  0.00  0.00    +0.198 C 
ENDBRANCH   7  19
BRANCH   9  21
ATOM     21  O   UNL     1      -3.154   9.999  14.399  0.00  0.00    -0.390 OA
ATOM     22  H   UNL     1      -2.433  10.351  14.927  0.00  0.00    +0.210 HD
ENDBRANCH   9  21
ENDBRANCH   4   5
BRANCH   4  23
ATOM     23  O   UNL     1      -4.956   9.627  19.267  0.00  0.00    -0.387 OA
ATOM     24  H   UNL     1      -5.045  10.555  19.035  0.00  0.00    +0.210 HD
ENDBRANCH   4  23
ENDBRANCH   1   4
BRANCH   1  25
ATOM     25  C   UNL     1      -6.393   7.999  20.741  0.00  0.00    +0.141 C 
BRANCH  25  28
ATOM     26  C   UNL     1      -4.328   7.798  22.082  0.00  0.00    +0.401 C 
ATOM     27  O   UNL     1      -4.089   9.007  22.069  0.00  0.00    -0.226 OA
ATOM     28  N   UNL     1      -5.380   7.239  21.482  0.00  0.00    -0.279 N 
ATOM     29  H   UNL     1      -5.485   6.236  21.541  0.00  0.00    +0.152 HD
BRANCH  26  30
ATOM     30  O   UNL     1      -3.434   6.921  22.773  0.00  0.00    -0.444 OA
BRANCH  30  31
ATOM     31  C   UNL     1      -3.966   5.593  22.765  0.00  0.00    +0.292 C 
BRANCH  31  33
ATOM     32  N   UNL     1      -3.416   4.759  20.497  0.00  0.00    -0.131 NA
ATOM     33  C   UNL     1      -3.191   4.737  21.848  0.00  0.00    +0.120 A 
ATOM     34  C   UNL     1      -2.187   3.835  22.121  0.00  0.00    +0.139 A 
ATOM     35  N   UNL     1      -1.803   3.388  20.892  0.00  0.00    -0.230 N 
ATOM     36  N   UNL     1      -2.575   3.910  19.922  0.00  0.00    -0.064 NA
BRANCH  35  37
ATOM     37  C   UNL     1      -0.787   2.421  20.560  0.00  0.00    +0.316 C 
BRANCH  37  38
ATOM     38  S   UNL     1       0.819   3.135  20.311  0.00  0.00    +0.017 S 
ATOM     39  O   UNL     1       1.734   2.130  19.811  0.00  0.00    -0.168 OA
ATOM     40  O   UNL     1       0.642   4.397  19.614  0.00  0.00    -0.168 OA
BRANCH  38  41
ATOM     41  C   UNL     1       1.379   3.526  21.956  0.00  0.00    +0.090 A 
ATOM     42  C   UNL     1       1.388   4.861  22.375  0.00  0.00    +0.027 A 
ATOM     43  C   UNL     1       1.801   5.169  23.670  0.00  0.00    +0.002 A 
ATOM     44  C   UNL     1       2.184   4.149  24.544  0.00  0.00    +0.000 A 
ATOM     45  C   UNL     1       2.154   2.818  24.126  0.00  0.00    +0.002 A 
ATOM     46  C   UNL     1       1.751   2.500  22.829  0.00  0.00    +0.027 A 
ENDBRANCH  38  41
ENDBRANCH  37  38
ENDBRANCH  35  37
ENDBRANCH  31  33
ENDBRANCH  30  31
ENDBRANCH  26  30
ENDBRANCH  25  28
ENDBRANCH   1  25
TORSDOF 16
