REMARK VINA RESULT:    -6.183     14.837     18.542
REMARK INTER + INTRA:         -13.071
REMARK INTER:                 -11.403
REMARK INTRA:                  -1.668
REMARK UNBOUND:                -2.370
REMARK  Name = lig_assembled_87.pdb
REMARK  17 active torsions:
REMARK  status: ('A' for Active; 'I' for Inactive)
REMARK    1  A    between atoms: _2  and  _10
REMARK    2  A    between atoms: _3  and  _13
REMARK    3  A    between atoms: _5  and  _21
REMARK    4  A    between atoms: _7  and  _8
REMARK    5  A    between atoms: _7  and  _21
REMARK    6  A    between atoms: _17  and  _37
REMARK    7  A    between atoms: _19  and  _25
REMARK    8  A    between atoms: _20  and  _24
REMARK    9  A    between atoms: _24  and  _25
REMARK   10  A    between atoms: _27  and  _28
REMARK   11  A    between atoms: _29  and  _30
REMARK   12  A    between atoms: _31  and  _33
REMARK   13  A    between atoms: _33  and  _34
REMARK   14  A    between atoms: _33  and  _35
REMARK   15  A    between atoms: _35  and  _36
REMARK   16  A    between atoms: _35  and  _37
REMARK   17  A    between atoms: _38  and  _40
REMARK                            x       y       z     vdW  Elec       q    Type
REMARK                         _______ _______ _______ _____ _____    ______ ____
ROOT
ATOM      1  C   UNL     1      17.907   5.177  23.640  0.00  0.00    +0.163 C 
ENDROOT
BRANCH   1   2
ATOM      2  O   UNL     1      16.931   5.246  22.587  0.00  0.00    -0.388 OA
ATOM      3  H   UNL     1      17.013   6.085  22.128  0.00  0.00    +0.210 HD
ENDBRANCH   1   2
BRANCH   1   4
ATOM      4  C   UNL     1      18.847   6.375  23.558  0.00  0.00    +0.141 C 
BRANCH   4   7
ATOM      5  C   UNL     1      19.051   7.259  25.857  0.00  0.00    +0.401 C 
ATOM      6  O   UNL     1      19.759   6.329  26.252  0.00  0.00    -0.226 OA
ATOM      7  N   UNL     1      18.575   7.358  24.615  0.00  0.00    -0.279 N 
ATOM      8  H   UNL     1      17.995   8.153  24.388  0.00  0.00    +0.152 HD
BRANCH   5   9
ATOM      9  O   UNL     1      18.703   8.303  26.769  0.00  0.00    -0.444 OA
BRANCH   9  10
ATOM     10  C   UNL     1      19.549   8.234  27.920  0.00  0.00    +0.292 C 
BRANCH  10  12
ATOM     11  N   UNL     1      18.222  10.063  28.919  0.00  0.00    -0.131 NA
ATOM     12  C   UNL     1      18.894   8.882  29.070  0.00  0.00    +0.120 A 
ATOM     13  C   UNL     1      18.809   8.481  30.384  0.00  0.00    +0.137 A 
ATOM     14  N   UNL     1      17.968   9.393  30.963  0.00  0.00    -0.248 N 
ATOM     15  N   UNL     1      17.723  10.397  30.096  0.00  0.00    -0.065 NA
BRANCH  14  16
ATOM     16  C   UNL     1      17.353   9.430  32.304  0.00  0.00    +0.112 C 
ATOM     17  C   UNL     1      16.581  10.737  32.631  0.00  0.00    +0.045 C 
ATOM     18  C   UNL     1      17.090  11.525  33.849  0.00  0.00    +0.059 C 
ATOM     19  C   UNL     1      16.620  10.905  35.173  0.00  0.00    +0.020 C 
ATOM     20  C   UNL     1      17.784  10.022  35.621  0.00  0.00    +0.020 C 
ATOM     21  C   UNL     1      18.753  10.061  34.437  0.00  0.00    +0.059 C 
ATOM     22  N   UNL     1      18.536  11.440  34.009  0.00  0.00    -0.299 NA
ATOM     23  C   UNL     1      19.359  11.945  32.931  0.00  0.00    +0.105 C 
ATOM     24  C   UNL     1      18.375   9.002  33.400  0.00  0.00    +0.045 C 
ENDBRANCH  14  16
ENDBRANCH  10  12
ENDBRANCH   9  10
ENDBRANCH   5   9
ENDBRANCH   4   7
ENDBRANCH   1   4
BRANCH   1  25
ATOM     25  C   UNL     1      18.723   3.876  23.549  0.00  0.00    +0.175 C 
BRANCH  25  26
ATOM     26  C   UNL     1      17.991   2.689  24.190  0.00  0.00    +0.176 C 
ATOM     27  O   UNL     1      18.592   2.442  25.491  0.00  0.00    -0.332 OA
ATOM     28  C   UNL     1      17.948   1.403  26.300  0.00  0.00    +0.277 C 
ATOM     29  C   UNL     1      17.857   0.077  25.505  0.00  0.00    +0.110 C 
ATOM     30  C   UNL     1      17.253   0.294  24.102  0.00  0.00    +0.143 C 
ATOM     31  C   UNL     1      17.997   1.398  23.350  0.00  0.00    +0.133 C 
BRANCH  31  32
ATOM     32  N   UNL     1      17.359   1.656  22.049  0.00  0.00    -0.308 N 
ATOM     33  H   UNL     1      16.427   2.048  22.050  0.00  0.00    +0.149 HD
ATOM     34  C   UNL     1      17.929   1.405  20.868  0.00  0.00    +0.210 C 
ATOM     35  C   UNL     1      19.338   0.783  20.900  0.00  0.00    +0.109 C 
ATOM     36  O   UNL     1      17.376   1.644  19.794  0.00  0.00    -0.276 OA
ENDBRANCH  31  32
BRANCH  28  37
ATOM     37  C   UNL     1      16.533   1.843  26.731  0.00  0.00    +0.414 C 
ATOM     38  O   UNL     1      15.572   1.094  26.563  0.00  0.00    -0.240 OA
ATOM     39  O   UNL     1      16.353   2.947  27.246  0.00  0.00    -0.240 OA
ENDBRANCH  28  37
BRANCH  30  40
ATOM     40  O   UNL     1      17.328  -0.919  23.352  0.00  0.00    -0.390 OA
ATOM     41  H   UNL     1      17.941  -0.807  22.622  0.00  0.00    +0.210 HD
ENDBRANCH  30  40
BRANCH  28  42
ATOM     42  O   UNL     1      18.768   1.177  27.475  0.00  0.00    -0.343 OA
ATOM     43  C   UNL     1      18.700  -0.165  28.021  0.00  0.00    +0.198 C 
ENDBRANCH  28  42
ENDBRANCH  25  26
BRANCH  25  44
ATOM     44  O   UNL     1      20.014   4.056  24.166  0.00  0.00    -0.387 OA
ATOM     45  H   UNL     1      20.313   4.957  24.026  0.00  0.00    +0.210 HD
ENDBRANCH  25  44
ENDBRANCH   1  25
TORSDOF 14
