REMARK VINA RESULT:    -5.856     15.162     17.009
REMARK INTER + INTRA:         -12.326
REMARK INTER:                  -9.463
REMARK INTRA:                  -2.863
REMARK UNBOUND:                -2.191
REMARK  Name = lig_assembled_48.pdb
REMARK  16 active torsions:
REMARK  status: ('A' for Active; 'I' for Inactive)
REMARK    1  A    between atoms: _2  and  _9
REMARK    2  A    between atoms: _4  and  _18
REMARK    3  A    between atoms: _6  and  _7
REMARK    4  A    between atoms: _6  and  _18
REMARK    5  A    between atoms: _14  and  _34
REMARK    6  A    between atoms: _16  and  _22
REMARK    7  A    between atoms: _17  and  _21
REMARK    8  A    between atoms: _21  and  _22
REMARK    9  A    between atoms: _24  and  _25
REMARK   10  A    between atoms: _26  and  _27
REMARK   11  A    between atoms: _28  and  _30
REMARK   12  A    between atoms: _30  and  _31
REMARK   13  A    between atoms: _30  and  _32
REMARK   14  A    between atoms: _32  and  _33
REMARK   15  A    between atoms: _32  and  _34
REMARK   16  A    between atoms: _35  and  _37
REMARK                            x       y       z     vdW  Elec       q    Type
REMARK                         _______ _______ _______ _____ _____    ______ ____
ROOT
ATOM      1  C   UNL     1      18.966   6.766  25.510  0.00  0.00    +0.163 C 
ENDROOT
BRANCH   1   2
ATOM      2  O   UNL     1      18.350   5.486  25.727  0.00  0.00    -0.388 OA
ATOM      3  H   UNL     1      18.307   5.306  26.669  0.00  0.00    +0.210 HD
ENDBRANCH   1   2
BRANCH   1   4
ATOM      4  C   UNL     1      19.667   6.785  24.155  0.00  0.00    +0.141 C 
BRANCH   4   7
ATOM      5  C   UNL     1      21.679   5.392  23.816  0.00  0.00    +0.401 C 
ATOM      6  O   UNL     1      22.468   6.326  23.977  0.00  0.00    -0.226 OA
ATOM      7  N   UNL     1      20.353   5.518  23.876  0.00  0.00    -0.279 N 
ATOM      8  H   UNL     1      19.788   4.695  23.720  0.00  0.00    +0.152 HD
BRANCH   5   9
ATOM      9  O   UNL     1      22.195   4.087  23.543  0.00  0.00    -0.444 OA
BRANCH   9  10
ATOM     10  C   UNL     1      22.045   3.262  24.701  0.00  0.00    +0.292 C 
BRANCH  10  12
ATOM     11  N   UNL     1      19.848   2.983  25.797  0.00  0.00    -0.131 NA
ATOM     12  C   UNL     1      20.682   2.702  24.752  0.00  0.00    +0.120 A 
ATOM     13  C   UNL     1      20.022   1.894  23.853  0.00  0.00    +0.137 A 
ATOM     14  N   UNL     1      18.759   1.795  24.357  0.00  0.00    -0.248 N 
ATOM     15  N   UNL     1      18.686   2.392  25.566  0.00  0.00    -0.065 NA
BRANCH  14  16
ATOM     16  C   UNL     1      17.547   1.223  23.782  0.00  0.00    +0.109 C 
ATOM     17  C   UNL     1      16.448   2.292  23.632  0.00  0.00    +0.027 C 
ATOM     18  C   UNL     1      16.769   3.269  22.503  0.00  0.00    +0.002 C 
ATOM     19  C   UNL     1      16.901   2.537  21.173  0.00  0.00    +0.000 C 
ATOM     20  C   UNL     1      17.915   1.398  21.231  0.00  0.00    +0.002 C 
ATOM     21  C   UNL     1      17.726   0.479  22.444  0.00  0.00    +0.027 C 
ENDBRANCH  14  16
ENDBRANCH  10  12
ENDBRANCH   9  10
ENDBRANCH   5   9
ENDBRANCH   4   7
ENDBRANCH   1   4
BRANCH   1  22
ATOM     22  C   UNL     1      19.984   7.081  26.620  0.00  0.00    +0.175 C 
BRANCH  22  23
ATOM     23  C   UNL     1      19.336   7.800  27.812  0.00  0.00    +0.176 C 
ATOM     24  O   UNL     1      20.068   9.035  28.041  0.00  0.00    -0.332 OA
ATOM     25  C   UNL     1      19.522   9.911  29.082  0.00  0.00    +0.277 C 
ATOM     26  C   UNL     1      19.370   9.138  30.415  0.00  0.00    +0.110 C 
ATOM     27  C   UNL     1      18.626   7.801  30.216  0.00  0.00    +0.143 C 
ATOM     28  C   UNL     1      19.275   6.971  29.109  0.00  0.00    +0.133 C 
BRANCH  28  29
ATOM     29  N   UNL     1      18.506   5.740  28.869  0.00  0.00    -0.308 N 
ATOM     30  H   UNL     1      17.563   5.833  28.518  0.00  0.00    +0.149 HD
ATOM     31  C   UNL     1      18.972   4.507  29.086  0.00  0.00    +0.210 C 
ATOM     32  C   UNL     1      20.403   4.399  29.646  0.00  0.00    +0.109 C 
ATOM     33  O   UNL     1      18.310   3.493  28.863  0.00  0.00    -0.276 OA
ENDBRANCH  28  29
BRANCH  25  34
ATOM     34  C   UNL     1      18.152  10.479  28.656  0.00  0.00    +0.414 C 
ATOM     35  O   UNL     1      17.937  10.763  27.479  0.00  0.00    -0.240 OA
ATOM     36  O   UNL     1      17.263  10.654  29.490  0.00  0.00    -0.240 OA
ENDBRANCH  25  34
BRANCH  27  37
ATOM     37  O   UNL     1      18.642   7.056  31.434  0.00  0.00    -0.390 OA
ATOM     38  H   UNL     1      19.031   6.192  31.276  0.00  0.00    +0.210 HD
ENDBRANCH  27  37
BRANCH  25  39
ATOM     39  O   UNL     1      20.459  11.000  29.289  0.00  0.00    -0.343 OA
ATOM     40  C   UNL     1      20.437  11.583  30.616  0.00  0.00    +0.198 C 
ENDBRANCH  25  39
ENDBRANCH  22  23
BRANCH  22  41
ATOM     41  O   UNL     1      21.066   7.873  26.090  0.00  0.00    -0.387 OA
ATOM     42  H   UNL     1      20.709   8.602  25.579  0.00  0.00    +0.210 HD
ENDBRANCH  22  41
ENDBRANCH   1  22
TORSDOF 14
