REMARK VINA RESULT:    -5.865      5.879      7.198
REMARK INTER + INTRA:         -13.030
REMARK INTER:                 -10.866
REMARK INTRA:                  -2.164
REMARK UNBOUND:                -2.536
REMARK  Name = lig_assembled_44.pdb
REMARK  17 active torsions:
REMARK  status: ('A' for Active; 'I' for Inactive)
REMARK    1  A    between atoms: _2  and  _9
REMARK    2  A    between atoms: _4  and  _19
REMARK    3  A    between atoms: _6  and  _7
REMARK    4  A    between atoms: _6  and  _19
REMARK    5  A    between atoms: _9  and  _10
REMARK    6  A    between atoms: _15  and  _35
REMARK    7  A    between atoms: _17  and  _23
REMARK    8  A    between atoms: _18  and  _22
REMARK    9  A    between atoms: _22  and  _23
REMARK   10  A    between atoms: _25  and  _26
REMARK   11  A    between atoms: _27  and  _28
REMARK   12  A    between atoms: _29  and  _31
REMARK   13  A    between atoms: _31  and  _32
REMARK   14  A    between atoms: _31  and  _33
REMARK   15  A    between atoms: _33  and  _34
REMARK   16  A    between atoms: _33  and  _35
REMARK   17  A    between atoms: _36  and  _38
REMARK                            x       y       z     vdW  Elec       q    Type
REMARK                         _______ _______ _______ _____ _____    ______ ____
ROOT
ATOM      1  C   UNL     1       7.795   2.421  34.065  0.00  0.00    +0.163 C 
ENDROOT
BRANCH   1   2
ATOM      2  O   UNL     1       8.462   2.675  35.312  0.00  0.00    -0.388 OA
ATOM      3  H   UNL     1       8.141   3.500  35.685  0.00  0.00    +0.210 HD
ENDBRANCH   1   2
BRANCH   1   4
ATOM      4  C   UNL     1       8.524   1.324  33.298  0.00  0.00    +0.141 C 
BRANCH   4   7
ATOM      5  C   UNL     1       6.703  -0.146  32.506  0.00  0.00    +0.401 C 
ATOM      6  O   UNL     1       6.241   0.689  31.725  0.00  0.00    -0.226 OA
ATOM      7  N   UNL     1       7.764   0.068  33.284  0.00  0.00    -0.279 N 
ATOM      8  H   UNL     1       8.062  -0.676  33.899  0.00  0.00    +0.152 HD
BRANCH   5   9
ATOM      9  O   UNL     1       6.076  -1.428  32.602  0.00  0.00    -0.444 OA
BRANCH   9  10
ATOM     10  C   UNL     1       6.640  -2.310  31.628  0.00  0.00    +0.292 C 
BRANCH  10  12
ATOM     11  N   UNL     1       4.563  -2.169  30.284  0.00  0.00    -0.131 NA
ATOM     12  C   UNL     1       5.932  -2.178  30.341  0.00  0.00    +0.120 A 
ATOM     13  C   UNL     1       6.437  -2.032  29.070  0.00  0.00    +0.137 A 
ATOM     14  N   UNL     1       5.328  -1.860  28.295  0.00  0.00    -0.247 N 
ATOM     15  N   UNL     1       4.202  -1.984  29.020  0.00  0.00    -0.065 NA
BRANCH  14  16
ATOM     16  C   UNL     1       5.262  -1.578  26.874  0.00  0.00    +0.180 C 
BRANCH  16  17
ATOM     17  C   UNL     1       5.951  -2.649  26.064  0.00  0.00    -0.026 A 
ATOM     18  C   UNL     1       5.404  -3.938  25.968  0.00  0.00    +0.006 A 
ATOM     19  C   UNL     1       6.052  -4.932  25.232  0.00  0.00    +0.015 A 
ATOM     20  C   UNL     1       7.253  -4.642  24.586  0.00  0.00    +0.018 A 
ATOM     21 BR   UNL     1       8.119  -5.984  23.576  0.00  0.00    -0.050 Br
ATOM     22  C   UNL     1       7.818  -3.373  24.681  0.00  0.00    +0.015 A 
ATOM     23  C   UNL     1       7.171  -2.380  25.423  0.00  0.00    +0.006 A 
ENDBRANCH  16  17
ENDBRANCH  14  16
ENDBRANCH  10  12
ENDBRANCH   9  10
ENDBRANCH   5   9
ENDBRANCH   4   7
ENDBRANCH   1   4
BRANCH   1  24
ATOM     24  C   UNL     1       7.733   3.695  33.205  0.00  0.00    +0.175 C 
BRANCH  24  25
ATOM     25  C   UNL     1       6.943   4.819  33.892  0.00  0.00    +0.176 C 
ATOM     26  O   UNL     1       7.771   5.360  34.958  0.00  0.00    -0.332 OA
ATOM     27  C   UNL     1       7.219   6.521  35.662  0.00  0.00    +0.277 C 
ATOM     28  C   UNL     1       5.806   6.201  36.208  0.00  0.00    +0.110 C 
ATOM     29  C   UNL     1       4.898   5.594  35.118  0.00  0.00    +0.143 C 
ATOM     30  C   UNL     1       5.572   4.395  34.449  0.00  0.00    +0.133 C 
BRANCH  30  31
ATOM     31  N   UNL     1       4.735   3.879  33.354  0.00  0.00    -0.308 N 
ATOM     32  H   UNL     1       4.645   4.445  32.522  0.00  0.00    +0.149 HD
ATOM     33  C   UNL     1       4.087   2.711  33.388  0.00  0.00    +0.210 C 
ATOM     34  C   UNL     1       4.223   1.884  34.680  0.00  0.00    +0.109 C 
ATOM     35  O   UNL     1       3.405   2.298  32.450  0.00  0.00    -0.276 OA
ENDBRANCH  30  31
BRANCH  27  36
ATOM     36  C   UNL     1       7.145   7.745  34.725  0.00  0.00    +0.414 C 
ATOM     37  O   UNL     1       8.177   8.278  34.319  0.00  0.00    -0.240 OA
ATOM     38  O   UNL     1       6.054   8.198  34.376  0.00  0.00    -0.240 OA
ENDBRANCH  27  36
BRANCH  27  39
ATOM     39  O   UNL     1       8.087   6.819  36.786  0.00  0.00    -0.343 OA
ATOM     40  C   UNL     1       8.706   5.663  37.405  0.00  0.00    +0.198 C 
ENDBRANCH  27  39
BRANCH  29  41
ATOM     41  O   UNL     1       3.662   5.176  35.698  0.00  0.00    -0.390 OA
ATOM     42  H   UNL     1       3.774   4.313  36.105  0.00  0.00    +0.210 HD
ENDBRANCH  29  41
ENDBRANCH  24  25
BRANCH  24  43
ATOM     43  O   UNL     1       7.156   3.398  31.918  0.00  0.00    -0.387 OA
ATOM     44  H   UNL     1       7.545   3.970  31.252  0.00  0.00    +0.210 HD
ENDBRANCH  24  43
ENDBRANCH   1  24
TORSDOF 15
