REMARK VINA RESULT:    -6.474     12.302     16.366
REMARK INTER + INTRA:         -12.840
REMARK INTER:                 -10.475
REMARK INTRA:                  -2.365
REMARK UNBOUND:                -1.636
REMARK  Name = lig_assembled_52.pdb
REMARK  16 active torsions:
REMARK  status: ('A' for Active; 'I' for Inactive)
REMARK    1  A    between atoms: _2  and  _10
REMARK    2  A    between atoms: _5  and  _18
REMARK    3  A    between atoms: _7  and  _8
REMARK    4  A    between atoms: _7  and  _18
REMARK    5  A    between atoms: _14  and  _34
REMARK    6  A    between atoms: _16  and  _22
REMARK    7  A    between atoms: _17  and  _21
REMARK    8  A    between atoms: _21  and  _22
REMARK    9  A    between atoms: _24  and  _25
REMARK   10  A    between atoms: _26  and  _27
REMARK   11  A    between atoms: _28  and  _30
REMARK   12  A    between atoms: _30  and  _31
REMARK   13  A    between atoms: _30  and  _32
REMARK   14  A    between atoms: _32  and  _33
REMARK   15  A    between atoms: _32  and  _34
REMARK   16  A    between atoms: _35  and  _37
REMARK                            x       y       z     vdW  Elec       q    Type
REMARK                         _______ _______ _______ _____ _____    ______ ____
ROOT
ATOM      1  C   UNL     1      18.561  -2.335  22.509  0.00  0.00    +0.163 C 
ENDROOT
BRANCH   1   2
ATOM      2  O   UNL     1      19.316  -3.516  22.820  0.00  0.00    -0.388 OA
ATOM      3  H   UNL     1      19.254  -3.698  23.761  0.00  0.00    +0.210 HD
ENDBRANCH   1   2
BRANCH   1   4
ATOM      4  C   UNL     1      19.447  -1.324  21.788  0.00  0.00    +0.141 C 
BRANCH   4   7
ATOM      5  C   UNL     1      19.136   0.986  20.968  0.00  0.00    +0.401 C 
ATOM      6  O   UNL     1      20.277   1.346  21.267  0.00  0.00    -0.226 OA
ATOM      7  N   UNL     1      18.661  -0.242  21.182  0.00  0.00    -0.279 N 
ATOM      8  H   UNL     1      17.708  -0.439  20.911  0.00  0.00    +0.152 HD
BRANCH   5   9
ATOM      9  O   UNL     1      18.248   1.927  20.359  0.00  0.00    -0.444 OA
BRANCH   9  10
ATOM     10  C   UNL     1      17.159   2.200  21.246  0.00  0.00    +0.292 C 
BRANCH  10  12
ATOM     11  N   UNL     1      16.938   4.592  21.835  0.00  0.00    -0.131 NA
ATOM     12  C   UNL     1      17.471   3.363  22.097  0.00  0.00    +0.121 A 
ATOM     13  C   UNL     1      18.270   3.451  23.214  0.00  0.00    +0.143 A 
ATOM     14  N   UNL     1      18.177   4.763  23.617  0.00  0.00    -0.218 N 
ATOM     15  N   UNL     1      17.374   5.437  22.760  0.00  0.00    -0.060 NA
BRANCH  14  16
ATOM     16  C   UNL     1      18.771   5.387  24.734  0.00  0.00    +0.085 A 
ATOM     17  C   UNL     1      19.497   4.665  25.686  0.00  0.00    +0.031 A 
ATOM     18  C   UNL     1      20.041   5.337  26.780  0.00  0.00    +0.022 A 
ATOM     19  C   UNL     1      19.844   6.704  26.881  0.00  0.00    +0.111 A 
ATOM     20  N   UNL     1      19.155   7.429  25.974  0.00  0.00    -0.261 NA
ATOM     21  C   UNL     1      18.632   6.758  24.919  0.00  0.00    +0.138 A 
ENDBRANCH  14  16
ENDBRANCH  10  12
ENDBRANCH   9  10
ENDBRANCH   5   9
ENDBRANCH   4   7
ENDBRANCH   1   4
BRANCH   1  22
ATOM     22  C   UNL     1      17.986  -1.697  23.785  0.00  0.00    +0.175 C 
BRANCH  22  23
ATOM     23  C   UNL     1      17.311  -2.733  24.696  0.00  0.00    +0.176 C 
ATOM     24  O   UNL     1      16.471  -3.580  23.864  0.00  0.00    -0.332 OA
ATOM     25  C   UNL     1      15.824  -4.702  24.551  0.00  0.00    +0.277 C 
ATOM     26  C   UNL     1      15.014  -4.196  25.770  0.00  0.00    +0.110 C 
ATOM     27  C   UNL     1      15.857  -3.265  26.668  0.00  0.00    +0.143 C 
ATOM     28  C   UNL     1      16.485  -2.136  25.850  0.00  0.00    +0.133 C 
BRANCH  28  29
ATOM     29  N   UNL     1      17.355  -1.308  26.700  0.00  0.00    -0.308 N 
ATOM     30  H   UNL     1      18.170  -1.744  27.108  0.00  0.00    +0.149 HD
ATOM     31  C   UNL     1      17.139  -0.017  26.966  0.00  0.00    +0.210 C 
ATOM     32  C   UNL     1      15.876   0.613  26.350  0.00  0.00    +0.109 C 
ATOM     33  O   UNL     1      17.894   0.657  27.669  0.00  0.00    -0.276 OA
ENDBRANCH  28  29
BRANCH  25  34
ATOM     34  C   UNL     1      16.872  -5.733  25.021  0.00  0.00    +0.414 C 
ATOM     35  O   UNL     1      16.589  -6.550  25.896  0.00  0.00    -0.240 OA
ATOM     36  O   UNL     1      17.999  -5.747  24.524  0.00  0.00    -0.240 OA
ENDBRANCH  25  34
BRANCH  27  37
ATOM     37  O   UNL     1      15.032  -2.704  27.689  0.00  0.00    -0.390 OA
ATOM     38  H   UNL     1      15.544  -2.603  28.495  0.00  0.00    +0.210 HD
ENDBRANCH  27  37
BRANCH  25  39
ATOM     39  O   UNL     1      14.905  -5.329  23.620  0.00  0.00    -0.343 OA
ATOM     40  C   UNL     1      14.911  -4.768  22.283  0.00  0.00    +0.198 C 
ENDBRANCH  25  39
ENDBRANCH  22  23
BRANCH  22  41
ATOM     41  O   UNL     1      17.051  -0.654  23.441  0.00  0.00    -0.387 OA
ATOM     42  H   UNL     1      17.042  -0.533  22.489  0.00  0.00    +0.210 HD
ENDBRANCH  22  41
ENDBRANCH   1  22
TORSDOF 14
