REMARK VINA RESULT:    -6.809     12.691     16.579
REMARK INTER + INTRA:         -13.613
REMARK INTER:                 -11.639
REMARK INTRA:                  -1.974
REMARK UNBOUND:                -1.828
REMARK  Name = lig_assembled_70.pdb
REMARK  16 active torsions:
REMARK  status: ('A' for Active; 'I' for Inactive)
REMARK    1  A    between atoms: _2  and  _10
REMARK    2  A    between atoms: _5  and  _22
REMARK    3  A    between atoms: _7  and  _8
REMARK    4  A    between atoms: _7  and  _22
REMARK    5  A    between atoms: _18  and  _38
REMARK    6  A    between atoms: _20  and  _26
REMARK    7  A    between atoms: _21  and  _25
REMARK    8  A    between atoms: _25  and  _26
REMARK    9  A    between atoms: _28  and  _29
REMARK   10  A    between atoms: _30  and  _31
REMARK   11  A    between atoms: _32  and  _34
REMARK   12  A    between atoms: _34  and  _35
REMARK   13  A    between atoms: _34  and  _36
REMARK   14  A    between atoms: _36  and  _37
REMARK   15  A    between atoms: _36  and  _38
REMARK   16  A    between atoms: _39  and  _41
REMARK                            x       y       z     vdW  Elec       q    Type
REMARK                         _______ _______ _______ _____ _____    ______ ____
ROOT
ATOM      1  C   UNL     1       6.893  -6.126  14.202  0.00  0.00    +0.163 C 
ENDROOT
BRANCH   1   2
ATOM      2  O   UNL     1       8.150  -5.472  14.440  0.00  0.00    -0.388 OA
ATOM      3  H   UNL     1       8.111  -4.572  14.108  0.00  0.00    +0.210 HD
ENDBRANCH   1   2
BRANCH   1   4
ATOM      4  C   UNL     1       5.891  -5.134  13.621  0.00  0.00    +0.141 C 
BRANCH   4   7
ATOM      5  C   UNL     1       5.798  -2.674  13.412  0.00  0.00    +0.401 C 
ATOM      6  O   UNL     1       5.259  -2.694  12.303  0.00  0.00    -0.226 OA
ATOM      7  N   UNL     1       6.134  -3.767  14.097  0.00  0.00    -0.279 N 
ATOM      8  H   UNL     1       6.582  -3.648  14.995  0.00  0.00    +0.152 HD
BRANCH   5   9
ATOM      9  O   UNL     1       6.094  -1.413  14.017  0.00  0.00    -0.444 OA
BRANCH   9  10
ATOM     10  C   UNL     1       5.076  -0.468  13.675  0.00  0.00    +0.292 C 
BRANCH  10  12
ATOM     11  N   UNL     1       5.446   0.587  15.887  0.00  0.00    -0.131 NA
ATOM     12  C   UNL     1       4.595   0.231  14.881  0.00  0.00    +0.121 A 
ATOM     13  C   UNL     1       3.321   0.632  15.210  0.00  0.00    +0.143 A 
ATOM     14  N   UNL     1       3.445   1.247  16.434  0.00  0.00    -0.218 N 
ATOM     15  N   UNL     1       4.738   1.197  16.831  0.00  0.00    -0.060 NA
BRANCH  14  16
ATOM     16  C   UNL     1       2.444   1.874  17.204  0.00  0.00    +0.086 A 
ATOM     17  C   UNL     1       1.118   1.825  16.808  0.00  0.00    +0.139 A 
ATOM     18  N   UNL     1       0.099   2.367  17.524  0.00  0.00    -0.253 NA
ATOM     19  C   UNL     1       0.391   2.978  18.687  0.00  0.00    +0.071 A 
ATOM     20  C   UNL     1       1.715   3.090  19.162  0.00  0.00    +0.002 A 
ATOM     21  C   UNL     1       1.982   3.735  20.383  0.00  0.00    +0.010 A 
ATOM     22  C   UNL     1       0.940   4.252  21.147  0.00  0.00    +0.001 A 
ATOM     23  C   UNL     1      -0.367   4.137  20.689  0.00  0.00    +0.002 A 
ATOM     24  C   UNL     1      -0.627   3.510  19.466  0.00  0.00    +0.028 A 
ATOM     25  C   UNL     1       2.746   2.534  18.396  0.00  0.00    +0.039 A 
ENDBRANCH  14  16
ENDBRANCH  10  12
ENDBRANCH   9  10
ENDBRANCH   5   9
ENDBRANCH   4   7
ENDBRANCH   1   4
BRANCH   1  26
ATOM     26  C   UNL     1       6.329  -6.725  15.502  0.00  0.00    +0.175 C 
BRANCH  26  27
ATOM     27  C   UNL     1       6.975  -6.107  16.751  0.00  0.00    +0.176 C 
ATOM     28  O   UNL     1       7.870  -7.097  17.328  0.00  0.00    -0.332 OA
ATOM     29  C   UNL     1       8.660  -6.645  18.477  0.00  0.00    +0.277 C 
ATOM     30  C   UNL     1       7.735  -6.070  19.577  0.00  0.00    +0.110 C 
ATOM     31  C   UNL     1       6.744  -5.035  19.005  0.00  0.00    +0.143 C 
ATOM     32  C   UNL     1       5.978  -5.609  17.813  0.00  0.00    +0.133 C 
BRANCH  32  33
ATOM     33  N   UNL     1       5.101  -4.586  17.222  0.00  0.00    -0.308 N 
ATOM     34  H   UNL     1       5.526  -3.726  16.906  0.00  0.00    +0.149 HD
ATOM     35  C   UNL     1       3.780  -4.719  17.077  0.00  0.00    +0.210 C 
ATOM     36  C   UNL     1       3.158  -6.031  17.593  0.00  0.00    +0.109 C 
ATOM     37  O   UNL     1       3.072  -3.851  16.565  0.00  0.00    -0.276 OA
ENDBRANCH  32  33
BRANCH  29  38
ATOM     38  C   UNL     1       9.681  -5.571  18.049  0.00  0.00    +0.414 C 
ATOM     39  O   UNL     1      10.326  -4.955  18.897  0.00  0.00    -0.240 OA
ATOM     40  O   UNL     1       9.861  -5.320  16.856  0.00  0.00    -0.240 OA
ENDBRANCH  29  38
BRANCH  31  41
ATOM     41  O   UNL     1       5.815  -4.645  20.018  0.00  0.00    -0.390 OA
ATOM     42  H   UNL     1       5.501  -3.755  19.840  0.00  0.00    +0.210 HD
ENDBRANCH  31  41
BRANCH  29  43
ATOM     43  O   UNL     1       9.359  -7.794  19.021  0.00  0.00    -0.343 OA
ATOM     44  C   UNL     1       9.267  -7.941  20.461  0.00  0.00    +0.198 C 
ENDBRANCH  29  43
ENDBRANCH  26  27
BRANCH  26  45
ATOM     45  O   UNL     1       6.506  -8.155  15.507  0.00  0.00    -0.387 OA
ATOM     46  H   UNL     1       7.327  -8.378  15.062  0.00  0.00    +0.210 HD
ENDBRANCH  26  45
ENDBRANCH   1  26
TORSDOF 14
