REMARK VINA RESULT:    -6.315      0.000      0.000
REMARK INTER + INTRA:         -15.525
REMARK INTER:                 -12.982
REMARK INTRA:                  -2.543
REMARK UNBOUND:                -2.564
REMARK  Name = lig_assembled_74.pdb
REMARK  24 active torsions:
REMARK  status: ('A' for Active; 'I' for Inactive)
REMARK    1  A    between atoms: _2  and  _9
REMARK    2  A    between atoms: _4  and  _22
REMARK    3  A    between atoms: _5  and  _14
REMARK    4  A    between atoms: _6  and  _7
REMARK    5  A    between atoms: _6  and  _22
REMARK    6  A    between atoms: _9  and  _10
REMARK    7  A    between atoms: _10  and  _11
REMARK    8  A    between atoms: _10  and  _13
REMARK    9  A    between atoms: _11  and  _12
REMARK   10  A    between atoms: _12  and  _16
REMARK   11  A    between atoms: _13  and  _14
REMARK   12  A    between atoms: _14  and  _15
REMARK   13  A    between atoms: _18  and  _38
REMARK   14  A    between atoms: _20  and  _26
REMARK   15  A    between atoms: _21  and  _25
REMARK   16  A    between atoms: _25  and  _26
REMARK   17  A    between atoms: _28  and  _29
REMARK   18  A    between atoms: _30  and  _31
REMARK   19  A    between atoms: _32  and  _34
REMARK   20  A    between atoms: _34  and  _35
REMARK   21  A    between atoms: _34  and  _36
REMARK   22  A    between atoms: _36  and  _37
REMARK   23  A    between atoms: _36  and  _38
REMARK   24  A    between atoms: _39  and  _41
REMARK                            x       y       z     vdW  Elec       q    Type
REMARK                         _______ _______ _______ _____ _____    ______ ____
ROOT
ATOM      1  C   UNL     1      18.621  10.682  28.862  0.00  0.00    +0.163 C 
ENDROOT
BRANCH   1   2
ATOM      2  O   UNL     1      17.333  11.006  29.411  0.00  0.00    -0.388 OA
ATOM      3  H   UNL     1      16.717  11.189  28.697  0.00  0.00    +0.210 HD
ENDBRANCH   1   2
BRANCH   1   4
ATOM      4  C   UNL     1      19.060   9.269  29.285  0.00  0.00    +0.175 C 
BRANCH   4   5
ATOM      5  C   UNL     1      18.362   8.809  30.573  0.00  0.00    +0.176 C 
ATOM      6  O   UNL     1      18.677   9.768  31.620  0.00  0.00    -0.332 OA
ATOM      7  C   UNL     1      18.007   9.547  32.905  0.00  0.00    +0.277 C 
ATOM      8  C   UNL     1      18.273   8.109  33.414  0.00  0.00    +0.110 C 
ATOM      9  C   UNL     1      17.982   7.056  32.324  0.00  0.00    +0.143 C 
ATOM     10  C   UNL     1      18.727   7.384  31.030  0.00  0.00    +0.133 C 
BRANCH  10  11
ATOM     11  N   UNL     1      18.374   6.423  29.974  0.00  0.00    -0.308 N 
ATOM     12  H   UNL     1      17.405   6.367  29.692  0.00  0.00    +0.149 HD
ATOM     13  C   UNL     1      19.250   5.620  29.363  0.00  0.00    +0.210 C 
ATOM     14  C   UNL     1      20.714   5.712  29.833  0.00  0.00    +0.109 C 
ATOM     15  O   UNL     1      18.927   4.835  28.471  0.00  0.00    -0.276 OA
ENDBRANCH  10  11
BRANCH   7  16
ATOM     16  C   UNL     1      16.486   9.774  32.775  0.00  0.00    +0.414 C 
ATOM     17  O   UNL     1      15.696   9.041  33.369  0.00  0.00    -0.240 OA
ATOM     18  O   UNL     1      16.049  10.689  32.076  0.00  0.00    -0.240 OA
ENDBRANCH   7  16
BRANCH   9  19
ATOM     19  O   UNL     1      18.383   5.764  32.783  0.00  0.00    -0.390 OA
ATOM     20  H   UNL     1      19.216   5.522  32.372  0.00  0.00    +0.210 HD
ENDBRANCH   9  19
BRANCH   7  21
ATOM     21  O   UNL     1      18.559  10.482  33.866  0.00  0.00    -0.343 OA
ATOM     22  C   UNL     1      19.235  11.627  33.287  0.00  0.00    +0.198 C 
ENDBRANCH   7  21
ENDBRANCH   4   5
BRANCH   4  23
ATOM     23  O   UNL     1      20.491   9.223  29.452  0.00  0.00    -0.387 OA
ATOM     24  H   UNL     1      20.836   8.426  29.042  0.00  0.00    +0.210 HD
ENDBRANCH   4  23
ENDBRANCH   1   4
BRANCH   1  25
ATOM     25  C   UNL     1      18.576  10.767  27.340  0.00  0.00    +0.141 C 
BRANCH  25  28
ATOM     26  C   UNL     1      20.143   9.428  25.977  0.00  0.00    +0.401 C 
ATOM     27  O   UNL     1      20.897  10.375  25.744  0.00  0.00    -0.226 OA
ATOM     28  N   UNL     1      19.032   9.522  26.708  0.00  0.00    -0.279 N 
ATOM     29  H   UNL     1      18.472   8.691  26.836  0.00  0.00    +0.152 HD
BRANCH  26  30
ATOM     30  O   UNL     1      20.455   8.141  25.436  0.00  0.00    -0.444 OA
BRANCH  30  31
ATOM     31  C   UNL     1      19.504   7.182  25.905  0.00  0.00    +0.292 C 
BRANCH  31  33
ATOM     32  N   UNL     1      19.534   4.892  24.946  0.00  0.00    -0.131 NA
ATOM     33  C   UNL     1      19.176   6.210  24.844  0.00  0.00    +0.120 A 
ATOM     34  C   UNL     1      18.438   6.387  23.693  0.00  0.00    +0.137 A 
ATOM     35  N   UNL     1      18.232   5.112  23.245  0.00  0.00    -0.251 N 
ATOM     36  N   UNL     1      18.971   4.230  23.944  0.00  0.00    -0.065 NA
BRANCH  35  37
ATOM     37  C   UNL     1      17.141   4.648  22.412  0.00  0.00    +0.149 C 
BRANCH  37  38
ATOM     38  C   UNL     1      17.031   3.116  22.250  0.00  0.00    +0.021 C 
BRANCH  38  39
ATOM     39  C   UNL     1      16.391   2.685  20.914  0.00  0.00    +0.125 C 
BRANCH  39  40
ATOM     40  C   UNL     1      17.346   2.036  19.934  0.00  0.00    +0.305 C 
ATOM     41  O   UNL     1      18.500   1.727  20.182  0.00  0.00    -0.251 OA
BRANCH  40  42
ATOM     42  O   UNL     1      16.774   1.762  18.747  0.00  0.00    -0.481 OA
ATOM     43  H   UNL     1      16.990   0.890  18.368  0.00  0.00    +0.295 HD
ENDBRANCH  40  42
ENDBRANCH  39  40
ENDBRANCH  38  39
BRANCH  38  44
ATOM     44  C   UNL     1      16.304   2.523  23.493  0.00  0.00    +0.009 C 
BRANCH  44  45
ATOM     45  C   UNL     1      17.067   1.420  24.256  0.00  0.00    -0.017 C 
ATOM     46  C   UNL     1      16.233   0.819  25.391  0.00  0.00    +0.007 C 
ATOM     47  C   UNL     1      17.491   0.299  23.301  0.00  0.00    +0.007 C 
ENDBRANCH  44  45
ENDBRANCH  38  44
ENDBRANCH  37  38
ENDBRANCH  35  37
ENDBRANCH  31  33
ENDBRANCH  30  31
ENDBRANCH  26  30
ENDBRANCH  25  28
ENDBRANCH   1  25
TORSDOF 20
