REMARK VINA RESULT:    -6.291     24.268     26.915
REMARK INTER + INTRA:         -12.919
REMARK INTER:                 -10.285
REMARK INTRA:                  -2.635
REMARK UNBOUND:                -2.031
REMARK  Name = lig_assembled_42.pdb
REMARK  16 active torsions:
REMARK  status: ('A' for Active; 'I' for Inactive)
REMARK    1  A    between atoms: _2  and  _9
REMARK    2  A    between atoms: _4  and  _21
REMARK    3  A    between atoms: _6  and  _7
REMARK    4  A    between atoms: _6  and  _21
REMARK    5  A    between atoms: _17  and  _37
REMARK    6  A    between atoms: _19  and  _25
REMARK    7  A    between atoms: _20  and  _24
REMARK    8  A    between atoms: _24  and  _25
REMARK    9  A    between atoms: _27  and  _28
REMARK   10  A    between atoms: _29  and  _30
REMARK   11  A    between atoms: _31  and  _33
REMARK   12  A    between atoms: _33  and  _34
REMARK   13  A    between atoms: _33  and  _35
REMARK   14  A    between atoms: _35  and  _36
REMARK   15  A    between atoms: _35  and  _37
REMARK   16  A    between atoms: _38  and  _40
REMARK                            x       y       z     vdW  Elec       q    Type
REMARK                         _______ _______ _______ _____ _____    ______ ____
ROOT
ATOM      1  C   UNL     1      13.360  23.337  19.136  0.00  0.00    +0.163 C 
ENDROOT
BRANCH   1   2
ATOM      2  O   UNL     1      13.500  21.924  19.359  0.00  0.00    -0.388 OA
ATOM      3  H   UNL     1      14.413  21.723  19.579  0.00  0.00    +0.210 HD
ENDBRANCH   1   2
BRANCH   1   4
ATOM      4  C   UNL     1      12.289  23.595  18.082  0.00  0.00    +0.141 C 
BRANCH   4   7
ATOM      5  C   UNL     1      11.885  23.084  15.698  0.00  0.00    +0.401 C 
ATOM      6  O   UNL     1      10.899  23.820  15.610  0.00  0.00    -0.226 OA
ATOM      7  N   UNL     1      12.591  22.914  16.816  0.00  0.00    -0.279 N 
ATOM      8  H   UNL     1      13.378  22.282  16.792  0.00  0.00    +0.152 HD
BRANCH   5   9
ATOM      9  O   UNL     1      12.313  22.356  14.544  0.00  0.00    -0.444 OA
BRANCH   9  10
ATOM     10  C   UNL     1      12.868  23.261  13.586  0.00  0.00    +0.292 C 
BRANCH  10  12
ATOM     11  N   UNL     1      14.514  22.435  11.924  0.00  0.00    -0.131 NA
ATOM     12  C   UNL     1      14.225  22.834  13.196  0.00  0.00    +0.121 A 
ATOM     13  C   UNL     1      15.365  22.756  13.959  0.00  0.00    +0.143 A 
ATOM     14  N   UNL     1      16.340  22.301  13.104  0.00  0.00    -0.220 N 
ATOM     15  N   UNL     1      15.802  22.112  11.874  0.00  0.00    -0.060 NA
BRANCH  14  16
ATOM     16  C   UNL     1      17.705  22.042  13.387  0.00  0.00    +0.071 A 
ATOM     17  C   UNL     1      18.314  20.876  12.898  0.00  0.00    +0.077 A 
ATOM     18  C   UNL     1      19.643  20.670  13.199  0.00  0.00    +0.168 A 
ATOM     19  O   UNL     1      20.378  19.599  12.801  0.00  0.00    -0.453 OA
ATOM     20  C   UNL     1      21.657  19.918  13.386  0.00  0.00    +0.466 C 
ATOM     21  O   UNL     1      21.656  21.161  14.122  0.00  0.00    -0.453 OA
ATOM     22  C   UNL     1      20.368  21.561  13.951  0.00  0.00    +0.166 A 
ATOM     23  C   UNL     1      19.803  22.716  14.449  0.00  0.00    +0.051 A 
ATOM     24  C   UNL     1      18.453  22.960  14.163  0.00  0.00    +0.031 A 
ENDBRANCH  14  16
ENDBRANCH  10  12
ENDBRANCH   9  10
ENDBRANCH   5   9
ENDBRANCH   4   7
ENDBRANCH   1   4
BRANCH   1  25
ATOM     25  C   UNL     1      14.691  23.956  18.678  0.00  0.00    +0.175 C 
BRANCH  25  26
ATOM     26  C   UNL     1      15.897  23.327  19.392  0.00  0.00    +0.176 C 
ATOM     27  O   UNL     1      15.514  23.066  20.770  0.00  0.00    -0.332 OA
ATOM     28  C   UNL     1      16.513  22.364  21.583  0.00  0.00    +0.277 C 
ATOM     29  C   UNL     1      17.865  23.118  21.549  0.00  0.00    +0.110 C 
ATOM     30  C   UNL     1      18.298  23.446  20.105  0.00  0.00    +0.143 C 
ATOM     31  C   UNL     1      17.184  24.172  19.350  0.00  0.00    +0.133 C 
BRANCH  31  32
ATOM     32  N   UNL     1      17.575  24.401  17.950  0.00  0.00    -0.308 N 
ATOM     33  H   UNL     1      17.641  23.598  17.341  0.00  0.00    +0.149 HD
ATOM     34  C   UNL     1      17.849  25.602  17.432  0.00  0.00    +0.210 C 
ATOM     35  C   UNL     1      17.765  26.803  18.393  0.00  0.00    +0.109 C 
ATOM     36  O   UNL     1      18.160  25.766  16.252  0.00  0.00    -0.276 OA
ENDBRANCH  31  32
BRANCH  28  37
ATOM     37  C   UNL     1      16.714  20.921  21.077  0.00  0.00    +0.414 C 
ATOM     38  O   UNL     1      15.856  20.384  20.377  0.00  0.00    -0.240 OA
ATOM     39  O   UNL     1      17.733  20.294  21.368  0.00  0.00    -0.240 OA
ENDBRANCH  28  37
BRANCH  30  40
ATOM     40  O   UNL     1      19.465  24.268  20.127  0.00  0.00    -0.390 OA
ATOM     41  H   UNL     1      19.806  24.365  19.235  0.00  0.00    +0.210 HD
ENDBRANCH  30  40
BRANCH  28  42
ATOM     42  O   UNL     1      16.038  22.339  22.954  0.00  0.00    -0.343 OA
ATOM     43  C   UNL     1      15.918  23.639  23.585  0.00  0.00    +0.198 C 
ENDBRANCH  28  42
ENDBRANCH  25  26
BRANCH  25  44
ATOM     44  O   UNL     1      14.676  25.382  18.893  0.00  0.00    -0.387 OA
ATOM     45  H   UNL     1      14.369  25.568  19.783  0.00  0.00    +0.210 HD
ENDBRANCH  25  44
ENDBRANCH   1  25
TORSDOF 14
