REMARK VINA RESULT:    -5.500      1.805      3.316
REMARK INTER + INTRA:         -13.852
REMARK INTER:                 -11.638
REMARK INTRA:                  -2.214
REMARK UNBOUND:                -2.564
REMARK  Name = lig_assembled_74.pdb
REMARK  24 active torsions:
REMARK  status: ('A' for Active; 'I' for Inactive)
REMARK    1  A    between atoms: _2  and  _9
REMARK    2  A    between atoms: _4  and  _22
REMARK    3  A    between atoms: _5  and  _14
REMARK    4  A    between atoms: _6  and  _7
REMARK    5  A    between atoms: _6  and  _22
REMARK    6  A    between atoms: _9  and  _10
REMARK    7  A    between atoms: _10  and  _11
REMARK    8  A    between atoms: _10  and  _13
REMARK    9  A    between atoms: _11  and  _12
REMARK   10  A    between atoms: _12  and  _16
REMARK   11  A    between atoms: _13  and  _14
REMARK   12  A    between atoms: _14  and  _15
REMARK   13  A    between atoms: _18  and  _38
REMARK   14  A    between atoms: _20  and  _26
REMARK   15  A    between atoms: _21  and  _25
REMARK   16  A    between atoms: _25  and  _26
REMARK   17  A    between atoms: _28  and  _29
REMARK   18  A    between atoms: _30  and  _31
REMARK   19  A    between atoms: _32  and  _34
REMARK   20  A    between atoms: _34  and  _35
REMARK   21  A    between atoms: _34  and  _36
REMARK   22  A    between atoms: _36  and  _37
REMARK   23  A    between atoms: _36  and  _38
REMARK   24  A    between atoms: _39  and  _41
REMARK                            x       y       z     vdW  Elec       q    Type
REMARK                         _______ _______ _______ _____ _____    ______ ____
ROOT
ATOM      1  C   UNL     1      19.070   7.288  30.423  0.00  0.00    +0.163 C 
ENDROOT
BRANCH   1   2
ATOM      2  O   UNL     1      18.515   5.962  30.444  0.00  0.00    -0.388 OA
ATOM      3  H   UNL     1      19.209   5.327  30.634  0.00  0.00    +0.210 HD
ENDBRANCH   1   2
BRANCH   1   4
ATOM      4  C   UNL     1      19.519   7.719  31.829  0.00  0.00    +0.175 C 
BRANCH   4   5
ATOM      5  C   UNL     1      18.435   8.526  32.560  0.00  0.00    +0.176 C 
ATOM      6  O   UNL     1      17.364   7.611  32.922  0.00  0.00    -0.332 OA
ATOM      7  C   UNL     1      16.282   8.187  33.725  0.00  0.00    +0.277 C 
ATOM      8  C   UNL     1      15.690   9.433  33.021  0.00  0.00    +0.110 C 
ATOM      9  C   UNL     1      16.794  10.421  32.589  0.00  0.00    +0.143 C 
ATOM     10  C   UNL     1      17.869   9.715  31.762  0.00  0.00    +0.133 C 
BRANCH  10  11
ATOM     11  N   UNL     1      18.958  10.647  31.430  0.00  0.00    -0.308 N 
ATOM     12  H   UNL     1      19.550  10.968  32.183  0.00  0.00    +0.149 HD
ATOM     13  C   UNL     1      19.216  11.095  30.198  0.00  0.00    +0.210 C 
ATOM     14  C   UNL     1      18.280  10.607  29.077  0.00  0.00    +0.109 C 
ATOM     15  O   UNL     1      20.145  11.864  29.947  0.00  0.00    -0.276 OA
ENDBRANCH  10  11
BRANCH   7  16
ATOM     16  C   UNL     1      16.792   8.581  35.127  0.00  0.00    +0.414 C 
ATOM     17  O   UNL     1      17.518   7.815  35.761  0.00  0.00    -0.240 OA
ATOM     18  O   UNL     1      16.477   9.663  35.625  0.00  0.00    -0.240 OA
ENDBRANCH   7  16
BRANCH   9  19
ATOM     19  O   UNL     1      16.221  11.475  31.815  0.00  0.00    -0.390 OA
ATOM     20  H   UNL     1      15.527  11.120  31.254  0.00  0.00    +0.210 HD
ENDBRANCH   9  19
BRANCH   7  21
ATOM     21  O   UNL     1      15.235   7.191  33.849  0.00  0.00    -0.343 OA
ATOM     22  C   UNL     1      15.624   5.844  33.477  0.00  0.00    +0.198 C 
ENDBRANCH   7  21
ENDBRANCH   4   5
BRANCH   4  23
ATOM     23  O   UNL     1      20.738   8.484  31.749  0.00  0.00    -0.387 OA
ATOM     24  H   UNL     1      21.425   8.047  32.257  0.00  0.00    +0.210 HD
ENDBRANCH   4  23
ENDBRANCH   1   4
BRANCH   1  25
ATOM     25  C   UNL     1      20.259   7.340  29.470  0.00  0.00    +0.141 C 
BRANCH  25  28
ATOM     26  C   UNL     1      20.688   7.896  27.101  0.00  0.00    +0.401 C 
ATOM     27  O   UNL     1      21.908   8.006  27.250  0.00  0.00    -0.226 OA
ATOM     28  N   UNL     1      19.842   7.593  28.086  0.00  0.00    -0.279 N 
ATOM     29  H   UNL     1      18.857   7.535  27.867  0.00  0.00    +0.152 HD
BRANCH  26  30
ATOM     30  O   UNL     1      20.126   8.105  25.803  0.00  0.00    -0.444 OA
BRANCH  30  31
ATOM     31  C   UNL     1      18.815   7.536  25.753  0.00  0.00    +0.292 C 
BRANCH  31  33
ATOM     32  N   UNL     1      19.266   5.123  25.382  0.00  0.00    -0.131 NA
ATOM     33  C   UNL     1      18.803   6.324  24.912  0.00  0.00    +0.120 A 
ATOM     34  C   UNL     1      18.294   6.143  23.644  0.00  0.00    +0.137 A 
ATOM     35  N   UNL     1      18.311   4.787  23.482  0.00  0.00    -0.251 N 
ATOM     36  N   UNL     1      18.982   4.190  24.484  0.00  0.00    -0.065 NA
BRANCH  35  37
ATOM     37  C   UNL     1      17.458   4.004  22.609  0.00  0.00    +0.149 C 
BRANCH  37  38
ATOM     38  C   UNL     1      17.592   2.472  22.745  0.00  0.00    +0.021 C 
BRANCH  38  39
ATOM     39  C   UNL     1      17.524   1.727  21.396  0.00  0.00    +0.125 C 
BRANCH  39  40
ATOM     40  C   UNL     1      18.600   0.680  21.193  0.00  0.00    +0.305 C 
ATOM     41  O   UNL     1      18.506  -0.491  21.521  0.00  0.00    -0.251 OA
BRANCH  40  42
ATOM     42  O   UNL     1      19.677   1.153  20.540  0.00  0.00    -0.481 OA
ATOM     43  H   UNL     1      19.716   0.947  19.589  0.00  0.00    +0.295 HD
ENDBRANCH  40  42
ENDBRANCH  39  40
ENDBRANCH  38  39
BRANCH  38  44
ATOM     44  C   UNL     1      16.546   1.958  23.778  0.00  0.00    +0.009 C 
BRANCH  44  45
ATOM     45  C   UNL     1      17.045   0.881  24.764  0.00  0.00    -0.017 C 
ATOM     46  C   UNL     1      16.554  -0.519  24.391  0.00  0.00    +0.007 C 
ATOM     47  C   UNL     1      18.577   0.873  24.823  0.00  0.00    +0.007 C 
ENDBRANCH  44  45
ENDBRANCH  38  44
ENDBRANCH  37  38
ENDBRANCH  35  37
ENDBRANCH  31  33
ENDBRANCH  30  31
ENDBRANCH  26  30
ENDBRANCH  25  28
ENDBRANCH   1  25
TORSDOF 20
