REMARK VINA RESULT:    -5.837     15.155     18.578
REMARK INTER + INTRA:         -13.917
REMARK INTER:                 -10.494
REMARK INTRA:                  -3.423
REMARK UNBOUND:                -2.450
REMARK  Name = lig_assembled_10.pdb
REMARK  21 active torsions:
REMARK  status: ('A' for Active; 'I' for Inactive)
REMARK    1  A    between atoms: _2  and  _9
REMARK    2  A    between atoms: _4  and  _20
REMARK    3  A    between atoms: _5  and  _9
REMARK    4  A    between atoms: _5  and  _12
REMARK    5  A    between atoms: _6  and  _7
REMARK    6  A    between atoms: _6  and  _20
REMARK    7  A    between atoms: _9  and  _10
REMARK    8  A    between atoms: _10  and  _11
REMARK    9  A    between atoms: _11  and  _14
REMARK   10  A    between atoms: _16  and  _36
REMARK   11  A    between atoms: _18  and  _24
REMARK   12  A    between atoms: _19  and  _23
REMARK   13  A    between atoms: _23  and  _24
REMARK   14  A    between atoms: _26  and  _27
REMARK   15  A    between atoms: _28  and  _29
REMARK   16  A    between atoms: _30  and  _32
REMARK   17  A    between atoms: _32  and  _33
REMARK   18  A    between atoms: _32  and  _34
REMARK   19  A    between atoms: _34  and  _35
REMARK   20  A    between atoms: _34  and  _36
REMARK   21  A    between atoms: _37  and  _39
REMARK                            x       y       z     vdW  Elec       q    Type
REMARK                         _______ _______ _______ _____ _____    ______ ____
ROOT
ATOM      1  C   UNL     1      -0.502   4.155  30.553  0.00  0.00    +0.163 C 
ENDROOT
BRANCH   1   2
ATOM      2  O   UNL     1      -0.819   5.528  30.838  0.00  0.00    -0.388 OA
ATOM      3  H   UNL     1      -1.642   5.571  31.331  0.00  0.00    +0.210 HD
ENDBRANCH   1   2
BRANCH   1   4
ATOM      4  C   UNL     1       0.962   4.011  30.103  0.00  0.00    +0.175 C 
BRANCH   4   5
ATOM      5  C   UNL     1       1.416   2.544  30.075  0.00  0.00    +0.176 C 
ATOM      6  O   UNL     1       2.543   2.408  30.984  0.00  0.00    -0.332 OA
ATOM      7  C   UNL     1       3.047   1.044  31.169  0.00  0.00    +0.277 C 
ATOM      8  C   UNL     1       3.397   0.406  29.802  0.00  0.00    +0.110 C 
ATOM      9  C   UNL     1       2.240   0.554  28.792  0.00  0.00    +0.143 C 
ATOM     10  C   UNL     1       1.793   2.012  28.680  0.00  0.00    +0.133 C 
BRANCH  10  11
ATOM     11  N   UNL     1       0.634   2.128  27.781  0.00  0.00    -0.308 N 
ATOM     12  H   UNL     1      -0.221   1.662  28.050  0.00  0.00    +0.149 HD
ATOM     13  C   UNL     1       0.637   2.810  26.632  0.00  0.00    +0.210 C 
ATOM     14  C   UNL     1       1.963   3.488  26.237  0.00  0.00    +0.109 C 
ATOM     15  O   UNL     1      -0.353   2.902  25.906  0.00  0.00    -0.276 OA
ENDBRANCH  10  11
BRANCH   7  16
ATOM     16  C   UNL     1       2.003   0.169  31.894  0.00  0.00    +0.414 C 
ATOM     17  O   UNL     1       1.893  -1.024  31.615  0.00  0.00    -0.240 OA
ATOM     18  O   UNL     1       1.273   0.656  32.758  0.00  0.00    -0.240 OA
ENDBRANCH   7  16
BRANCH   7  19
ATOM     19  O   UNL     1       4.259   1.117  31.963  0.00  0.00    -0.343 OA
ATOM     20  C   UNL     1       5.267   0.127  31.635  0.00  0.00    +0.198 C 
ENDBRANCH   7  19
BRANCH   9  21
ATOM     21  O   UNL     1       2.659   0.091  27.508  0.00  0.00    -0.390 OA
ATOM     22  H   UNL     1       2.371   0.711  26.833  0.00  0.00    +0.210 HD
ENDBRANCH   9  21
ENDBRANCH   4   5
BRANCH   4  23
ATOM     23  O   UNL     1       1.824   4.782  30.963  0.00  0.00    -0.387 OA
ATOM     24  H   UNL     1       2.433   5.297  30.428  0.00  0.00    +0.210 HD
ENDBRANCH   4  23
ENDBRANCH   1   4
BRANCH   1  25
ATOM     25  C   UNL     1      -0.741   3.297  31.791  0.00  0.00    +0.141 C 
BRANCH  25  28
ATOM     26  C   UNL     1      -0.121   3.349  34.182  0.00  0.00    +0.401 C 
ATOM     27  O   UNL     1      -1.058   2.630  34.538  0.00  0.00    -0.226 OA
ATOM     28  N   UNL     1       0.099   3.716  32.919  0.00  0.00    -0.279 N 
ATOM     29  H   UNL     1       0.889   4.317  32.727  0.00  0.00    +0.152 HD
BRANCH  26  30
ATOM     30  O   UNL     1       0.795   3.835  35.167  0.00  0.00    -0.444 OA
BRANCH  30  31
ATOM     31  C   UNL     1       1.944   2.985  35.210  0.00  0.00    +0.292 C 
BRANCH  31  33
ATOM     32  N   UNL     1       3.388   4.205  33.609  0.00  0.00    -0.131 NA
ATOM     33  C   UNL     1       3.159   3.754  34.881  0.00  0.00    +0.120 A 
ATOM     34  C   UNL     1       4.201   4.146  35.692  0.00  0.00    +0.138 A 
ATOM     35  N   UNL     1       5.011   4.868  34.870  0.00  0.00    -0.237 N 
ATOM     36  N   UNL     1       4.528   4.879  33.611  0.00  0.00    -0.065 NA
BRANCH  35  37
ATOM     37  C   UNL     1       6.246   5.586  35.140  0.00  0.00    +0.227 C 
BRANCH  37  38
ATOM     38  C   UNL     1       6.345   6.940  34.470  0.00  0.00    +0.330 C 
ATOM     39  O   UNL     1       7.413   7.377  34.056  0.00  0.00    -0.249 OA
BRANCH  38  40
ATOM     40  O   UNL     1       5.201   7.636  34.303  0.00  0.00    -0.479 OA
ATOM     41  H   UNL     1       4.845   7.692  33.379  0.00  0.00    +0.295 HD
ENDBRANCH  38  40
ENDBRANCH  37  38
BRANCH  37  42
ATOM     42  C   UNL     1       7.517   4.748  34.951  0.00  0.00    +0.158 C 
BRANCH  42  43
ATOM     43  C   UNL     1       7.498   3.972  33.664  0.00  0.00    +0.307 C 
ATOM     44  O   UNL     1       7.219   2.781  33.593  0.00  0.00    -0.251 OA
BRANCH  43  45
ATOM     45  O   UNL     1       7.738   4.726  32.575  0.00  0.00    -0.481 OA
ATOM     46  H   UNL     1       7.124   4.586  31.828  0.00  0.00    +0.295 HD
ENDBRANCH  43  45
ENDBRANCH  42  43
ENDBRANCH  37  42
ENDBRANCH  35  37
ENDBRANCH  31  33
ENDBRANCH  30  31
ENDBRANCH  26  30
ENDBRANCH  25  28
ENDBRANCH   1  25
TORSDOF 19
