REMARK VINA RESULT:    -7.181      0.000      0.000
REMARK INTER + INTRA:         -16.952
REMARK INTER:                 -12.844
REMARK INTRA:                  -4.108
REMARK UNBOUND:                -2.424
REMARK  Name = lig_assembled_81.pdb
REMARK  22 active torsions:
REMARK  status: ('A' for Active; 'I' for Inactive)
REMARK    1  A    between atoms: _2  and  _12
REMARK    2  A    between atoms: _7  and  _30
REMARK    3  A    between atoms: _8  and  _24
REMARK    4  A    between atoms: _9  and  _10
REMARK    5  A    between atoms: _9  and  _30
REMARK    6  A    between atoms: _14  and  _15
REMARK    7  A    between atoms: _21  and  _22
REMARK    8  A    between atoms: _22  and  _23
REMARK    9  A    between atoms: _23  and  _25
REMARK   10  A    between atoms: _24  and  _25
REMARK   11  A    between atoms: _26  and  _46
REMARK   12  A    between atoms: _28  and  _34
REMARK   13  A    between atoms: _29  and  _33
REMARK   14  A    between atoms: _33  and  _34
REMARK   15  A    between atoms: _36  and  _37
REMARK   16  A    between atoms: _38  and  _39
REMARK   17  A    between atoms: _40  and  _42
REMARK   18  A    between atoms: _42  and  _43
REMARK   19  A    between atoms: _42  and  _44
REMARK   20  A    between atoms: _44  and  _45
REMARK   21  A    between atoms: _44  and  _46
REMARK   22  A    between atoms: _47  and  _49
REMARK                            x       y       z     vdW  Elec       q    Type
REMARK                         _______ _______ _______ _____ _____    ______ ____
ROOT
ATOM      1  C   UNL     1      17.316   1.397  20.197  0.00  0.00    +0.401 C 
ATOM      2  O   UNL     1      16.934   1.871  19.124  0.00  0.00    -0.226 OA
ATOM      3  N   UNL     1      17.213   2.026  21.368  0.00  0.00    -0.279 N 
ATOM      4  H   UNL     1      17.546   1.551  22.195  0.00  0.00    +0.152 HD
ENDROOT
BRANCH   1   5
ATOM      5  O   UNL     1      17.904   0.094  20.210  0.00  0.00    -0.444 OA
BRANCH   5   6
ATOM      6  C   UNL     1      18.890   0.025  21.243  0.00  0.00    +0.289 C 
BRANCH   6   8
ATOM      7  N   UNL     1      19.260  -2.272  22.019  0.00  0.00    -0.130 NA
ATOM      8  C   UNL     1      18.593  -1.093  22.162  0.00  0.00    +0.100 C 
ATOM      9  C   UNL     1      17.690  -1.219  23.201  0.00  0.00    +0.124 C 
ATOM     10  N   UNL     1      17.957  -2.467  23.749  0.00  0.00    -0.187 N 
ATOM     11  N   UNL     1      18.764  -3.128  22.895  0.00  0.00    -0.010 NA
BRANCH  10  12
ATOM     12  C   UNL     1      17.340  -3.083  24.889  0.00  0.00    +0.150 A 
ATOM     13  C   UNL     1      16.453  -4.187  24.853  0.00  0.00    +0.022 A 
ATOM     14  C   UNL     1      15.935  -4.531  26.130  0.00  0.00    +0.081 A 
ATOM     15  N   UNL     1      16.226  -3.801  27.240  0.00  0.00    -0.214 NA
ATOM     16  C   UNL     1      17.049  -2.770  27.143  0.00  0.00    +0.215 A 
ATOM     17  N   UNL     1      17.257  -1.993  28.257  0.00  0.00    -0.327 N 
ATOM     18  H   UNL     1      17.046  -2.501  29.102  0.00  0.00    +0.145 HD
ATOM     19  H   UNL     1      18.123  -1.479  28.199  0.00  0.00    +0.145 HD
ATOM     20  N   UNL     1      17.689  -2.440  26.038  0.00  0.00    -0.198 NA
BRANCH  14  21
ATOM     21  C   UNL     1      15.007  -5.673  26.481  0.00  0.00    +0.001 A 
ATOM     22  C   UNL     1      13.654  -5.532  26.842  0.00  0.00    +0.010 A 
ATOM     23  C   UNL     1      12.837  -6.635  27.146  0.00  0.00    +0.001 A 
ATOM     24  C   UNL     1      13.325  -7.923  27.041  0.00  0.00    +0.000 A 
ATOM     25  C   UNL     1      14.643  -8.117  26.633  0.00  0.00    +0.001 A 
ATOM     26  C   UNL     1      15.463  -7.008  26.373  0.00  0.00    +0.010 A 
ENDBRANCH  14  21
BRANCH  13  27
ATOM     27  C   UNL     1      16.091  -5.084  23.665  0.00  0.00    +0.069 C 
BRANCH  27  28
ATOM     28  C   UNL     1      15.169  -4.595  22.565  0.00  0.00    +0.164 C 
BRANCH  28  29
ATOM     29  O   UNL     1      14.139  -5.500  22.151  0.00  0.00    -0.380 OA
BRANCH  29  30
ATOM     30  C   UNL     1      14.461  -6.775  22.739  0.00  0.00    +0.156 C 
ATOM     31  C   UNL     1      13.219  -7.531  23.151  0.00  0.00    +0.034 C 
ENDBRANCH  29  30
ENDBRANCH  28  29
ENDBRANCH  27  28
ENDBRANCH  13  27
ENDBRANCH  10  12
ENDBRANCH   6   8
ENDBRANCH   5   6
ENDBRANCH   1   5
BRANCH   3  32
ATOM     32  C   UNL     1      16.643   3.370  21.524  0.00  0.00    +0.141 C 
BRANCH  32  33
ATOM     33  C   UNL     1      17.538   4.273  22.367  0.00  0.00    +0.163 C 
BRANCH  33  34
ATOM     34  O   UNL     1      16.802   5.428  22.800  0.00  0.00    -0.388 OA
ATOM     35  H   UNL     1      16.857   6.113  22.129  0.00  0.00    +0.210 HD
ENDBRANCH  33  34
BRANCH  33  36
ATOM     36  C   UNL     1      18.078   3.482  23.571  0.00  0.00    +0.175 C 
BRANCH  36  37
ATOM     37  C   UNL     1      18.333   4.384  24.788  0.00  0.00    +0.176 C 
ATOM     38  O   UNL     1      19.432   5.277  24.460  0.00  0.00    -0.332 OA
ATOM     39  C   UNL     1      19.750   6.289  25.472  0.00  0.00    +0.277 C 
ATOM     40  C   UNL     1      20.011   5.620  26.843  0.00  0.00    +0.110 C 
ATOM     41  C   UNL     1      18.883   4.636  27.221  0.00  0.00    +0.143 C 
ATOM     42  C   UNL     1      18.634   3.630  26.097  0.00  0.00    +0.133 C 
BRANCH  42  43
ATOM     43  N   UNL     1      17.500   2.754  26.431  0.00  0.00    -0.308 N 
ATOM     44  H   UNL     1      16.599   3.186  26.584  0.00  0.00    +0.149 HD
ATOM     45  C   UNL     1      17.583   1.426  26.547  0.00  0.00    +0.210 C 
ATOM     46  C   UNL     1      18.975   0.801  26.335  0.00  0.00    +0.109 C 
ATOM     47  O   UNL     1      16.613   0.716  26.814  0.00  0.00    -0.276 OA
ENDBRANCH  42  43
BRANCH  39  48
ATOM     48  C   UNL     1      18.599   7.308  25.606  0.00  0.00    +0.414 C 
ATOM     49  O   UNL     1      17.692   7.333  24.775  0.00  0.00    -0.240 OA
ATOM     50  O   UNL     1      18.578   8.106  26.544  0.00  0.00    -0.240 OA
ENDBRANCH  39  48
BRANCH  39  51
ATOM     51  O   UNL     1      20.961   6.972  25.058  0.00  0.00    -0.343 OA
ATOM     52  C   UNL     1      21.198   6.988  23.628  0.00  0.00    +0.198 C 
ENDBRANCH  39  51
BRANCH  41  53
ATOM     53  O   UNL     1      19.236   3.933  28.412  0.00  0.00    -0.390 OA
ATOM     54  H   UNL     1      18.972   4.448  29.179  0.00  0.00    +0.210 HD
ENDBRANCH  41  53
ENDBRANCH  36  37
BRANCH  36  55
ATOM     55  O   UNL     1      19.287   2.786  23.207  0.00  0.00    -0.387 OA
ATOM     56  H   UNL     1      19.303   1.927  23.634  0.00  0.00    +0.210 HD
ENDBRANCH  36  55
ENDBRANCH  33  36
ENDBRANCH  32  33
ENDBRANCH   3  32
TORSDOF 19
