REMARK VINA RESULT:    -6.541     13.716     15.746
REMARK INTER + INTRA:         -13.767
REMARK INTER:                 -12.189
REMARK INTRA:                  -1.578
REMARK UNBOUND:                -1.873
REMARK  Name = lig_assembled_60.pdb
REMARK  18 active torsions:
REMARK  status: ('A' for Active; 'I' for Inactive)
REMARK    1  A    between atoms: _2  and  _10
REMARK    2  A    between atoms: _3  and  _41
REMARK    3  A    between atoms: _5  and  _21
REMARK    4  A    between atoms: _7  and  _8
REMARK    5  A    between atoms: _7  and  _21
REMARK    6  A    between atoms: _13  and  _41
REMARK    7  A    between atoms: _17  and  _37
REMARK    8  A    between atoms: _19  and  _25
REMARK    9  A    between atoms: _20  and  _24
REMARK   10  A    between atoms: _24  and  _25
REMARK   11  A    between atoms: _27  and  _28
REMARK   12  A    between atoms: _29  and  _30
REMARK   13  A    between atoms: _31  and  _33
REMARK   14  A    between atoms: _33  and  _34
REMARK   15  A    between atoms: _33  and  _35
REMARK   16  A    between atoms: _35  and  _36
REMARK   17  A    between atoms: _35  and  _37
REMARK   18  A    between atoms: _38  and  _40
REMARK                            x       y       z     vdW  Elec       q    Type
REMARK                         _______ _______ _______ _____ _____    ______ ____
ROOT
ATOM      1  C   UNL     1      19.683   6.929  27.891  0.00  0.00    +0.141 C 
ENDROOT
BRANCH   1   4
ATOM      2  C   UNL     1      19.086   7.230  25.513  0.00  0.00    +0.401 C 
ATOM      3  O   UNL     1      20.173   7.723  25.204  0.00  0.00    -0.226 OA
ATOM      4  N   UNL     1      18.769   6.836  26.747  0.00  0.00    -0.279 N 
ATOM      5  H   UNL     1      17.847   6.452  26.903  0.00  0.00    +0.152 HD
BRANCH   2   6
ATOM      6  O   UNL     1      18.087   7.065  24.503  0.00  0.00    -0.444 OA
BRANCH   6   7
ATOM      7  C   UNL     1      18.663   6.427  23.360  0.00  0.00    +0.292 C 
BRANCH   7   9
ATOM      8  N   UNL     1      16.943   4.980  22.323  0.00  0.00    -0.131 NA
ATOM      9  C   UNL     1      18.032   5.113  23.134  0.00  0.00    +0.121 A 
ATOM     10  C   UNL     1      18.379   3.876  23.625  0.00  0.00    +0.143 A 
ATOM     11  N   UNL     1      17.484   3.001  23.052  0.00  0.00    -0.220 N 
ATOM     12  N   UNL     1      16.610   3.697  22.286  0.00  0.00    -0.060 NA
BRANCH  11  13
ATOM     13  C   UNL     1      17.440   1.586  23.154  0.00  0.00    +0.067 A 
ATOM     14  C   UNL     1      16.873   0.968  24.280  0.00  0.00    +0.030 A 
ATOM     15  C   UNL     1      16.898  -0.422  24.402  0.00  0.00    +0.030 A 
ATOM     16  C   UNL     1      17.477  -1.198  23.394  0.00  0.00    +0.105 A 
ATOM     17  C   UNL     1      18.031  -0.594  22.262  0.00  0.00    +0.030 A 
ATOM     18  C   UNL     1      18.006   0.798  22.139  0.00  0.00    +0.030 A 
BRANCH  16  19
ATOM     19  S   UNL     1      17.572  -2.952  23.599  0.00  0.00    +0.056 S 
ATOM     20  O   UNL     1      18.800  -3.434  23.013  0.00  0.00    -0.153 OA
ATOM     21  O   UNL     1      17.166  -3.293  24.943  0.00  0.00    -0.153 OA
BRANCH  19  22
ATOM     22  N   UNL     1      16.338  -3.479  22.593  0.00  0.00    -0.204 NA
ATOM     23  H   UNL     1      16.732  -3.862  21.734  0.00  0.00    +0.144 HD
ATOM     24  H   UNL     1      15.671  -2.722  22.439  0.00  0.00    +0.144 HD
ENDBRANCH  19  22
ENDBRANCH  16  19
ENDBRANCH  11  13
ENDBRANCH   7   9
ENDBRANCH   6   7
ENDBRANCH   2   6
ENDBRANCH   1   4
BRANCH   1  25
ATOM     25  C   UNL     1      18.934   6.936  29.219  0.00  0.00    +0.163 C 
BRANCH  25  26
ATOM     26  O   UNL     1      18.511   5.603  29.552  0.00  0.00    -0.388 OA
ATOM     27  H   UNL     1      19.266   5.011  29.525  0.00  0.00    +0.210 HD
ENDBRANCH  25  26
BRANCH  25  28
ATOM     28  C   UNL     1      19.840   7.515  30.319  0.00  0.00    +0.175 C 
BRANCH  28  29
ATOM     29  C   UNL     1      19.040   8.272  31.389  0.00  0.00    +0.176 C 
ATOM     30  O   UNL     1      18.120   7.331  32.008  0.00  0.00    -0.332 OA
ATOM     31  C   UNL     1      17.341   7.854  33.134  0.00  0.00    +0.277 C 
ATOM     32  C   UNL     1      16.577   9.134  32.715  0.00  0.00    +0.110 C 
ATOM     33  C   UNL     1      17.507  10.152  32.023  0.00  0.00    +0.143 C 
ATOM     34  C   UNL     1      18.271   9.501  30.869  0.00  0.00    +0.133 C 
BRANCH  34  35
ATOM     35  N   UNL     1      19.218  10.457  30.274  0.00  0.00    -0.308 N 
ATOM     36  H   UNL     1      20.024  10.726  30.821  0.00  0.00    +0.149 HD
ATOM     37  C   UNL     1      19.082  10.994  29.058  0.00  0.00    +0.210 C 
ATOM     38  C   UNL     1      17.829  10.584  28.260  0.00  0.00    +0.109 C 
ATOM     39  O   UNL     1      19.899  11.781  28.579  0.00  0.00    -0.276 OA
ENDBRANCH  34  35
BRANCH  31  40
ATOM     40  C   UNL     1      18.258   8.170  34.334  0.00  0.00    +0.414 C 
ATOM     41  O   UNL     1      19.127   7.371  34.677  0.00  0.00    -0.240 OA
ATOM     42  O   UNL     1      18.128   9.224  34.958  0.00  0.00    -0.240 OA
ENDBRANCH  31  40
BRANCH  33  43
ATOM     43  O   UNL     1      16.737  11.245  31.521  0.00  0.00    -0.390 OA
ATOM     44  H   UNL     1      16.035  10.910  30.958  0.00  0.00    +0.210 HD
ENDBRANCH  33  43
BRANCH  31  45
ATOM     45  O   UNL     1      16.369   6.845  33.514  0.00  0.00    -0.343 OA
ATOM     46  C   UNL     1      15.286   7.323  34.351  0.00  0.00    +0.198 C 
ENDBRANCH  31  45
ENDBRANCH  28  29
BRANCH  28  47
ATOM     47  O   UNL     1      20.834   8.382  29.737  0.00  0.00    -0.387 OA
ATOM     48  H   UNL     1      21.488   7.854  29.272  0.00  0.00    +0.210 HD
ENDBRANCH  28  47
ENDBRANCH  25  28
ENDBRANCH   1  25
TORSDOF 16
