REMARK VINA RESULT:    -5.094      9.389     12.895
REMARK INTER + INTRA:         -13.255
REMARK INTER:                 -10.938
REMARK INTRA:                  -2.317
REMARK UNBOUND:                -3.545
REMARK  Name = lig_assembled_55.pdb
REMARK  20 active torsions:
REMARK  status: ('A' for Active; 'I' for Inactive)
REMARK    1  A    between atoms: _2  and  _10
REMARK    2  A    between atoms: _3  and  _11
REMARK    3  A    between atoms: _3  and  _38
REMARK    4  A    between atoms: _5  and  _18
REMARK    5  A    between atoms: _6  and  _38
REMARK    6  A    between atoms: _7  and  _8
REMARK    7  A    between atoms: _7  and  _18
REMARK    8  A    between atoms: _10  and  _11
REMARK    9  A    between atoms: _14  and  _34
REMARK   10  A    between atoms: _16  and  _22
REMARK   11  A    between atoms: _17  and  _21
REMARK   12  A    between atoms: _21  and  _22
REMARK   13  A    between atoms: _24  and  _25
REMARK   14  A    between atoms: _26  and  _27
REMARK   15  A    between atoms: _28  and  _30
REMARK   16  A    between atoms: _30  and  _31
REMARK   17  A    between atoms: _30  and  _32
REMARK   18  A    between atoms: _32  and  _33
REMARK   19  A    between atoms: _32  and  _34
REMARK   20  A    between atoms: _35  and  _37
REMARK                            x       y       z     vdW  Elec       q    Type
REMARK                         _______ _______ _______ _____ _____    ______ ____
ROOT
ATOM      1  C   UNL     1      18.782  10.276  29.235  0.00  0.00    +0.163 C 
ENDROOT
BRANCH   1   2
ATOM      2  O   UNL     1      17.480  10.884  29.262  0.00  0.00    -0.388 OA
ATOM      3  H   UNL     1      16.832  10.241  29.562  0.00  0.00    +0.210 HD
ENDBRANCH   1   2
BRANCH   1   4
ATOM      4  C   UNL     1      18.759   8.895  29.914  0.00  0.00    +0.175 C 
BRANCH   4   5
ATOM      5  C   UNL     1      17.996   8.920  31.247  0.00  0.00    +0.176 C 
ATOM      6  O   UNL     1      18.271  10.191  31.897  0.00  0.00    -0.332 OA
ATOM      7  C   UNL     1      17.539  10.438  33.142  0.00  0.00    +0.277 C 
ATOM      8  C   UNL     1      17.767   9.278  34.143  0.00  0.00    +0.110 C 
ATOM      9  C   UNL     1      17.517   7.903  33.488  0.00  0.00    +0.143 C 
ATOM     10  C   UNL     1      18.325   7.755  32.199  0.00  0.00    +0.133 C 
BRANCH  10  11
ATOM     11  N   UNL     1      18.013   6.477  31.539  0.00  0.00    -0.308 N 
ATOM     12  H   UNL     1      17.098   6.373  31.123  0.00  0.00    +0.149 HD
ATOM     13  C   UNL     1      18.859   5.447  31.453  0.00  0.00    +0.210 C 
ATOM     14  C   UNL     1      20.236   5.629  32.119  0.00  0.00    +0.109 C 
ATOM     15  O   UNL     1      18.575   4.394  30.881  0.00  0.00    -0.276 OA
ENDBRANCH  10  11
BRANCH   7  16
ATOM     16  C   UNL     1      16.029  10.592  32.867  0.00  0.00    +0.414 C 
ATOM     17  O   UNL     1      15.205  10.073  33.620  0.00  0.00    -0.240 OA
ATOM     18  O   UNL     1      15.634  11.235  31.894  0.00  0.00    -0.240 OA
ENDBRANCH   7  16
BRANCH   7  19
ATOM     19  O   UNL     1      18.055  11.659  33.732  0.00  0.00    -0.343 OA
ATOM     20  C   UNL     1      19.380  12.042  33.284  0.00  0.00    +0.198 C 
ENDBRANCH   7  19
BRANCH   9  21
ATOM     21  O   UNL     1      17.883   6.864  34.396  0.00  0.00    -0.390 OA
ATOM     22  H   UNL     1      17.233   6.809  35.100  0.00  0.00    +0.210 HD
ENDBRANCH   9  21
ENDBRANCH   4   5
BRANCH   4  23
ATOM     23  O   UNL     1      20.104   8.421  30.120  0.00  0.00    -0.387 OA
ATOM     24  H   UNL     1      20.315   8.451  31.056  0.00  0.00    +0.210 HD
ENDBRANCH   4  23
ENDBRANCH   1   4
BRANCH   1  25
ATOM     25  C   UNL     1      19.258  10.127  27.794  0.00  0.00    +0.141 C 
BRANCH  25  28
ATOM     26  C   UNL     1      19.676   8.070  26.490  0.00  0.00    +0.401 C 
ATOM     27  O   UNL     1      20.840   8.368  26.216  0.00  0.00    -0.226 OA
ATOM     28  N   UNL     1      18.862   8.837  27.217  0.00  0.00    -0.279 N 
ATOM     29  H   UNL     1      17.919   8.511  27.380  0.00  0.00    +0.152 HD
BRANCH  26  30
ATOM     30  O   UNL     1      19.142   6.835  26.006  0.00  0.00    -0.444 OA
BRANCH  30  31
ATOM     31  C   UNL     1      19.687   6.553  24.714  0.00  0.00    +0.292 C 
BRANCH  31  33
ATOM     32  N   UNL     1      17.837   6.341  23.087  0.00  0.00    -0.131 NA
ATOM     33  C   UNL     1      18.743   5.743  23.922  0.00  0.00    +0.120 A 
ATOM     34  C   UNL     1      18.581   4.376  23.857  0.00  0.00    +0.137 A 
ATOM     35  N   UNL     1      17.550   4.208  22.981  0.00  0.00    -0.250 N 
ATOM     36  N   UNL     1      17.108   5.392  22.519  0.00  0.00    -0.065 NA
BRANCH  35  37
ATOM     37  C   UNL     1      16.959   2.971  22.521  0.00  0.00    +0.162 C 
BRANCH  37  38
ATOM     38  C   UNL     1      17.251   1.770  23.428  0.00  0.00    +0.129 C 
BRANCH  38  39
ATOM     39  N   UNL     1      16.383   1.709  24.640  0.00  0.00    -0.193 NA
ATOM     40  H   UNL     1      15.518   1.191  24.438  0.00  0.00    +0.148 HD
BRANCH  39  41
ATOM     41  S   UNL     1      17.129   1.210  26.065  0.00  0.00    +0.027 S 
ATOM     42  O   UNL     1      16.351   0.103  26.577  0.00  0.00    -0.158 OA
ATOM     43  O   UNL     1      18.543   1.074  25.794  0.00  0.00    -0.158 OA
ATOM     44  C   UNL     1      16.860   2.616  27.120  0.00  0.00    +0.214 C 
ENDBRANCH  39  41
ENDBRANCH  38  39
ENDBRANCH  37  38
ENDBRANCH  35  37
ENDBRANCH  31  33
ENDBRANCH  30  31
ENDBRANCH  26  30
ENDBRANCH  25  28
ENDBRANCH   1  25
TORSDOF 17
