REMARK VINA RESULT:    -6.946      2.294      4.638
REMARK INTER + INTRA:         -13.224
REMARK INTER:                 -10.786
REMARK INTRA:                  -2.438
REMARK UNBOUND:                -1.202
REMARK  Name = lig_assembled_40.pdb
REMARK  17 active torsions:
REMARK  status: ('A' for Active; 'I' for Inactive)
REMARK    1  A    between atoms: _2  and  _9
REMARK    2  A    between atoms: _4  and  _19
REMARK    3  A    between atoms: _6  and  _7
REMARK    4  A    between atoms: _6  and  _19
REMARK    5  A    between atoms: _12  and  _13
REMARK    6  A    between atoms: _15  and  _35
REMARK    7  A    between atoms: _17  and  _23
REMARK    8  A    between atoms: _18  and  _22
REMARK    9  A    between atoms: _22  and  _23
REMARK   10  A    between atoms: _25  and  _26
REMARK   11  A    between atoms: _27  and  _28
REMARK   12  A    between atoms: _29  and  _31
REMARK   13  A    between atoms: _31  and  _32
REMARK   14  A    between atoms: _31  and  _33
REMARK   15  A    between atoms: _33  and  _34
REMARK   16  A    between atoms: _33  and  _35
REMARK   17  A    between atoms: _36  and  _38
REMARK                            x       y       z     vdW  Elec       q    Type
REMARK                         _______ _______ _______ _____ _____    ______ ____
ROOT
ATOM      1  C   UNL     1       4.501  -0.487  30.912  0.00  0.00    +0.163 C 
ENDROOT
BRANCH   1   2
ATOM      2  O   UNL     1       5.914  -0.224  30.942  0.00  0.00    -0.388 OA
ATOM      3  H   UNL     1       6.343  -0.700  30.227  0.00  0.00    +0.210 HD
ENDBRANCH   1   2
BRANCH   1   4
ATOM      4  C   UNL     1       4.079  -0.916  29.510  0.00  0.00    +0.141 C 
BRANCH   4   7
ATOM      5  C   UNL     1       1.989  -0.445  28.280  0.00  0.00    +0.401 C 
ATOM      6  O   UNL     1       1.742  -1.633  28.057  0.00  0.00    -0.226 OA
ATOM      7  N   UNL     1       3.063  -0.020  28.946  0.00  0.00    -0.279 N 
ATOM      8  H   UNL     1       3.183   0.976  29.070  0.00  0.00    +0.152 HD
BRANCH   5   9
ATOM      9  O   UNL     1       1.085   0.554  27.800  0.00  0.00    -0.444 OA
BRANCH   9  10
ATOM     10  C   UNL     1       1.679   1.846  27.948  0.00  0.00    +0.292 C 
BRANCH  10  12
ATOM     11  N   UNL     1       1.826   3.915  26.598  0.00  0.00    -0.131 NA
ATOM     12  C   UNL     1       1.688   2.559  26.657  0.00  0.00    +0.121 A 
ATOM     13  C   UNL     1       1.586   2.062  25.380  0.00  0.00    +0.143 A 
ATOM     14  N   UNL     1       1.700   3.160  24.558  0.00  0.00    -0.220 N 
ATOM     15  N   UNL     1       1.824   4.275  25.321  0.00  0.00    -0.060 NA
BRANCH  14  16
ATOM     16  C   UNL     1       1.738   3.205  23.140  0.00  0.00    +0.067 A 
ATOM     17  C   UNL     1       1.824   2.028  22.388  0.00  0.00    +0.028 A 
ATOM     18  C   UNL     1       1.931   2.090  20.995  0.00  0.00    +0.005 A 
ATOM     19  C   UNL     1       1.955   3.324  20.338  0.00  0.00    -0.050 A 
ATOM     20  C   UNL     1       1.833   4.499  21.089  0.00  0.00    +0.005 A 
ATOM     21  C   UNL     1       2.117   3.397  18.848  0.00  0.00    +0.044 C 
ATOM     22  C   UNL     1       1.725   4.444  22.482  0.00  0.00    +0.028 A 
ENDBRANCH  14  16
ENDBRANCH  10  12
ENDBRANCH   9  10
ENDBRANCH   5   9
ENDBRANCH   4   7
ENDBRANCH   1   4
BRANCH   1  23
ATOM     23  C   UNL     1       3.701   0.759  31.331  0.00  0.00    +0.175 C 
BRANCH  23  24
ATOM     24  C   UNL     1       4.530   1.711  32.205  0.00  0.00    +0.176 C 
ATOM     25  O   UNL     1       5.154   0.923  33.257  0.00  0.00    -0.332 OA
ATOM     26  C   UNL     1       6.075   1.652  34.133  0.00  0.00    +0.277 C 
ATOM     27  C   UNL     1       5.372   2.886  34.751  0.00  0.00    +0.110 C 
ATOM     28  C   UNL     1       4.667   3.738  33.675  0.00  0.00    +0.143 C 
ATOM     29  C   UNL     1       3.736   2.879  32.818  0.00  0.00    +0.133 C 
BRANCH  29  30
ATOM     30  N   UNL     1       3.136   3.684  31.742  0.00  0.00    -0.308 N 
ATOM     31  H   UNL     1       3.753   4.062  31.037  0.00  0.00    +0.149 HD
ATOM     32  C   UNL     1       1.831   3.948  31.637  0.00  0.00    +0.210 C 
ATOM     33  C   UNL     1       0.922   3.379  32.743  0.00  0.00    +0.109 C 
ATOM     34  O   UNL     1       1.356   4.613  30.717  0.00  0.00    -0.276 OA
ENDBRANCH  29  30
BRANCH  26  35
ATOM     35  C   UNL     1       7.326   2.108  33.354  0.00  0.00    +0.414 C 
ATOM     36  O   UNL     1       7.846   1.363  32.524  0.00  0.00    -0.240 OA
ATOM     37  O   UNL     1       7.816   3.221  33.555  0.00  0.00    -0.240 OA
ENDBRANCH  26  35
BRANCH  28  38
ATOM     38  O   UNL     1       3.909   4.774  34.300  0.00  0.00    -0.390 OA
ATOM     39  H   UNL     1       4.088   4.777  35.244  0.00  0.00    +0.210 HD
ENDBRANCH  28  38
BRANCH  26  40
ATOM     40  O   UNL     1       6.468   0.763  35.210  0.00  0.00    -0.343 OA
ATOM     41  C   UNL     1       6.142  -0.634  35.000  0.00  0.00    +0.198 C 
ENDBRANCH  26  40
ENDBRANCH  23  24
BRANCH  23  42
ATOM     42  O   UNL     1       2.499   0.368  32.023  0.00  0.00    -0.387 OA
ATOM     43  H   UNL     1       2.338   0.972  32.752  0.00  0.00    +0.210 HD
ENDBRANCH  23  42
ENDBRANCH   1  23
TORSDOF 14
