REMARK VINA RESULT:    -6.212      0.000      0.000
REMARK INTER + INTRA:         -13.378
REMARK INTER:                 -10.678
REMARK INTRA:                  -2.700
REMARK UNBOUND:                -2.083
REMARK  Name = lig_assembled_35.pdb
REMARK  19 active torsions:
REMARK  status: ('A' for Active; 'I' for Inactive)
REMARK    1  A    between atoms: _2  and  _9
REMARK    2  A    between atoms: _4  and  _17
REMARK    3  A    between atoms: _5  and  _9
REMARK    4  A    between atoms: _5  and  _11
REMARK    5  A    between atoms: _6  and  _7
REMARK    6  A    between atoms: _6  and  _17
REMARK    7  A    between atoms: _9  and  _10
REMARK    8  A    between atoms: _13  and  _33
REMARK    9  A    between atoms: _15  and  _21
REMARK   10  A    between atoms: _16  and  _20
REMARK   11  A    between atoms: _20  and  _21
REMARK   12  A    between atoms: _23  and  _24
REMARK   13  A    between atoms: _25  and  _26
REMARK   14  A    between atoms: _27  and  _29
REMARK   15  A    between atoms: _29  and  _30
REMARK   16  A    between atoms: _29  and  _31
REMARK   17  A    between atoms: _31  and  _32
REMARK   18  A    between atoms: _31  and  _33
REMARK   19  A    between atoms: _34  and  _36
REMARK                            x       y       z     vdW  Elec       q    Type
REMARK                         _______ _______ _______ _____ _____    ______ ____
ROOT
ATOM      1  C   UNL     1      16.950   3.613  22.689  0.00  0.00    +0.163 C 
ENDROOT
BRANCH   1   2
ATOM      2  O   UNL     1      15.994   2.895  23.486  0.00  0.00    -0.388 OA
ATOM      3  H   UNL     1      15.317   2.522  22.917  0.00  0.00    +0.210 HD
ENDBRANCH   1   2
BRANCH   1   4
ATOM      4  C   UNL     1      18.305   3.711  23.410  0.00  0.00    +0.175 C 
BRANCH   4   5
ATOM      5  C   UNL     1      18.522   2.550  24.392  0.00  0.00    +0.176 C 
ATOM      6  O   UNL     1      17.775   2.844  25.604  0.00  0.00    -0.332 OA
ATOM      7  C   UNL     1      17.779   1.789  26.623  0.00  0.00    +0.277 C 
ATOM      8  C   UNL     1      19.231   1.394  26.986  0.00  0.00    +0.110 C 
ATOM      9  C   UNL     1      20.074   1.103  25.727  0.00  0.00    +0.143 C 
ATOM     10  C   UNL     1      19.996   2.263  24.734  0.00  0.00    +0.133 C 
BRANCH  10  11
ATOM     11  N   UNL     1      20.732   1.938  23.503  0.00  0.00    -0.308 N 
ATOM     12  H   UNL     1      20.374   1.193  22.922  0.00  0.00    +0.149 HD
ATOM     13  C   UNL     1      21.843   2.562  23.102  0.00  0.00    +0.210 C 
ATOM     14  C   UNL     1      22.379   3.675  24.023  0.00  0.00    +0.109 C 
ATOM     15  O   UNL     1      22.431   2.278  22.058  0.00  0.00    -0.276 OA
ENDBRANCH  10  11
BRANCH   7  16
ATOM     16  C   UNL     1      17.015   0.545  26.124  0.00  0.00    +0.414 C 
ATOM     17  O   UNL     1      17.389  -0.582  26.446  0.00  0.00    -0.240 OA
ATOM     18  O   UNL     1      16.025   0.668  25.401  0.00  0.00    -0.240 OA
ENDBRANCH   7  16
BRANCH   7  19
ATOM     19  O   UNL     1      17.135   2.313  27.813  0.00  0.00    -0.343 OA
ATOM     20  C   UNL     1      17.931   3.257  28.574  0.00  0.00    +0.198 C 
ENDBRANCH   7  19
BRANCH   9  21
ATOM     21  O   UNL     1      21.437   0.892  26.098  0.00  0.00    -0.390 OA
ATOM     22  H   UNL     1      21.490   0.166  26.724  0.00  0.00    +0.210 HD
ENDBRANCH   9  21
ENDBRANCH   4   5
BRANCH   4  23
ATOM     23  O   UNL     1      18.410   4.972  24.101  0.00  0.00    -0.387 OA
ATOM     24  H   UNL     1      19.039   4.891  24.821  0.00  0.00    +0.210 HD
ENDBRANCH   4  23
ENDBRANCH   1   4
BRANCH   1  25
ATOM     25  C   UNL     1      17.137   2.915  21.346  0.00  0.00    +0.141 C 
BRANCH  25  28
ATOM     26  C   UNL     1      18.385   0.794  21.120  0.00  0.00    +0.401 C 
ATOM     27  O   UNL     1      19.367   1.319  20.590  0.00  0.00    -0.226 OA
ATOM     28  N   UNL     1      17.296   1.463  21.500  0.00  0.00    -0.279 N 
ATOM     29  H   UNL     1      16.538   0.943  21.919  0.00  0.00    +0.152 HD
BRANCH  26  30
ATOM     30  O   UNL     1      18.391  -0.618  21.348  0.00  0.00    -0.444 OA
BRANCH  30  31
ATOM     31  C   UNL     1      18.607  -0.877  22.738  0.00  0.00    +0.292 C 
BRANCH  31  33
ATOM     32  N   UNL     1      19.013  -3.249  23.312  0.00  0.00    -0.131 NA
ATOM     33  C   UNL     1      18.129  -2.228  23.087  0.00  0.00    +0.120 A 
ATOM     34  C   UNL     1      16.846  -2.703  23.239  0.00  0.00    +0.138 A 
ATOM     35  N   UNL     1      17.017  -4.015  23.573  0.00  0.00    -0.238 N 
ATOM     36  N   UNL     1      18.320  -4.343  23.594  0.00  0.00    -0.065 NA
BRANCH  35  37
ATOM     37  C   UNL     1      16.026  -5.036  23.856  0.00  0.00    +0.214 C 
ATOM     38  C   UNL     1      15.227  -4.689  25.108  0.00  0.00    +0.045 C 
BRANCH  37  39
ATOM     39  C   UNL     1      15.132  -5.288  22.659  0.00  0.00    +0.329 C 
ATOM     40  O   UNL     1      14.256  -4.523  22.277  0.00  0.00    -0.249 OA
BRANCH  39  41
ATOM     41  O   UNL     1      15.355  -6.470  22.032  0.00  0.00    -0.479 OA
ATOM     42  H   UNL     1      16.013  -6.450  21.308  0.00  0.00    +0.295 HD
ENDBRANCH  39  41
ENDBRANCH  37  39
ENDBRANCH  35  37
ENDBRANCH  31  33
ENDBRANCH  30  31
ENDBRANCH  26  30
ENDBRANCH  25  28
ENDBRANCH   1  25
TORSDOF 16
