REMARK VINA RESULT:    -5.675      1.849      3.166
REMARK INTER + INTRA:         -12.543
REMARK INTER:                 -11.160
REMARK INTRA:                  -1.383
REMARK UNBOUND:                -2.722
REMARK  Name = lig_assembled_3.pdb
REMARK  16 active torsions:
REMARK  status: ('A' for Active; 'I' for Inactive)
REMARK    1  A    between atoms: _2  and  _9
REMARK    2  A    between atoms: _4  and  _18
REMARK    3  A    between atoms: _6  and  _7
REMARK    4  A    between atoms: _6  and  _18
REMARK    5  A    between atoms: _14  and  _34
REMARK    6  A    between atoms: _16  and  _22
REMARK    7  A    between atoms: _17  and  _21
REMARK    8  A    between atoms: _21  and  _22
REMARK    9  A    between atoms: _24  and  _25
REMARK   10  A    between atoms: _26  and  _27
REMARK   11  A    between atoms: _28  and  _30
REMARK   12  A    between atoms: _30  and  _31
REMARK   13  A    between atoms: _30  and  _32
REMARK   14  A    between atoms: _32  and  _33
REMARK   15  A    between atoms: _32  and  _34
REMARK   16  A    between atoms: _35  and  _37
REMARK                            x       y       z     vdW  Elec       q    Type
REMARK                         _______ _______ _______ _____ _____    ______ ____
ROOT
ATOM      1  C   UNL     1       5.186   3.974  33.233  0.00  0.00    +0.163 C 
ENDROOT
BRANCH   1   2
ATOM      2  O   UNL     1       4.410   5.182  33.271  0.00  0.00    -0.388 OA
ATOM      3  H   UNL     1       3.532   4.989  33.610  0.00  0.00    +0.210 HD
ENDBRANCH   1   2
BRANCH   1   4
ATOM      4  C   UNL     1       4.333   2.822  32.712  0.00  0.00    +0.141 C 
BRANCH   4   7
ATOM      5  C   UNL     1       2.256   3.118  31.406  0.00  0.00    +0.401 C 
ATOM      6  O   UNL     1       1.520   2.711  32.308  0.00  0.00    -0.226 OA
ATOM      7  N   UNL     1       3.583   3.197  31.507  0.00  0.00    -0.279 N 
ATOM      8  H   UNL     1       4.103   3.535  30.709  0.00  0.00    +0.152 HD
BRANCH   5   9
ATOM      9  O   UNL     1       1.674   3.530  30.167  0.00  0.00    -0.444 OA
BRANCH   9  10
ATOM     10  C   UNL     1       2.128   2.673  29.117  0.00  0.00    +0.292 C 
BRANCH  10  12
ATOM     11  N   UNL     1       0.562   3.967  27.706  0.00  0.00    -0.131 NA
ATOM     12  C   UNL     1       1.670   3.178  27.808  0.00  0.00    +0.121 A 
ATOM     13  C   UNL     1       2.207   2.991  26.555  0.00  0.00    +0.143 A 
ATOM     14  N   UNL     1       1.399   3.715  25.709  0.00  0.00    -0.220 N 
ATOM     15  N   UNL     1       0.400   4.285  26.429  0.00  0.00    -0.060 NA
BRANCH  14  16
ATOM     16  C   UNL     1       1.525   3.909  24.309  0.00  0.00    +0.067 A 
ATOM     17  C   UNL     1       1.710   2.820  23.445  0.00  0.00    +0.028 A 
ATOM     18  C   UNL     1       1.863   3.034  22.073  0.00  0.00    +0.002 A 
ATOM     19  C   UNL     1       1.829   4.327  21.557  0.00  0.00    +0.000 A 
ATOM     20  C   UNL     1       1.637   5.413  22.408  0.00  0.00    +0.002 A 
ATOM     21  C   UNL     1       1.484   5.208  23.782  0.00  0.00    +0.028 A 
ENDBRANCH  14  16
ENDBRANCH  10  12
ENDBRANCH   9  10
ENDBRANCH   5   9
ENDBRANCH   4   7
ENDBRANCH   1   4
BRANCH   1  22
ATOM     22  C   UNL     1       5.726   3.623  34.630  0.00  0.00    +0.175 C 
BRANCH  22  23
ATOM     23  C   UNL     1       5.952   4.872  35.493  0.00  0.00    +0.176 C 
ATOM     24  O   UNL     1       7.340   4.873  35.926  0.00  0.00    -0.332 OA
ATOM     25  C   UNL     1       7.769   6.055  36.679  0.00  0.00    +0.277 C 
ATOM     26  C   UNL     1       6.842   6.286  37.897  0.00  0.00    +0.110 C 
ATOM     27  C   UNL     1       5.353   6.263  37.491  0.00  0.00    +0.143 C 
ATOM     28  C   UNL     1       5.017   4.992  36.711  0.00  0.00    +0.133 C 
BRANCH  28  29
ATOM     29  N   UNL     1       3.618   5.021  36.255  0.00  0.00    -0.308 N 
ATOM     30  H   UNL     1       3.339   5.772  35.639  0.00  0.00    +0.149 HD
ATOM     31  C   UNL     1       2.694   4.122  36.603  0.00  0.00    +0.210 C 
ATOM     32  C   UNL     1       3.145   3.006  37.564  0.00  0.00    +0.109 C 
ATOM     33  O   UNL     1       1.533   4.163  36.194  0.00  0.00    -0.276 OA
ENDBRANCH  28  29
BRANCH  25  34
ATOM     34  C   UNL     1       7.763   7.308  35.780  0.00  0.00    +0.414 C 
ATOM     35  O   UNL     1       7.865   8.429  36.278  0.00  0.00    -0.240 OA
ATOM     36  O   UNL     1       7.655   7.200  34.558  0.00  0.00    -0.240 OA
ENDBRANCH  25  34
BRANCH  27  37
ATOM     37  O   UNL     1       4.534   6.328  38.660  0.00  0.00    -0.390 OA
ATOM     38  H   UNL     1       3.645   6.038  38.445  0.00  0.00    +0.210 HD
ENDBRANCH  27  37
BRANCH  25  39
ATOM     39  O   UNL     1       9.114   5.812  37.168  0.00  0.00    -0.343 OA
ATOM     40  C   UNL     1       9.312   6.088  38.577  0.00  0.00    +0.198 C 
ENDBRANCH  25  39
ENDBRANCH  22  23
BRANCH  22  41
ATOM     41  O   UNL     1       6.951   2.871  34.514  0.00  0.00    -0.387 OA
ATOM     42  H   UNL     1       7.694   3.477  34.451  0.00  0.00    +0.210 HD
ENDBRANCH  22  41
ENDBRANCH   1  22
TORSDOF 14
