REMARK VINA RESULT:    -6.491      1.877      2.596
REMARK INTER + INTRA:         -13.426
REMARK INTER:                 -11.175
REMARK INTRA:                  -2.251
REMARK UNBOUND:                -1.813
REMARK  Name = lig_assembled_41.pdb
REMARK  18 active torsions:
REMARK  status: ('A' for Active; 'I' for Inactive)
REMARK    1  A    between atoms: _2  and  _9
REMARK    2  A    between atoms: _4  and  _21
REMARK    3  A    between atoms: _6  and  _7
REMARK    4  A    between atoms: _6  and  _21
REMARK    5  A    between atoms: _10  and  _11
REMARK    6  A    between atoms: _11  and  _12
REMARK    7  A    between atoms: _17  and  _37
REMARK    8  A    between atoms: _19  and  _25
REMARK    9  A    between atoms: _20  and  _24
REMARK   10  A    between atoms: _24  and  _25
REMARK   11  A    between atoms: _27  and  _28
REMARK   12  A    between atoms: _29  and  _30
REMARK   13  A    between atoms: _31  and  _33
REMARK   14  A    between atoms: _33  and  _34
REMARK   15  A    between atoms: _33  and  _35
REMARK   16  A    between atoms: _35  and  _36
REMARK   17  A    between atoms: _35  and  _37
REMARK   18  A    between atoms: _38  and  _40
REMARK                            x       y       z     vdW  Elec       q    Type
REMARK                         _______ _______ _______ _____ _____    ______ ____
ROOT
ATOM      1  C   UNL     1       5.512   3.847  33.104  0.00  0.00    +0.163 C 
ENDROOT
BRANCH   1   2
ATOM      2  O   UNL     1       4.919   5.046  33.630  0.00  0.00    -0.388 OA
ATOM      3  H   UNL     1       4.163   5.293  33.092  0.00  0.00    +0.210 HD
ENDBRANCH   1   2
BRANCH   1   4
ATOM      4  C   UNL     1       4.727   2.628  33.576  0.00  0.00    +0.141 C 
BRANCH   4   7
ATOM      5  C   UNL     1       2.336   3.055  33.123  0.00  0.00    +0.401 C 
ATOM      6  O   UNL     1       2.195   3.820  34.080  0.00  0.00    -0.226 OA
ATOM      7  N   UNL     1       3.484   2.449  32.816  0.00  0.00    -0.279 N 
ATOM      8  H   UNL     1       3.498   1.831  32.017  0.00  0.00    +0.152 HD
BRANCH   5   9
ATOM      9  O   UNL     1       1.215   2.785  32.278  0.00  0.00    -0.444 OA
BRANCH   9  10
ATOM     10  C   UNL     1       0.807   3.990  31.624  0.00  0.00    +0.292 C 
BRANCH  10  12
ATOM     11  N   UNL     1      -0.284   4.228  29.425  0.00  0.00    -0.131 NA
ATOM     12  C   UNL     1       0.777   3.797  30.163  0.00  0.00    +0.121 A 
ATOM     13  C   UNL     1       1.708   3.228  29.322  0.00  0.00    +0.143 A 
ATOM     14  N   UNL     1       1.121   3.237  28.078  0.00  0.00    -0.219 N 
ATOM     15  N   UNL     1      -0.046   3.935  28.156  0.00  0.00    -0.060 NA
BRANCH  14  16
ATOM     16  C   UNL     1       1.594   2.757  26.823  0.00  0.00    +0.077 A 
ATOM     17  C   UNL     1       1.922   1.413  26.548  0.00  0.00    +0.043 A 
ATOM     18  C   UNL     1       2.428   1.085  25.272  0.00  0.00    +0.013 A 
ATOM     19  C   UNL     1       2.614   2.062  24.292  0.00  0.00    +0.001 A 
ATOM     20  C   UNL     1       2.268   3.379  24.554  0.00  0.00    +0.002 A 
ATOM     21  C   UNL     1       1.752   3.722  25.802  0.00  0.00    +0.028 A 
BRANCH  17  22
ATOM     22  C   UNL     1       1.575   0.270  27.447  0.00  0.00    +0.162 C 
ATOM     23  O   UNL     1       0.432  -0.183  27.431  0.00  0.00    -0.292 OA
ATOM     24  C   UNL     1       2.619  -0.324  28.362  0.00  0.00    +0.091 C 
ENDBRANCH  17  22
ENDBRANCH  14  16
ENDBRANCH  10  12
ENDBRANCH   9  10
ENDBRANCH   5   9
ENDBRANCH   4   7
ENDBRANCH   1   4
BRANCH   1  25
ATOM     25  C   UNL     1       6.979   3.718  33.548  0.00  0.00    +0.175 C 
BRANCH  25  26
ATOM     26  C   UNL     1       7.208   4.282  34.958  0.00  0.00    +0.176 C 
ATOM     27  O   UNL     1       7.378   5.721  34.842  0.00  0.00    -0.332 OA
ATOM     28  C   UNL     1       7.504   6.449  36.109  0.00  0.00    +0.277 C 
ATOM     29  C   UNL     1       8.649   5.853  36.964  0.00  0.00    +0.110 C 
ATOM     30  C   UNL     1       8.528   4.320  37.089  0.00  0.00    +0.143 C 
ATOM     31  C   UNL     1       8.400   3.665  35.713  0.00  0.00    +0.133 C 
BRANCH  31  32
ATOM     32  N   UNL     1       8.198   2.214  35.849  0.00  0.00    -0.308 N 
ATOM     33  H   UNL     1       7.341   1.896  36.279  0.00  0.00    +0.149 HD
ATOM     34  C   UNL     1       9.074   1.291  35.443  0.00  0.00    +0.210 C 
ATOM     35  C   UNL     1      10.382   1.809  34.817  0.00  0.00    +0.109 C 
ATOM     36  O   UNL     1       8.872   0.082  35.557  0.00  0.00    -0.276 OA
ENDBRANCH  31  32
BRANCH  28  37
ATOM     37  C   UNL     1       6.184   6.393  36.905  0.00  0.00    +0.414 C 
ATOM     38  O   UNL     1       5.110   6.268  36.317  0.00  0.00    -0.240 OA
ATOM     39  O   UNL     1       6.192   6.472  38.134  0.00  0.00    -0.240 OA
ENDBRANCH  28  37
BRANCH  30  40
ATOM     40  O   UNL     1       9.680   3.798  37.753  0.00  0.00    -0.390 OA
ATOM     41  H   UNL     1       9.787   2.871  37.528  0.00  0.00    +0.210 HD
ENDBRANCH  30  40
BRANCH  28  42
ATOM     42  O   UNL     1       7.832   7.829  35.803  0.00  0.00    -0.343 OA
ATOM     43  C   UNL     1       7.642   8.210  34.417  0.00  0.00    +0.198 C 
ENDBRANCH  28  42
ENDBRANCH  25  26
BRANCH  25  44
ATOM     44  O   UNL     1       7.844   4.379  32.603  0.00  0.00    -0.387 OA
ATOM     45  H   UNL     1       8.760   4.222  32.843  0.00  0.00    +0.210 HD
ENDBRANCH  25  44
ENDBRANCH   1  25
TORSDOF 15
