REMARK VINA RESULT:    -6.119     14.172     18.610
REMARK INTER + INTRA:         -13.863
REMARK INTER:                 -11.918
REMARK INTRA:                  -1.945
REMARK UNBOUND:                -2.378
REMARK  Name = lig_assembled_68.pdb
REMARK  19 active torsions:
REMARK  status: ('A' for Active; 'I' for Inactive)
REMARK    1  A    between atoms: _2  and  _9
REMARK    2  A    between atoms: _4  and  _21
REMARK    3  A    between atoms: _6  and  _7
REMARK    4  A    between atoms: _6  and  _21
REMARK    5  A    between atoms: _9  and  _10
REMARK    6  A    between atoms: _10  and  _11
REMARK    7  A    between atoms: _10  and  _16
REMARK    8  A    between atoms: _17  and  _37
REMARK    9  A    between atoms: _19  and  _25
REMARK   10  A    between atoms: _20  and  _24
REMARK   11  A    between atoms: _24  and  _25
REMARK   12  A    between atoms: _27  and  _28
REMARK   13  A    between atoms: _29  and  _30
REMARK   14  A    between atoms: _31  and  _33
REMARK   15  A    between atoms: _33  and  _34
REMARK   16  A    between atoms: _33  and  _35
REMARK   17  A    between atoms: _35  and  _36
REMARK   18  A    between atoms: _35  and  _37
REMARK   19  A    between atoms: _38  and  _40
REMARK                            x       y       z     vdW  Elec       q    Type
REMARK                         _______ _______ _______ _____ _____    ______ ____
ROOT
ATOM      1  C   UNL     1      17.196   2.534  26.209  0.00  0.00    +0.163 C 
ENDROOT
BRANCH   1   2
ATOM      2  O   UNL     1      18.393   3.060  25.613  0.00  0.00    -0.388 OA
ATOM      3  H   UNL     1      18.166   3.555  24.822  0.00  0.00    +0.210 HD
ENDBRANCH   1   2
BRANCH   1   4
ATOM      4  C   UNL     1      17.046   1.033  25.907  0.00  0.00    +0.175 C 
BRANCH   4   5
ATOM      5  C   UNL     1      17.777   0.627  24.619  0.00  0.00    +0.176 C 
ATOM      6  O   UNL     1      17.415   1.578  23.580  0.00  0.00    -0.332 OA
ATOM      7  C   UNL     1      18.105   1.409  22.298  0.00  0.00    +0.277 C 
ATOM      8  C   UNL     1      17.922  -0.035  21.771  0.00  0.00    +0.110 C 
ATOM      9  C   UNL     1      18.265  -1.083  22.851  0.00  0.00    +0.143 C 
ATOM     10  C   UNL     1      17.495  -0.811  24.143  0.00  0.00    +0.133 C 
BRANCH  10  11
ATOM     11  N   UNL     1      17.894  -1.763  25.192  0.00  0.00    -0.308 N 
ATOM     12  H   UNL     1      18.835  -1.696  25.556  0.00  0.00    +0.149 HD
ATOM     13  C   UNL     1      17.096  -2.708  25.694  0.00  0.00    +0.210 C 
ATOM     14  C   UNL     1      15.678  -2.801  25.101  0.00  0.00    +0.109 C 
ATOM     15  O   UNL     1      17.454  -3.482  26.583  0.00  0.00    -0.276 OA
ENDBRANCH  10  11
BRANCH   7  16
ATOM     16  C   UNL     1      19.609   1.720  22.441  0.00  0.00    +0.414 C 
ATOM     17  O   UNL     1      20.416   1.268  21.629  0.00  0.00    -0.240 OA
ATOM     18  O   UNL     1      20.016   2.422  23.368  0.00  0.00    -0.240 OA
ENDBRANCH   7  16
BRANCH   7  19
ATOM     19  O   UNL     1      17.506   2.323  21.343  0.00  0.00    -0.343 OA
ATOM     20  C   UNL     1      17.085   1.716  20.095  0.00  0.00    +0.198 C 
ENDBRANCH   7  19
BRANCH   9  21
ATOM     21  O   UNL     1      17.940  -2.390  22.375  0.00  0.00    -0.390 OA
ATOM     22  H   UNL     1      17.675  -2.943  23.114  0.00  0.00    +0.210 HD
ENDBRANCH   9  21
ENDBRANCH   4   5
BRANCH   4  23
ATOM     23  O   UNL     1      15.650   0.682  25.818  0.00  0.00    -0.387 OA
ATOM     24  H   UNL     1      15.349   0.792  24.913  0.00  0.00    +0.210 HD
ENDBRANCH   4  23
ENDBRANCH   1   4
BRANCH   1  25
ATOM     25  C   UNL     1      17.227   2.748  27.719  0.00  0.00    +0.141 C 
BRANCH  25  28
ATOM     26  C   UNL     1      18.648   4.164  29.162  0.00  0.00    +0.401 C 
ATOM     27  O   UNL     1      18.873   3.269  29.980  0.00  0.00    -0.226 OA
ATOM     28  N   UNL     1      17.885   4.010  28.079  0.00  0.00    -0.279 N 
ATOM     29  H   UNL     1      17.753   4.807  27.472  0.00  0.00    +0.152 HD
BRANCH  26  30
ATOM     30  O   UNL     1      19.228   5.455  29.369  0.00  0.00    -0.444 OA
BRANCH  30  31
ATOM     31  C   UNL     1      19.368   5.696  30.771  0.00  0.00    +0.292 C 
BRANCH  31  33
ATOM     32  N   UNL     1      18.329   7.918  30.409  0.00  0.00    -0.131 NA
ATOM     33  C   UNL     1      18.496   6.805  31.194  0.00  0.00    +0.120 A 
ATOM     34  C   UNL     1      17.753   6.951  32.343  0.00  0.00    +0.137 A 
ATOM     35  N   UNL     1      17.151   8.166  32.193  0.00  0.00    -0.249 N 
ATOM     36  N   UNL     1      17.507   8.750  31.036  0.00  0.00    -0.065 NA
BRANCH  35  37
ATOM     37  C   UNL     1      16.317   8.865  33.148  0.00  0.00    +0.181 C 
BRANCH  37  38
ATOM     38  C   UNL     1      16.245  10.371  32.860  0.00  0.00    +0.166 C 
BRANCH  38  39
ATOM     39  C   UNL     1      16.919  11.243  33.909  0.00  0.00    -0.017 A 
ATOM     40  C   UNL     1      17.759  12.289  33.485  0.00  0.00    +0.006 A 
ATOM     41  C   UNL     1      18.377  13.130  34.413  0.00  0.00    +0.000 A 
ATOM     42  C   UNL     1      18.162  12.944  35.775  0.00  0.00    +0.000 A 
ATOM     43  C   UNL     1      17.321  11.927  36.212  0.00  0.00    +0.000 A 
ATOM     44  C   UNL     1      16.699  11.084  35.286  0.00  0.00    +0.006 A 
ENDBRANCH  38  39
BRANCH  38  45
ATOM     45  O   UNL     1      14.870  10.764  32.776  0.00  0.00    -0.385 OA
ATOM     46  H   UNL     1      14.810  11.707  33.000  0.00  0.00    +0.210 HD
ENDBRANCH  38  45
ENDBRANCH  37  38
ENDBRANCH  35  37
ENDBRANCH  31  33
ENDBRANCH  30  31
ENDBRANCH  26  30
ENDBRANCH  25  28
ENDBRANCH   1  25
TORSDOF 17
