REMARK VINA RESULT:    -5.246      2.623      5.876
REMARK INTER + INTRA:         -12.210
REMARK INTER:                 -10.415
REMARK INTRA:                  -1.796
REMARK UNBOUND:                -2.671
REMARK  Name = lig_assembled_1.pdb
REMARK  18 active torsions:
REMARK  status: ('A' for Active; 'I' for Inactive)
REMARK    1  A    between atoms: _2  and  _9
REMARK    2  A    between atoms: _4  and  _15
REMARK    3  A    between atoms: _5  and  _9
REMARK    4  A    between atoms: _5  and  _10
REMARK    5  A    between atoms: _6  and  _7
REMARK    6  A    between atoms: _6  and  _15
REMARK    7  A    between atoms: _11  and  _31
REMARK    8  A    between atoms: _13  and  _19
REMARK    9  A    between atoms: _14  and  _18
REMARK   10  A    between atoms: _18  and  _19
REMARK   11  A    between atoms: _21  and  _22
REMARK   12  A    between atoms: _23  and  _24
REMARK   13  A    between atoms: _25  and  _27
REMARK   14  A    between atoms: _27  and  _28
REMARK   15  A    between atoms: _27  and  _29
REMARK   16  A    between atoms: _29  and  _30
REMARK   17  A    between atoms: _29  and  _31
REMARK   18  A    between atoms: _32  and  _34
REMARK                            x       y       z     vdW  Elec       q    Type
REMARK                         _______ _______ _______ _____ _____    ______ ____
ROOT
ATOM      1  C   UNL     1      16.423  -1.108  25.344  0.00  0.00    +0.175 C 
ENDROOT
BRANCH   1   2
ATOM      2  C   UNL     1      17.463  -0.620  24.326  0.00  0.00    +0.176 C 
ATOM      3  O   UNL     1      16.859   0.448  23.545  0.00  0.00    -0.332 OA
ATOM      4  C   UNL     1      17.746   1.113  22.586  0.00  0.00    +0.277 C 
ATOM      5  C   UNL     1      18.393   0.074  21.638  0.00  0.00    +0.110 C 
ATOM      6  C   UNL     1      19.022  -1.098  22.421  0.00  0.00    +0.143 C 
ATOM      7  C   UNL     1      18.013  -1.714  23.391  0.00  0.00    +0.133 C 
BRANCH   7   8
ATOM      8  N   UNL     1      18.649  -2.771  24.193  0.00  0.00    -0.308 N 
ATOM      9  H   UNL     1      19.511  -2.548  24.669  0.00  0.00    +0.149 HD
ATOM     10  C   UNL     1      18.160  -4.007  24.332  0.00  0.00    +0.210 C 
ATOM     11  C   UNL     1      16.858  -4.323  23.573  0.00  0.00    +0.109 C 
ATOM     12  O   UNL     1      18.707  -4.868  25.023  0.00  0.00    -0.276 OA
ENDBRANCH   7   8
BRANCH   4  13
ATOM     13  C   UNL     1      18.851   1.901  23.319  0.00  0.00    +0.414 C 
ATOM     14  O   UNL     1      18.587   2.536  24.339  0.00  0.00    -0.240 OA
ATOM     15  O   UNL     1      20.006   1.902  22.890  0.00  0.00    -0.240 OA
ENDBRANCH   4  13
BRANCH   4  16
ATOM     16  O   UNL     1      16.944   2.022  21.789  0.00  0.00    -0.343 OA
ATOM     17  C   UNL     1      17.058   1.842  20.355  0.00  0.00    +0.198 C 
ENDBRANCH   4  16
BRANCH   6  18
ATOM     18  O   UNL     1      19.471  -2.101  21.509  0.00  0.00    -0.390 OA
ATOM     19  H   UNL     1      19.170  -1.887  20.623  0.00  0.00    +0.210 HD
ENDBRANCH   6  18
ENDBRANCH   1   2
BRANCH   1  20
ATOM     20  O   UNL     1      15.176  -1.396  24.681  0.00  0.00    -0.387 OA
ATOM     21  H   UNL     1      14.556  -1.771  25.311  0.00  0.00    +0.210 HD
ENDBRANCH   1  20
BRANCH   1  22
ATOM     22  C   UNL     1      16.198  -0.091  26.476  0.00  0.00    +0.163 C 
BRANCH  22  23
ATOM     23  O   UNL     1      15.247   0.912  26.083  0.00  0.00    -0.388 OA
ATOM     24  H   UNL     1      15.711   1.668  25.715  0.00  0.00    +0.210 HD
ENDBRANCH  22  23
BRANCH  22  25
ATOM     25  C   UNL     1      17.526   0.565  26.842  0.00  0.00    +0.141 C 
BRANCH  25  28
ATOM     26  C   UNL     1      18.103   2.762  27.815  0.00  0.00    +0.401 C 
ATOM     27  O   UNL     1      18.913   2.298  28.620  0.00  0.00    -0.226 OA
ATOM     28  N   UNL     1      17.405   2.024  26.951  0.00  0.00    -0.279 N 
ATOM     29  H   UNL     1      16.756   2.495  26.336  0.00  0.00    +0.152 HD
BRANCH  26  30
ATOM     30  O   UNL     1      17.878   4.174  27.791  0.00  0.00    -0.444 OA
BRANCH  30  31
ATOM     31  C   UNL     1      19.076   4.841  27.386  0.00  0.00    +0.292 C 
BRANCH  31  33
ATOM     32  N   UNL     1      19.027   6.508  29.217  0.00  0.00    -0.131 NA
ATOM     33  C   UNL     1      19.081   6.232  27.877  0.00  0.00    +0.120 A 
ATOM     34  C   UNL     1      19.133   7.416  27.175  0.00  0.00    +0.137 A 
ATOM     35  N   UNL     1      19.101   8.373  28.145  0.00  0.00    -0.249 N 
ATOM     36  N   UNL     1      19.033   7.826  29.370  0.00  0.00    -0.065 NA
BRANCH  35  37
ATOM     37  C   UNL     1      19.141   9.809  27.980  0.00  0.00    +0.173 C 
BRANCH  37  38
ATOM     38  C   UNL     1      19.802  10.232  26.674  0.00  0.00    +0.179 C 
BRANCH  38  39
ATOM     39  O   UNL     1      18.961  11.112  25.931  0.00  0.00    -0.393 OA
ATOM     40  H   UNL     1      19.535  11.586  25.298  0.00  0.00    +0.209 HD
ENDBRANCH  38  39
ENDBRANCH  37  38
ENDBRANCH  35  37
ENDBRANCH  31  33
ENDBRANCH  30  31
ENDBRANCH  26  30
ENDBRANCH  25  28
ENDBRANCH  22  25
ENDBRANCH   1  22
TORSDOF 16
