REMARK VINA RESULT:    -6.384      5.458      6.530
REMARK INTER + INTRA:         -12.902
REMARK INTER:                 -10.620
REMARK INTRA:                  -2.282
REMARK UNBOUND:                -1.853
REMARK  Name = lig_assembled_86.pdb
REMARK  17 active torsions:
REMARK  status: ('A' for Active; 'I' for Inactive)
REMARK    1  A    between atoms: _2  and  _10
REMARK    2  A    between atoms: _3  and  _13
REMARK    3  A    between atoms: _5  and  _21
REMARK    4  A    between atoms: _7  and  _8
REMARK    5  A    between atoms: _7  and  _21
REMARK    6  A    between atoms: _17  and  _37
REMARK    7  A    between atoms: _19  and  _25
REMARK    8  A    between atoms: _20  and  _24
REMARK    9  A    between atoms: _24  and  _25
REMARK   10  A    between atoms: _27  and  _28
REMARK   11  A    between atoms: _29  and  _30
REMARK   12  A    between atoms: _31  and  _33
REMARK   13  A    between atoms: _33  and  _34
REMARK   14  A    between atoms: _33  and  _35
REMARK   15  A    between atoms: _35  and  _36
REMARK   16  A    between atoms: _35  and  _37
REMARK   17  A    between atoms: _38  and  _40
REMARK                            x       y       z     vdW  Elec       q    Type
REMARK                         _______ _______ _______ _____ _____    ______ ____
ROOT
ATOM      1  C   UNL     1       5.157   2.876  32.349  0.00  0.00    +0.163 C 
ENDROOT
BRANCH   1   2
ATOM      2  O   UNL     1       4.352   3.963  32.834  0.00  0.00    -0.388 OA
ATOM      3  H   UNL     1       3.704   3.628  33.457  0.00  0.00    +0.210 HD
ENDBRANCH   1   2
BRANCH   1   4
ATOM      4  C   UNL     1       4.541   1.545  32.764  0.00  0.00    +0.141 C 
BRANCH   4   7
ATOM      5  C   UNL     1       5.134  -0.854  32.750  0.00  0.00    +0.401 C 
ATOM      6  O   UNL     1       4.037  -1.224  33.174  0.00  0.00    -0.226 OA
ATOM      7  N   UNL     1       5.458   0.422  32.535  0.00  0.00    -0.279 N 
ATOM      8  H   UNL     1       6.388   0.627  32.196  0.00  0.00    +0.152 HD
BRANCH   5   9
ATOM      9  O   UNL     1       6.137  -1.834  32.470  0.00  0.00    -0.444 OA
BRANCH   9  10
ATOM     10  C   UNL     1       7.125  -1.272  31.601  0.00  0.00    +0.292 C 
BRANCH  10  12
ATOM     11  N   UNL     1       5.818  -1.093  29.501  0.00  0.00    -0.131 NA
ATOM     12  C   UNL     1       6.851  -1.656  30.203  0.00  0.00    +0.120 A 
ATOM     13  C   UNL     1       7.508  -2.550  29.391  0.00  0.00    +0.137 A 
ATOM     14  N   UNL     1       6.853  -2.459  28.201  0.00  0.00    -0.248 N 
ATOM     15  N   UNL     1       5.818  -1.606  28.277  0.00  0.00    -0.065 NA
BRANCH  14  16
ATOM     16  C   UNL     1       7.175  -3.151  26.961  0.00  0.00    +0.112 C 
ATOM     17  C   UNL     1       6.010  -4.041  26.482  0.00  0.00    +0.045 C 
ATOM     18  C   UNL     1       5.679  -3.911  24.992  0.00  0.00    +0.059 C 
ATOM     19  C   UNL     1       4.906  -2.619  24.708  0.00  0.00    +0.020 C 
ATOM     20  C   UNL     1       5.981  -1.606  24.318  0.00  0.00    +0.020 C 
ATOM     21  C   UNL     1       7.300  -2.364  24.486  0.00  0.00    +0.059 C 
ATOM     22  N   UNL     1       6.868  -3.724  24.162  0.00  0.00    -0.299 NA
ATOM     23  C   UNL     1       7.884  -4.757  24.231  0.00  0.00    +0.105 C 
ATOM     24  C   UNL     1       7.843  -2.229  25.915  0.00  0.00    +0.045 C 
ENDBRANCH  14  16
ENDBRANCH  10  12
ENDBRANCH   9  10
ENDBRANCH   5   9
ENDBRANCH   4   7
ENDBRANCH   1   4
BRANCH   1  25
ATOM     25  C   UNL     1       6.593   2.970  32.893  0.00  0.00    +0.175 C 
BRANCH  25  26
ATOM     26  C   UNL     1       6.646   3.648  34.270  0.00  0.00    +0.176 C 
ATOM     27  O   UNL     1       7.086   5.020  34.076  0.00  0.00    -0.332 OA
ATOM     28  C   UNL     1       7.095   5.859  35.278  0.00  0.00    +0.277 C 
ATOM     29  C   UNL     1       7.936   5.193  36.396  0.00  0.00    +0.110 C 
ATOM     30  C   UNL     1       7.526   3.722  36.617  0.00  0.00    +0.143 C 
ATOM     31  C   UNL     1       7.548   2.943  35.301  0.00  0.00    +0.133 C 
BRANCH  31  32
ATOM     32  N   UNL     1       7.072   1.566  35.509  0.00  0.00    -0.308 N 
ATOM     33  H   UNL     1       6.111   1.437  35.794  0.00  0.00    +0.149 HD
ATOM     34  C   UNL     1       7.827   0.476  35.347  0.00  0.00    +0.210 C 
ATOM     35  C   UNL     1       9.294   0.708  34.939  0.00  0.00    +0.109 C 
ATOM     36  O   UNL     1       7.398  -0.666  35.515  0.00  0.00    -0.276 OA
ENDBRANCH  31  32
BRANCH  28  37
ATOM     37  C   UNL     1       5.659   6.100  35.788  0.00  0.00    +0.414 C 
ATOM     38  O   UNL     1       5.446   6.261  36.989  0.00  0.00    -0.240 OA
ATOM     39  O   UNL     1       4.714   6.135  34.999  0.00  0.00    -0.240 OA
ENDBRANCH  28  37
BRANCH  30  40
ATOM     40  O   UNL     1       8.422   3.106  37.543  0.00  0.00    -0.390 OA
ATOM     41  H   UNL     1       7.993   2.349  37.948  0.00  0.00    +0.210 HD
ENDBRANCH  30  40
BRANCH  28  42
ATOM     42  O   UNL     1       7.712   7.127  34.936  0.00  0.00    -0.343 OA
ATOM     43  C   UNL     1       8.352   7.814  36.041  0.00  0.00    +0.198 C 
ENDBRANCH  28  42
ENDBRANCH  25  26
BRANCH  25  44
ATOM     44  O   UNL     1       7.434   3.676  31.959  0.00  0.00    -0.387 OA
ATOM     45  H   UNL     1       6.910   4.329  31.487  0.00  0.00    +0.210 HD
ENDBRANCH  25  44
ENDBRANCH   1  25
TORSDOF 14
