REMARK VINA RESULT:    -7.363      1.569      1.981
REMARK INTER + INTRA:         -17.293
REMARK INTER:                 -14.013
REMARK INTRA:                  -3.280
REMARK UNBOUND:                -3.474
REMARK  Name = lig_assembled_34.pdb
REMARK  19 active torsions:
REMARK  status: ('A' for Active; 'I' for Inactive)
REMARK    1  A    between atoms: _2  and  _9
REMARK    2  A    between atoms: _4  and  _37
REMARK    3  A    between atoms: _6  and  _7
REMARK    4  A    between atoms: _6  and  _37
REMARK    5  A    between atoms: _11  and  _12
REMARK    6  A    between atoms: _13  and  _14
REMARK    7  A    between atoms: _18  and  _31
REMARK    8  A    between atoms: _33  and  _53
REMARK    9  A    between atoms: _35  and  _41
REMARK   10  A    between atoms: _36  and  _40
REMARK   11  A    between atoms: _40  and  _41
REMARK   12  A    between atoms: _43  and  _44
REMARK   13  A    between atoms: _45  and  _46
REMARK   14  A    between atoms: _47  and  _49
REMARK   15  A    between atoms: _49  and  _50
REMARK   16  A    between atoms: _49  and  _51
REMARK   17  A    between atoms: _51  and  _52
REMARK   18  A    between atoms: _51  and  _53
REMARK   19  A    between atoms: _54  and  _56
REMARK                            x       y       z     vdW  Elec       q    Type
REMARK                         _______ _______ _______ _____ _____    ______ ____
ROOT
ATOM      1  N   UNL     1       2.909  25.517  16.101  0.00  0.00    -0.131 NA
ATOM      2  C   UNL     1       3.642  24.448  15.668  0.00  0.00    +0.121 A 
ATOM      3  C   UNL     1       3.256  23.332  16.367  0.00  0.00    +0.143 A 
ATOM      4  N   UNL     1       2.251  23.754  17.211  0.00  0.00    -0.220 N 
ATOM      5  N   UNL     1       2.076  25.093  17.049  0.00  0.00    -0.060 NA
ENDROOT
BRANCH   4   6
ATOM      6  C   UNL     1       1.459  22.967  18.089  0.00  0.00    +0.068 A 
ATOM      7  C   UNL     1       0.219  22.485  17.658  0.00  0.00    +0.038 A 
ATOM      8  C   UNL     1      -0.678  21.805  18.517  0.00  0.00    +0.007 A 
ATOM      9  C   UNL     1      -0.272  21.539  19.841  0.00  0.00    -0.008 A 
ATOM     10  C   UNL     1       1.006  21.987  20.256  0.00  0.00    +0.011 A 
ATOM     11  C   UNL     1       1.858  22.708  19.400  0.00  0.00    +0.028 A 
BRANCH   9  12
ATOM     12  C   UNL     1      -1.128  20.881  20.880  0.00  0.00    +0.004 A 
ATOM     13  C   UNL     1      -2.017  21.578  21.643  0.00  0.00    +0.026 A 
ATOM     14  C   UNL     1      -2.166  23.036  21.554  0.00  0.00    +0.016 A 
ATOM     15  C   UNL     1      -2.905  23.721  22.439  0.00  0.00    +0.051 A 
ATOM     16  C   UNL     1      -3.630  23.016  23.524  0.00  0.00    +0.183 A 
ATOM     17  O   UNL     1      -4.257  23.636  24.379  0.00  0.00    -0.288 OA
ATOM     18  C   UNL     1      -3.631  21.540  23.495  0.00  0.00    +0.097 A 
ATOM     19  C   UNL     1      -2.902  20.875  22.591  0.00  0.00    +0.140 A 
ATOM     20  O   UNL     1      -3.046  19.497  22.514  0.00  0.00    -0.455 OA
ATOM     21  C   UNL     1      -2.134  18.784  21.782  0.00  0.00    +0.140 A 
ATOM     22  C   UNL     1      -2.268  17.395  21.814  0.00  0.00    +0.092 A 
ATOM     23  C   UNL     1      -1.345  16.608  21.142  0.00  0.00    +0.120 A 
ATOM     24  C   UNL     1      -0.251  17.189  20.510  0.00  0.00    +0.046 A 
ATOM     25  C   UNL     1      -0.137  18.582  20.477  0.00  0.00    +0.016 A 
ATOM     26  C   UNL     1      -1.115  19.401  21.061  0.00  0.00    +0.026 A 
BRANCH  23  27
ATOM     27  O   UNL     1      -1.547  15.260  21.111  0.00  0.00    -0.507 OA
ATOM     28  H   UNL     1      -1.840  15.028  20.214  0.00  0.00    +0.292 HD
ENDBRANCH  23  27
ENDBRANCH   9  12
BRANCH   8  29
ATOM     29  C   UNL     1      -2.048  21.487  17.951  0.00  0.00    +0.072 C 
ATOM     30  O   UNL     1      -2.099  20.525  17.118  0.00  0.00    -0.545 OA
ATOM     31  O   UNL     1      -3.020  22.231  18.275  0.00  0.00    -0.545 OA
ENDBRANCH   8  29
ENDBRANCH   4   6
BRANCH   2  32
ATOM     32  C   UNL     1       4.665  24.566  14.610  0.00  0.00    +0.292 C 
BRANCH  32  33
ATOM     33  O   UNL     1       4.164  24.075  13.364  0.00  0.00    -0.444 OA
BRANCH  33  34
ATOM     34  C   UNL     1       4.778  22.819  13.064  0.00  0.00    +0.401 C 
ATOM     35  O   UNL     1       5.983  22.788  12.805  0.00  0.00    -0.226 OA
ATOM     36  N   UNL     1       3.993  21.741  13.088  0.00  0.00    -0.279 N 
ATOM     37  H   UNL     1       3.018  21.867  13.322  0.00  0.00    +0.152 HD
BRANCH  36  38
ATOM     38  C   UNL     1       4.465  20.383  12.795  0.00  0.00    +0.141 C 
BRANCH  38  39
ATOM     39  C   UNL     1       3.597  19.322  13.464  0.00  0.00    +0.163 C 
BRANCH  39  40
ATOM     40  O   UNL     1       2.370  19.910  13.924  0.00  0.00    -0.388 OA
ATOM     41  H   UNL     1       2.563  20.585  14.579  0.00  0.00    +0.210 HD
ENDBRANCH  39  40
BRANCH  39  42
ATOM     42  C   UNL     1       3.321  18.182  12.468  0.00  0.00    +0.175 C 
BRANCH  42  43
ATOM     43  C   UNL     1       3.058  18.705  11.049  0.00  0.00    +0.176 C 
ATOM     44  O   UNL     1       2.070  19.768  11.140  0.00  0.00    -0.332 OA
ATOM     45  C   UNL     1       1.769  20.463   9.885  0.00  0.00    +0.277 C 
ATOM     46  C   UNL     1       1.348  19.450   8.793  0.00  0.00    +0.110 C 
ATOM     47  C   UNL     1       2.352  18.284   8.680  0.00  0.00    +0.143 C 
ATOM     48  C   UNL     1       2.594  17.635  10.043  0.00  0.00    +0.133 C 
BRANCH  48  49
ATOM     49  N   UNL     1       3.617  16.582   9.939  0.00  0.00    -0.308 N 
ATOM     50  H   UNL     1       4.564  16.865   9.729  0.00  0.00    +0.149 HD
ATOM     51  C   UNL     1       3.376  15.279  10.102  0.00  0.00    +0.210 C 
ATOM     52  C   UNL     1       1.917  14.879  10.394  0.00  0.00    +0.109 C 
ATOM     53  O   UNL     1       4.255  14.421  10.023  0.00  0.00    -0.276 OA
ENDBRANCH  48  49
BRANCH  45  54
ATOM     54  C   UNL     1       2.992  21.268   9.399  0.00  0.00    +0.414 C 
ATOM     55  O   UNL     1       3.559  20.961   8.351  0.00  0.00    -0.240 OA
ATOM     56  O   UNL     1       3.412  22.223  10.053  0.00  0.00    -0.240 OA
ENDBRANCH  45  54
BRANCH  47  57
ATOM     57  O   UNL     1       1.850  17.301   7.773  0.00  0.00    -0.390 OA
ATOM     58  H   UNL     1       2.369  17.315   6.966  0.00  0.00    +0.210 HD
ENDBRANCH  47  57
BRANCH  45  59
ATOM     59  O   UNL     1       0.657  21.364  10.127  0.00  0.00    -0.343 OA
ATOM     60  C   UNL     1       0.202  21.420  11.502  0.00  0.00    +0.198 C 
ENDBRANCH  45  59
ENDBRANCH  42  43
BRANCH  42  61
ATOM     61  O   UNL     1       2.207  17.387  12.920  0.00  0.00    -0.387 OA
ATOM     62  H   UNL     1       2.194  16.553  12.444  0.00  0.00    +0.210 HD
ENDBRANCH  42  61
ENDBRANCH  39  42
ENDBRANCH  38  39
ENDBRANCH  36  38
ENDBRANCH  33  34
ENDBRANCH  32  33
ENDBRANCH   2  32
TORSDOF 17
