REMARK VINA RESULT:    -6.648      1.861      2.329
REMARK INTER + INTRA:         -15.344
REMARK INTER:                 -12.849
REMARK INTRA:                  -2.495
REMARK UNBOUND:                -2.090
REMARK  Name = lig_assembled_76.pdb
REMARK  21 active torsions:
REMARK  status: ('A' for Active; 'I' for Inactive)
REMARK    1  A    between atoms: _2  and  _9
REMARK    2  A    between atoms: _4  and  _23
REMARK    3  A    between atoms: _6  and  _7
REMARK    4  A    between atoms: _6  and  _23
REMARK    5  A    between atoms: _9  and  _10
REMARK    6  A    between atoms: _10  and  _11
REMARK    7  A    between atoms: _10  and  _18
REMARK    8  A    between atoms: _11  and  _12
REMARK    9  A    between atoms: _12  and  _13
REMARK   10  A    between atoms: _19  and  _39
REMARK   11  A    between atoms: _21  and  _27
REMARK   12  A    between atoms: _22  and  _26
REMARK   13  A    between atoms: _26  and  _27
REMARK   14  A    between atoms: _29  and  _30
REMARK   15  A    between atoms: _31  and  _32
REMARK   16  A    between atoms: _33  and  _35
REMARK   17  A    between atoms: _35  and  _36
REMARK   18  A    between atoms: _35  and  _37
REMARK   19  A    between atoms: _37  and  _38
REMARK   20  A    between atoms: _37  and  _39
REMARK   21  A    between atoms: _40  and  _42
REMARK                            x       y       z     vdW  Elec       q    Type
REMARK                         _______ _______ _______ _____ _____    ______ ____
ROOT
ATOM      1  C   UNL     1       3.122   2.184  33.367  0.00  0.00    +0.141 C 
ENDROOT
BRANCH   1   4
ATOM      2  C   UNL     1       0.868   3.172  33.583  0.00  0.00    +0.401 C 
ATOM      3  O   UNL     1       1.198   3.968  34.465  0.00  0.00    -0.226 OA
ATOM      4  N   UNL     1       1.701   2.298  33.017  0.00  0.00    -0.279 N 
ATOM      5  H   UNL     1       1.334   1.679  32.308  0.00  0.00    +0.152 HD
BRANCH   2   6
ATOM      6  O   UNL     1      -0.487   3.165  33.126  0.00  0.00    -0.444 OA
BRANCH   6   7
ATOM      7  C   UNL     1      -0.711   4.296  32.279  0.00  0.00    +0.292 C 
BRANCH   7   9
ATOM      8  N   UNL     1       1.103   4.290  30.589  0.00  0.00    -0.131 NA
ATOM      9  C   UNL     1      -0.202   4.032  30.923  0.00  0.00    +0.120 A 
ATOM     10  C   UNL     1      -0.861   3.537  29.819  0.00  0.00    +0.137 A 
ATOM     11  N   UNL     1       0.096   3.514  28.853  0.00  0.00    -0.249 N 
ATOM     12  N   UNL     1       1.271   3.975  29.311  0.00  0.00    -0.065 NA
BRANCH  11  13
ATOM     13  C   UNL     1      -0.070   3.196  27.453  0.00  0.00    +0.176 C 
BRANCH  13  14
ATOM     14  C   UNL     1       0.643   1.902  27.046  0.00  0.00    +0.136 C 
BRANCH  14  15
ATOM     15  O   UNL     1      -0.254   1.050  26.320  0.00  0.00    -0.390 OA
ATOM     16  H   UNL     1      -1.146   1.439  26.337  0.00  0.00    +0.210 HD
ENDBRANCH  14  15
BRANCH  14  17
ATOM     17  C   UNL     1       1.861   2.161  26.145  0.00  0.00    +0.038 C 
BRANCH  17  18
ATOM     18  C   UNL     1       2.023   3.628  25.747  0.00  0.00    +0.038 C 
BRANCH  18  19
ATOM     19  C   UNL     1       1.924   3.826  24.256  0.00  0.00    -0.047 A 
ATOM     20  C   UNL     1       1.797   5.116  23.721  0.00  0.00    +0.003 A 
ATOM     21  C   UNL     1       1.724   5.304  22.340  0.00  0.00    +0.000 A 
ATOM     22  C   UNL     1       1.771   4.206  21.484  0.00  0.00    +0.000 A 
ATOM     23  C   UNL     1       1.886   2.919  22.008  0.00  0.00    +0.000 A 
ATOM     24  C   UNL     1       1.958   2.729  23.388  0.00  0.00    +0.003 A 
ENDBRANCH  18  19
ENDBRANCH  17  18
ENDBRANCH  14  17
ENDBRANCH  13  14
ENDBRANCH  11  13
ENDBRANCH   7   9
ENDBRANCH   6   7
ENDBRANCH   2   6
ENDBRANCH   1   4
BRANCH   1  25
ATOM     25  C   UNL     1       4.008   2.983  32.416  0.00  0.00    +0.163 C 
BRANCH  25  26
ATOM     26  O   UNL     1       3.691   4.382  32.508  0.00  0.00    -0.388 OA
ATOM     27  H   UNL     1       2.935   4.576  31.949  0.00  0.00    +0.210 HD
ENDBRANCH  25  26
BRANCH  25  28
ATOM     28  C   UNL     1       5.487   2.730  32.757  0.00  0.00    +0.175 C 
BRANCH  28  29
ATOM     29  C   UNL     1       5.869   3.299  34.131  0.00  0.00    +0.176 C 
ATOM     30  O   UNL     1       6.418   4.630  33.927  0.00  0.00    -0.332 OA
ATOM     31  C   UNL     1       6.743   5.376  35.147  0.00  0.00    +0.277 C 
ATOM     32  C   UNL     1       7.694   4.550  36.048  0.00  0.00    +0.110 C 
ATOM     33  C   UNL     1       7.167   3.116  36.267  0.00  0.00    +0.143 C 
ATOM     34  C   UNL     1       6.858   2.435  34.934  0.00  0.00    +0.133 C 
BRANCH  34  35
ATOM     35  N   UNL     1       6.276   1.102  35.159  0.00  0.00    -0.308 N 
ATOM     36  H   UNL     1       5.451   1.040  35.738  0.00  0.00    +0.149 HD
ATOM     37  C   UNL     1       6.767  -0.030  34.647  0.00  0.00    +0.210 C 
ATOM     38  C   UNL     1       8.040   0.096  33.790  0.00  0.00    +0.109 C 
ATOM     39  O   UNL     1       6.250  -1.131  34.840  0.00  0.00    -0.276 OA
ENDBRANCH  34  35
BRANCH  31  40
ATOM     40  C   UNL     1       5.462   5.725  35.932  0.00  0.00    +0.414 C 
ATOM     41  O   UNL     1       5.539   6.181  37.073  0.00  0.00    -0.240 OA
ATOM     42  O   UNL     1       4.353   5.552  35.426  0.00  0.00    -0.240 OA
ENDBRANCH  31  40
BRANCH  33  43
ATOM     43  O   UNL     1       8.142   2.348  36.973  0.00  0.00    -0.390 OA
ATOM     44  H   UNL     1       8.111   2.570  37.907  0.00  0.00    +0.210 HD
ENDBRANCH  33  43
BRANCH  31  45
ATOM     45  O   UNL     1       7.426   6.595  34.758  0.00  0.00    -0.343 OA
ATOM     46  C   UNL     1       6.603   7.561  34.056  0.00  0.00    +0.198 C 
ENDBRANCH  31  45
ENDBRANCH  28  29
BRANCH  28  47
ATOM     47  O   UNL     1       6.334   3.291  31.734  0.00  0.00    -0.387 OA
ATOM     48  H   UNL     1       5.791   3.636  31.021  0.00  0.00    +0.210 HD
ENDBRANCH  28  47
ENDBRANCH  25  28
ENDBRANCH   1  25
TORSDOF 19
