REMARK VINA RESULT:    -5.574      1.927      2.822
REMARK INTER + INTRA:         -12.718
REMARK INTER:                 -11.143
REMARK INTRA:                  -1.575
REMARK UNBOUND:                -2.094
REMARK  Name = lig_assembled_19.pdb
REMARK  20 active torsions:
REMARK  status: ('A' for Active; 'I' for Inactive)
REMARK    1  A    between atoms: _2  and  _9
REMARK    2  A    between atoms: _4  and  _18
REMARK    3  A    between atoms: _5  and  _11
REMARK    4  A    between atoms: _6  and  _7
REMARK    5  A    between atoms: _6  and  _18
REMARK    6  A    between atoms: _9  and  _10
REMARK    7  A    between atoms: _10  and  _13
REMARK    8  A    between atoms: _11  and  _13
REMARK    9  A    between atoms: _14  and  _34
REMARK   10  A    between atoms: _16  and  _22
REMARK   11  A    between atoms: _17  and  _21
REMARK   12  A    between atoms: _21  and  _22
REMARK   13  A    between atoms: _24  and  _25
REMARK   14  A    between atoms: _26  and  _27
REMARK   15  A    between atoms: _28  and  _30
REMARK   16  A    between atoms: _30  and  _31
REMARK   17  A    between atoms: _30  and  _32
REMARK   18  A    between atoms: _32  and  _33
REMARK   19  A    between atoms: _32  and  _34
REMARK   20  A    between atoms: _35  and  _37
REMARK                            x       y       z     vdW  Elec       q    Type
REMARK                         _______ _______ _______ _____ _____    ______ ____
ROOT
ATOM      1  C   UNL     1       6.318   2.191  32.695  0.00  0.00    +0.163 C 
ENDROOT
BRANCH   1   2
ATOM      2  O   UNL     1       6.569   3.250  31.757  0.00  0.00    -0.388 OA
ATOM      3  H   UNL     1       6.399   4.097  32.176  0.00  0.00    +0.210 HD
ENDBRANCH   1   2
BRANCH   1   4
ATOM      4  C   UNL     1       7.395   2.160  33.793  0.00  0.00    +0.175 C 
BRANCH   4   5
ATOM      5  C   UNL     1       7.244   3.323  34.784  0.00  0.00    +0.176 C 
ATOM      6  O   UNL     1       7.232   4.561  34.023  0.00  0.00    -0.332 OA
ATOM      7  C   UNL     1       6.988   5.781  34.799  0.00  0.00    +0.277 C 
ATOM      8  C   UNL     1       8.002   5.893  35.964  0.00  0.00    +0.110 C 
ATOM      9  C   UNL     1       8.073   4.587  36.784  0.00  0.00    +0.143 C 
ATOM     10  C   UNL     1       8.328   3.383  35.877  0.00  0.00    +0.133 C 
BRANCH  10  11
ATOM     11  N   UNL     1       8.307   2.136  36.658  0.00  0.00    -0.308 N 
ATOM     12  H   UNL     1       7.444   1.881  37.117  0.00  0.00    +0.149 HD
ATOM     13  C   UNL     1       9.354   1.320  36.801  0.00  0.00    +0.210 C 
ATOM     14  C   UNL     1      10.663   1.750  36.111  0.00  0.00    +0.109 C 
ATOM     15  O   UNL     1       9.304   0.274  37.450  0.00  0.00    -0.276 OA
ENDBRANCH  10  11
BRANCH   7  16
ATOM     16  C   UNL     1       5.552   5.792  35.363  0.00  0.00    +0.414 C 
ATOM     17  O   UNL     1       4.607   5.433  34.660  0.00  0.00    -0.240 OA
ATOM     18  O   UNL     1       5.338   6.158  36.519  0.00  0.00    -0.240 OA
ENDBRANCH   7  16
BRANCH   9  19
ATOM     19  O   UNL     1       9.123   4.681  37.748  0.00  0.00    -0.390 OA
ATOM     20  H   UNL     1       8.893   4.163  38.523  0.00  0.00    +0.210 HD
ENDBRANCH   9  19
BRANCH   7  21
ATOM     21  O   UNL     1       7.175   6.919  33.919  0.00  0.00    -0.343 OA
ATOM     22  C   UNL     1       7.513   8.160  34.586  0.00  0.00    +0.198 C 
ENDBRANCH   7  21
ENDBRANCH   4   5
BRANCH   4  23
ATOM     23  O   UNL     1       8.709   2.181  33.199  0.00  0.00    -0.387 OA
ATOM     24  H   UNL     1       8.876   1.343  32.760  0.00  0.00    +0.210 HD
ENDBRANCH   4  23
ENDBRANCH   1   4
BRANCH   1  25
ATOM     25  C   UNL     1       4.945   2.375  33.334  0.00  0.00    +0.141 C 
BRANCH  25  28
ATOM     26  C   UNL     1       3.181   2.458  31.606  0.00  0.00    +0.401 C 
ATOM     27  O   UNL     1       3.109   1.233  31.487  0.00  0.00    -0.226 OA
ATOM     28  N   UNL     1       4.016   3.078  32.442  0.00  0.00    -0.279 N 
ATOM     29  H   UNL     1       4.008   4.088  32.461  0.00  0.00    +0.152 HD
BRANCH  26  30
ATOM     30  O   UNL     1       2.330   3.285  30.808  0.00  0.00    -0.444 OA
BRANCH  30  31
ATOM     31  C   UNL     1       1.419   2.464  30.073  0.00  0.00    +0.292 C 
BRANCH  31  33
ATOM     32  N   UNL     1       0.111   3.855  28.493  0.00  0.00    -0.131 NA
ATOM     33  C   UNL     1       1.180   3.031  28.733  0.00  0.00    +0.120 A 
ATOM     34  C   UNL     1       1.896   2.875  27.568  0.00  0.00    +0.137 A 
ATOM     35  N   UNL     1       1.206   3.617  26.658  0.00  0.00    -0.248 N 
ATOM     36  N   UNL     1       0.138   4.210  27.215  0.00  0.00    -0.065 NA
BRANCH  35  37
ATOM     37  C   UNL     1       1.512   3.815  25.258  0.00  0.00    +0.186 C 
BRANCH  37  38
ATOM     38  C   UNL     1       0.289   4.275  24.471  0.00  0.00    +0.255 C 
BRANCH  38  39
ATOM     39  O   UNL     1       0.541   5.487  23.731  0.00  0.00    -0.463 OA
BRANCH  39  40
ATOM     40  C   UNL     1       0.551   5.367  22.377  0.00  0.00    +0.304 C 
ATOM     41  O   UNL     1      -0.282   5.855  21.627  0.00  0.00    -0.251 OA
ATOM     42  C   UNL     1       1.741   4.582  21.918  0.00  0.00    +0.136 C 
ENDBRANCH  39  40
ENDBRANCH  38  39
ENDBRANCH  37  38
ENDBRANCH  35  37
ENDBRANCH  31  33
ENDBRANCH  30  31
ENDBRANCH  26  30
ENDBRANCH  25  28
ENDBRANCH   1  25
TORSDOF 17
