REMARK VINA RESULT:    -6.639     16.044     18.074
REMARK INTER + INTRA:         -15.854
REMARK INTER:                 -12.691
REMARK INTRA:                  -3.163
REMARK UNBOUND:                -2.424
REMARK  Name = lig_assembled_81.pdb
REMARK  22 active torsions:
REMARK  status: ('A' for Active; 'I' for Inactive)
REMARK    1  A    between atoms: _2  and  _12
REMARK    2  A    between atoms: _7  and  _30
REMARK    3  A    between atoms: _8  and  _24
REMARK    4  A    between atoms: _9  and  _10
REMARK    5  A    between atoms: _9  and  _30
REMARK    6  A    between atoms: _14  and  _15
REMARK    7  A    between atoms: _21  and  _22
REMARK    8  A    between atoms: _22  and  _23
REMARK    9  A    between atoms: _23  and  _25
REMARK   10  A    between atoms: _24  and  _25
REMARK   11  A    between atoms: _26  and  _46
REMARK   12  A    between atoms: _28  and  _34
REMARK   13  A    between atoms: _29  and  _33
REMARK   14  A    between atoms: _33  and  _34
REMARK   15  A    between atoms: _36  and  _37
REMARK   16  A    between atoms: _38  and  _39
REMARK   17  A    between atoms: _40  and  _42
REMARK   18  A    between atoms: _42  and  _43
REMARK   19  A    between atoms: _42  and  _44
REMARK   20  A    between atoms: _44  and  _45
REMARK   21  A    between atoms: _44  and  _46
REMARK   22  A    between atoms: _47  and  _49
REMARK                            x       y       z     vdW  Elec       q    Type
REMARK                         _______ _______ _______ _____ _____    ______ ____
ROOT
ATOM      1  C   UNL     1       0.673   3.837  30.782  0.00  0.00    +0.401 C 
ATOM      2  O   UNL     1       0.073   3.420  31.775  0.00  0.00    -0.226 OA
ATOM      3  N   UNL     1       1.966   3.610  30.542  0.00  0.00    -0.279 N 
ATOM      4  H   UNL     1       2.367   3.986  29.695  0.00  0.00    +0.152 HD
ENDROOT
BRANCH   1   5
ATOM      5  O   UNL     1      -0.040   4.609  29.812  0.00  0.00    -0.444 OA
BRANCH   5   6
ATOM      6  C   UNL     1      -1.303   3.993  29.546  0.00  0.00    +0.289 C 
BRANCH   6   8
ATOM      7  N   UNL     1      -1.857   2.460  27.714  0.00  0.00    -0.130 NA
ATOM      8  C   UNL     1      -1.435   3.695  28.106  0.00  0.00    +0.100 C 
ATOM      9  C   UNL     1      -1.174   4.451  26.979  0.00  0.00    +0.124 C 
ATOM     10  N   UNL     1      -1.596   3.660  25.919  0.00  0.00    -0.187 N 
ATOM     11  N   UNL     1      -1.815   2.417  26.394  0.00  0.00    -0.010 NA
BRANCH  10  12
ATOM     12  C   UNL     1      -1.600   3.982  24.520  0.00  0.00    +0.150 A 
ATOM     13  C   UNL     1      -0.672   3.507  23.560  0.00  0.00    +0.022 A 
ATOM     14  C   UNL     1      -0.872   4.058  22.267  0.00  0.00    +0.081 A 
ATOM     15  N   UNL     1      -1.823   5.002  22.032  0.00  0.00    -0.214 NA
ATOM     16  C   UNL     1      -2.614   5.388  23.018  0.00  0.00    +0.215 A 
ATOM     17  N   UNL     1      -3.505   6.406  22.781  0.00  0.00    -0.327 N 
ATOM     18  H   UNL     1      -3.704   6.498  21.796  0.00  0.00    +0.145 HD
ATOM     19  H   UNL     1      -4.273   6.393  23.435  0.00  0.00    +0.145 HD
ATOM     20  N   UNL     1      -2.605   4.851  24.223  0.00  0.00    -0.198 NA
BRANCH  14  21
ATOM     21  C   UNL     1      -0.112   3.750  20.996  0.00  0.00    +0.001 A 
ATOM     22  C   UNL     1       1.203   4.166  20.720  0.00  0.00    +0.010 A 
ATOM     23  C   UNL     1       1.863   3.837  19.524  0.00  0.00    +0.001 A 
ATOM     24  C   UNL     1       1.253   3.029  18.583  0.00  0.00    +0.000 A 
ATOM     25  C   UNL     1      -0.029   2.546  18.835  0.00  0.00    +0.001 A 
ATOM     26  C   UNL     1      -0.695   2.915  20.013  0.00  0.00    +0.010 A 
ENDBRANCH  14  21
BRANCH  13  27
ATOM     27  C   UNL     1       0.405   2.430  23.723  0.00  0.00    +0.069 C 
BRANCH  27  28
ATOM     28  C   UNL     1       1.782   2.771  24.259  0.00  0.00    +0.164 C 
BRANCH  28  29
ATOM     29  O   UNL     1       2.383   1.804  25.129  0.00  0.00    -0.380 OA
BRANCH  29  30
ATOM     30  C   UNL     1       1.766   1.985  26.420  0.00  0.00    +0.156 C 
ATOM     31  C   UNL     1       2.061   3.352  26.994  0.00  0.00    +0.034 C 
ENDBRANCH  29  30
ENDBRANCH  28  29
ENDBRANCH  27  28
ENDBRANCH  13  27
ENDBRANCH  10  12
ENDBRANCH   6   8
ENDBRANCH   5   6
ENDBRANCH   1   5
BRANCH   3  32
ATOM     32  C   UNL     1       2.838   2.845  31.442  0.00  0.00    +0.141 C 
BRANCH  32  33
ATOM     33  C   UNL     1       3.517   3.740  32.473  0.00  0.00    +0.163 C 
BRANCH  33  34
ATOM     34  O   UNL     1       2.628   3.983  33.575  0.00  0.00    -0.388 OA
ATOM     35  H   UNL     1       3.128   4.323  34.321  0.00  0.00    +0.210 HD
ENDBRANCH  33  34
BRANCH  33  36
ATOM     36  C   UNL     1       4.819   3.076  32.952  0.00  0.00    +0.175 C 
BRANCH  36  37
ATOM     37  C   UNL     1       5.373   3.739  34.223  0.00  0.00    +0.176 C 
ATOM     38  O   UNL     1       5.391   5.176  34.005  0.00  0.00    -0.332 OA
ATOM     39  C   UNL     1       5.794   5.987  35.158  0.00  0.00    +0.277 C 
ATOM     40  C   UNL     1       7.170   5.520  35.693  0.00  0.00    +0.110 C 
ATOM     41  C   UNL     1       7.209   3.993  35.910  0.00  0.00    +0.143 C 
ATOM     42  C   UNL     1       6.769   3.248  34.650  0.00  0.00    +0.133 C 
BRANCH  42  43
ATOM     43  N   UNL     1       6.726   1.798  34.896  0.00  0.00    -0.308 N 
ATOM     44  H   UNL     1       6.051   1.453  35.563  0.00  0.00    +0.149 HD
ATOM     45  C   UNL     1       7.522   0.909  34.295  0.00  0.00    +0.210 C 
ATOM     46  C   UNL     1       8.558   1.470  33.304  0.00  0.00    +0.109 C 
ATOM     47  O   UNL     1       7.454  -0.301  34.511  0.00  0.00    -0.276 OA
ENDBRANCH  42  43
BRANCH  39  48
ATOM     48  C   UNL     1       4.744   5.894  36.285  0.00  0.00    +0.414 C 
ATOM     49  O   UNL     1       3.594   5.537  36.033  0.00  0.00    -0.240 OA
ATOM     50  O   UNL     1       5.047   6.176  37.445  0.00  0.00    -0.240 OA
ENDBRANCH  39  48
BRANCH  39  51
ATOM     51  O   UNL     1       5.917   7.364  34.718  0.00  0.00    -0.343 OA
ATOM     52  C   UNL     1       7.272   7.797  34.436  0.00  0.00    +0.198 C 
ENDBRANCH  39  51
BRANCH  41  53
ATOM     53  O   UNL     1       8.534   3.589  36.257  0.00  0.00    -0.390 OA
ATOM     54  H   UNL     1       8.688   3.760  37.189  0.00  0.00    +0.210 HD
ENDBRANCH  41  53
ENDBRANCH  36  37
BRANCH  36  55
ATOM     55  O   UNL     1       5.809   3.108  31.904  0.00  0.00    -0.387 OA
ATOM     56  H   UNL     1       5.788   2.280  31.419  0.00  0.00    +0.210 HD
ENDBRANCH  36  55
ENDBRANCH  33  36
ENDBRANCH  32  33
ENDBRANCH   3  32
TORSDOF 19
