REMARK VINA RESULT:    -6.074      2.501      4.972
REMARK INTER + INTRA:         -14.332
REMARK INTER:                 -12.392
REMARK INTRA:                  -1.940
REMARK UNBOUND:                -2.754
REMARK  Name = lig_assembled_12.pdb
REMARK  19 active torsions:
REMARK  status: ('A' for Active; 'I' for Inactive)
REMARK    1  A    between atoms: _2  and  _9
REMARK    2  A    between atoms: _4  and  _21
REMARK    3  A    between atoms: _6  and  _7
REMARK    4  A    between atoms: _6  and  _21
REMARK    5  A    between atoms: _9  and  _16
REMARK    6  A    between atoms: _10  and  _11
REMARK    7  A    between atoms: _10  and  _16
REMARK    8  A    between atoms: _17  and  _37
REMARK    9  A    between atoms: _19  and  _25
REMARK   10  A    between atoms: _20  and  _24
REMARK   11  A    between atoms: _24  and  _25
REMARK   12  A    between atoms: _27  and  _28
REMARK   13  A    between atoms: _29  and  _30
REMARK   14  A    between atoms: _31  and  _33
REMARK   15  A    between atoms: _33  and  _34
REMARK   16  A    between atoms: _33  and  _35
REMARK   17  A    between atoms: _35  and  _36
REMARK   18  A    between atoms: _35  and  _37
REMARK   19  A    between atoms: _38  and  _40
REMARK                            x       y       z     vdW  Elec       q    Type
REMARK                         _______ _______ _______ _____ _____    ______ ____
ROOT
ATOM      1  C   UNL     1       6.442   3.039  33.919  0.00  0.00    +0.163 C 
ENDROOT
BRANCH   1   2
ATOM      2  O   UNL     1       6.488   1.909  34.806  0.00  0.00    -0.388 OA
ATOM      3  H   UNL     1       7.148   2.063  35.487  0.00  0.00    +0.210 HD
ENDBRANCH   1   2
BRANCH   1   4
ATOM      4  C   UNL     1       7.853   3.596  33.664  0.00  0.00    +0.175 C 
BRANCH   4   5
ATOM      5  C   UNL     1       8.555   4.011  34.966  0.00  0.00    +0.176 C 
ATOM      6  O   UNL     1       8.905   2.800  35.690  0.00  0.00    -0.332 OA
ATOM      7  C   UNL     1       9.682   2.998  36.918  0.00  0.00    +0.277 C 
ATOM      8  C   UNL     1       8.954   3.984  37.865  0.00  0.00    +0.110 C 
ATOM      9  C   UNL     1       8.534   5.274  37.131  0.00  0.00    +0.143 C 
ATOM     10  C   UNL     1       7.734   4.951  35.868  0.00  0.00    +0.133 C 
BRANCH  10  11
ATOM     11  N   UNL     1       7.414   6.184  35.132  0.00  0.00    -0.308 N 
ATOM     12  H   UNL     1       8.175   6.680  34.689  0.00  0.00    +0.149 HD
ATOM     13  C   UNL     1       6.184   6.690  35.010  0.00  0.00    +0.210 C 
ATOM     14  C   UNL     1       5.050   5.925  35.718  0.00  0.00    +0.109 C 
ATOM     15  O   UNL     1       5.944   7.717  34.374  0.00  0.00    -0.276 OA
ENDBRANCH  10  11
BRANCH   7  16
ATOM     16  C   UNL     1      11.089   3.540  36.593  0.00  0.00    +0.414 C 
ATOM     17  O   UNL     1      11.596   4.413  37.296  0.00  0.00    -0.240 OA
ATOM     18  O   UNL     1      11.718   3.103  35.628  0.00  0.00    -0.240 OA
ENDBRANCH   7  16
BRANCH   9  19
ATOM     19  O   UNL     1       7.738   6.084  37.998  0.00  0.00    -0.390 OA
ATOM     20  H   UNL     1       7.453   6.871  37.528  0.00  0.00    +0.210 HD
ENDBRANCH   9  19
BRANCH   7  21
ATOM     21  O   UNL     1       9.794   1.717  37.589  0.00  0.00    -0.343 OA
ATOM     22  C   UNL     1       8.820   1.487  38.638  0.00  0.00    +0.198 C 
ENDBRANCH   7  21
ENDBRANCH   4   5
BRANCH   4  23
ATOM     23  O   UNL     1       7.789   4.714  32.756  0.00  0.00    -0.387 OA
ATOM     24  H   UNL     1       7.419   5.475  33.210  0.00  0.00    +0.210 HD
ENDBRANCH   4  23
ENDBRANCH   1   4
BRANCH   1  25
ATOM     25  C   UNL     1       5.805   2.636  32.593  0.00  0.00    +0.141 C 
BRANCH  25  28
ATOM     26  C   UNL     1       3.402   3.157  32.831  0.00  0.00    +0.401 C 
ATOM     27  O   UNL     1       3.180   2.224  33.606  0.00  0.00    -0.226 OA
ATOM     28  N   UNL     1       4.598   3.420  32.304  0.00  0.00    -0.279 N 
ATOM     29  H   UNL     1       4.679   4.203  31.671  0.00  0.00    +0.152 HD
BRANCH  26  30
ATOM     30  O   UNL     1       2.325   4.021  32.458  0.00  0.00    -0.444 OA
BRANCH  30  31
ATOM     31  C   UNL     1       1.221   3.236  31.999  0.00  0.00    +0.292 C 
BRANCH  31  33
ATOM     32  N   UNL     1       1.021   4.141  29.699  0.00  0.00    -0.131 NA
ATOM     33  C   UNL     1       1.272   3.082  30.534  0.00  0.00    +0.120 A 
ATOM     34  C   UNL     1       1.547   1.968  29.776  0.00  0.00    +0.139 A 
ATOM     35  N   UNL     1       1.421   2.403  28.490  0.00  0.00    -0.226 N 
ATOM     36  N   UNL     1       1.128   3.716  28.446  0.00  0.00    -0.063 NA
BRANCH  35  37
ATOM     37  C   UNL     1       1.610   1.657  27.258  0.00  0.00    +0.305 C 
BRANCH  37  38
ATOM     38  O   UNL     1       2.013   2.553  26.225  0.00  0.00    -0.353 OA
BRANCH  38  39
ATOM     39  C   UNL     1       2.135   1.891  24.973  0.00  0.00    +0.197 C 
BRANCH  39  40
ATOM     40  C   UNL     1       2.012   2.934  23.895  0.00  0.00    -0.022 A 
ATOM     41  C   UNL     1       1.927   4.294  24.226  0.00  0.00    +0.006 A 
ATOM     42  C   UNL     1       1.774   5.257  23.229  0.00  0.00    +0.000 A 
ATOM     43  C   UNL     1       1.696   4.872  21.892  0.00  0.00    +0.000 A 
ATOM     44  C   UNL     1       1.769   3.523  21.550  0.00  0.00    +0.000 A 
ATOM     45  C   UNL     1       1.922   2.558  22.547  0.00  0.00    +0.006 A 
ENDBRANCH  39  40
ENDBRANCH  38  39
ENDBRANCH  37  38
ENDBRANCH  35  37
ENDBRANCH  31  33
ENDBRANCH  30  31
ENDBRANCH  26  30
ENDBRANCH  25  28
ENDBRANCH   1  25
TORSDOF 17
