REMARK VINA RESULT:    -6.102     13.076     16.955
REMARK INTER + INTRA:         -13.129
REMARK INTER:                 -11.438
REMARK INTRA:                  -1.690
REMARK UNBOUND:                -2.568
REMARK  Name = lig_assembled_27.pdb
REMARK  16 active torsions:
REMARK  status: ('A' for Active; 'I' for Inactive)
REMARK    1  A    between atoms: _2  and  _9
REMARK    2  A    between atoms: _4  and  _18
REMARK    3  A    between atoms: _6  and  _7
REMARK    4  A    between atoms: _6  and  _18
REMARK    5  A    between atoms: _14  and  _34
REMARK    6  A    between atoms: _16  and  _22
REMARK    7  A    between atoms: _17  and  _21
REMARK    8  A    between atoms: _21  and  _22
REMARK    9  A    between atoms: _24  and  _25
REMARK   10  A    between atoms: _26  and  _27
REMARK   11  A    between atoms: _28  and  _30
REMARK   12  A    between atoms: _30  and  _31
REMARK   13  A    between atoms: _30  and  _32
REMARK   14  A    between atoms: _32  and  _33
REMARK   15  A    between atoms: _32  and  _34
REMARK   16  A    between atoms: _35  and  _37
REMARK                            x       y       z     vdW  Elec       q    Type
REMARK                         _______ _______ _______ _____ _____    ______ ____
ROOT
ATOM      1  C   UNL     1      17.244   2.004  26.180  0.00  0.00    +0.163 C 
ENDROOT
BRANCH   1   2
ATOM      2  O   UNL     1      16.303   2.853  26.857  0.00  0.00    -0.388 OA
ATOM      3  H   UNL     1      15.417   2.497  26.753  0.00  0.00    +0.210 HD
ENDBRANCH   1   2
BRANCH   1   4
ATOM      4  C   UNL     1      18.543   2.762  25.929  0.00  0.00    +0.141 C 
BRANCH   4   7
ATOM      5  C   UNL     1      19.236   5.027  25.226  0.00  0.00    +0.401 C 
ATOM      6  O   UNL     1      20.394   4.694  24.964  0.00  0.00    -0.226 OA
ATOM      7  N   UNL     1      18.306   4.191  25.688  0.00  0.00    -0.279 N 
ATOM      8  H   UNL     1      17.387   4.561  25.883  0.00  0.00    +0.152 HD
BRANCH   5   9
ATOM      9  O   UNL     1      18.846   6.389  25.035  0.00  0.00    -0.444 OA
BRANCH   9  10
ATOM     10  C   UNL     1      19.948   7.249  25.336  0.00  0.00    +0.292 C 
BRANCH  10  12
ATOM     11  N   UNL     1      19.889   9.413  26.536  0.00  0.00    -0.131 NA
ATOM     12  C   UNL     1      19.651   8.068  26.525  0.00  0.00    +0.121 A 
ATOM     13  C   UNL     1      19.127   7.696  27.741  0.00  0.00    +0.143 A 
ATOM     14  N   UNL     1      19.052   8.861  28.470  0.00  0.00    -0.220 N 
ATOM     15  N   UNL     1      19.525   9.887  27.720  0.00  0.00    -0.060 NA
BRANCH  14  16
ATOM     16  C   UNL     1      18.575   9.053  29.792  0.00  0.00    +0.068 A 
ATOM     17  C   UNL     1      18.389  10.355  30.282  0.00  0.00    +0.028 A 
ATOM     18  C   UNL     1      17.922  10.557  31.583  0.00  0.00    +0.003 A 
ATOM     19  C   UNL     1      17.640   9.465  32.402  0.00  0.00    +0.020 A 
ATOM     20  C   UNL     1      17.822   8.173  31.916  0.00  0.00    +0.043 A 
ATOM     21 CL   UNL     1      17.472   6.824  32.927  0.00  0.00    -0.083 Cl
ATOM     22  C   UNL     1      18.287   7.957  30.617  0.00  0.00    +0.047 A 
ENDBRANCH  14  16
ENDBRANCH  10  12
ENDBRANCH   9  10
ENDBRANCH   5   9
ENDBRANCH   4   7
ENDBRANCH   1   4
BRANCH   1  23
ATOM     23  C   UNL     1      16.672   1.507  24.841  0.00  0.00    +0.175 C 
BRANCH  23  24
ATOM     24  C   UNL     1      17.731   0.789  23.992  0.00  0.00    +0.176 C 
ATOM     25  O   UNL     1      17.774   1.436  22.690  0.00  0.00    -0.332 OA
ATOM     26  C   UNL     1      18.809   0.949  21.774  0.00  0.00    +0.277 C 
ATOM     27  C   UNL     1      18.693  -0.585  21.592  0.00  0.00    +0.110 C 
ATOM     28  C   UNL     1      18.612  -1.314  22.950  0.00  0.00    +0.143 C 
ATOM     29  C   UNL     1      17.505  -0.725  23.824  0.00  0.00    +0.133 C 
BRANCH  29  30
ATOM     30  N   UNL     1      17.495  -1.369  25.147  0.00  0.00    -0.308 N 
ATOM     31  H   UNL     1      18.252  -1.156  25.781  0.00  0.00    +0.149 HD
ATOM     32  C   UNL     1      16.551  -2.217  25.564  0.00  0.00    +0.210 C 
ATOM     33  C   UNL     1      15.424  -2.541  24.564  0.00  0.00    +0.109 C 
ATOM     34  O   UNL     1      16.560  -2.731  26.683  0.00  0.00    -0.276 OA
ENDBRANCH  29  30
BRANCH  26  35
ATOM     35  C   UNL     1      20.216   1.301  22.301  0.00  0.00    +0.414 C 
ATOM     36  O   UNL     1      20.446   2.421  22.754  0.00  0.00    -0.240 OA
ATOM     37  O   UNL     1      21.120   0.465  22.273  0.00  0.00    -0.240 OA
ENDBRANCH  26  35
BRANCH  28  38
ATOM     38  O   UNL     1      18.355  -2.702  22.736  0.00  0.00    -0.390 OA
ATOM     39  H   UNL     1      18.797  -3.219  23.414  0.00  0.00    +0.210 HD
ENDBRANCH  28  38
BRANCH  26  40
ATOM     40  O   UNL     1      18.600   1.579  20.484  0.00  0.00    -0.343 OA
ATOM     41  C   UNL     1      17.211   1.762  20.110  0.00  0.00    +0.198 C 
ENDBRANCH  26  40
ENDBRANCH  23  24
BRANCH  23  42
ATOM     42  O   UNL     1      16.107   2.609  24.103  0.00  0.00    -0.387 OA
ATOM     43  H   UNL     1      16.412   2.575  23.193  0.00  0.00    +0.210 HD
ENDBRANCH  23  42
ENDBRANCH   1  23
TORSDOF 14
