REMARK VINA RESULT:    -5.481     24.124     27.010
REMARK INTER + INTRA:         -12.613
REMARK INTER:                 -10.116
REMARK INTRA:                  -2.497
REMARK UNBOUND:                -2.326
REMARK  Name = lig_assembled_32.pdb
REMARK  19 active torsions:
REMARK  status: ('A' for Active; 'I' for Inactive)
REMARK    1  A    between atoms: _2  and  _9
REMARK    2  A    between atoms: _4  and  _17
REMARK    3  A    between atoms: _5  and  _10
REMARK    4  A    between atoms: _5  and  _11
REMARK    5  A    between atoms: _6  and  _7
REMARK    6  A    between atoms: _6  and  _17
REMARK    7  A    between atoms: _9  and  _10
REMARK    8  A    between atoms: _13  and  _33
REMARK    9  A    between atoms: _15  and  _21
REMARK   10  A    between atoms: _16  and  _20
REMARK   11  A    between atoms: _20  and  _21
REMARK   12  A    between atoms: _23  and  _24
REMARK   13  A    between atoms: _25  and  _26
REMARK   14  A    between atoms: _27  and  _29
REMARK   15  A    between atoms: _29  and  _30
REMARK   16  A    between atoms: _29  and  _31
REMARK   17  A    between atoms: _31  and  _32
REMARK   18  A    between atoms: _31  and  _33
REMARK   19  A    between atoms: _34  and  _36
REMARK                            x       y       z     vdW  Elec       q    Type
REMARK                         _______ _______ _______ _____ _____    ______ ____
ROOT
ATOM      1  C   UNL     1       0.806  22.603  15.301  0.00  0.00    +0.163 C 
ENDROOT
BRANCH   1   2
ATOM      2  O   UNL     1       0.994  22.360  16.705  0.00  0.00    -0.388 OA
ATOM      3  H   UNL     1       0.924  23.188  17.186  0.00  0.00    +0.210 HD
ENDBRANCH   1   2
BRANCH   1   4
ATOM      4  C   UNL     1       2.151  22.869  14.603  0.00  0.00    +0.175 C 
BRANCH   4   5
ATOM      5  C   UNL     1       3.284  23.117  15.609  0.00  0.00    +0.176 C 
ATOM      6  O   UNL     1       3.143  24.472  16.118  0.00  0.00    -0.332 OA
ATOM      7  C   UNL     1       4.083  24.853  17.176  0.00  0.00    +0.277 C 
ATOM      8  C   UNL     1       5.542  24.616  16.715  0.00  0.00    +0.110 C 
ATOM      9  C   UNL     1       5.734  23.198  16.136  0.00  0.00    +0.143 C 
ATOM     10  C   UNL     1       4.702  22.906  15.046  0.00  0.00    +0.133 C 
BRANCH  10  11
ATOM     11  N   UNL     1       4.840  21.523  14.564  0.00  0.00    -0.308 N 
ATOM     12  H   UNL     1       4.819  20.781  15.249  0.00  0.00    +0.149 HD
ATOM     13  C   UNL     1       4.989  21.184  13.280  0.00  0.00    +0.210 C 
ATOM     14  C   UNL     1       5.042  22.340  12.264  0.00  0.00    +0.109 C 
ATOM     15  O   UNL     1       5.087  20.016  12.904  0.00  0.00    -0.276 OA
ENDBRANCH  10  11
BRANCH   7  16
ATOM     16  C   UNL     1       3.813  24.047  18.464  0.00  0.00    +0.414 C 
ATOM     17  O   UNL     1       4.646  24.026  19.369  0.00  0.00    -0.240 OA
ATOM     18  O   UNL     1       2.762  23.419  18.598  0.00  0.00    -0.240 OA
ENDBRANCH   7  16
BRANCH   7  19
ATOM     19  O   UNL     1       3.911  26.269  17.441  0.00  0.00    -0.343 OA
ATOM     20  C   UNL     1       2.554  26.759  17.294  0.00  0.00    +0.198 C 
ENDBRANCH   7  19
BRANCH   9  21
ATOM     21  O   UNL     1       7.047  23.075  15.587  0.00  0.00    -0.390 OA
ATOM     22  H   UNL     1       7.628  23.720  15.997  0.00  0.00    +0.210 HD
ENDBRANCH   9  21
ENDBRANCH   4   5
BRANCH   4  23
ATOM     23  O   UNL     1       2.031  23.990  13.704  0.00  0.00    -0.387 OA
ATOM     24  H   UNL     1       2.904  24.258  13.408  0.00  0.00    +0.210 HD
ENDBRANCH   4  23
ENDBRANCH   1   4
BRANCH   1  25
ATOM     25  C   UNL     1       0.123  21.405  14.651  0.00  0.00    +0.141 C 
BRANCH  25  28
ATOM     26  C   UNL     1      -2.177  21.135  15.513  0.00  0.00    +0.401 C 
ATOM     27  O   UNL     1      -2.659  21.987  14.762  0.00  0.00    -0.226 OA
ATOM     28  N   UNL     1      -0.886  20.804  15.533  0.00  0.00    -0.279 N 
ATOM     29  H   UNL     1      -0.584  20.100  16.192  0.00  0.00    +0.152 HD
BRANCH  26  30
ATOM     30  O   UNL     1      -3.036  20.452  16.429  0.00  0.00    -0.444 OA
BRANCH  30  31
ATOM     31  C   UNL     1      -3.254  21.271  17.581  0.00  0.00    +0.292 C 
BRANCH  31  33
ATOM     32  N   UNL     1      -1.126  21.013  18.818  0.00  0.00    -0.131 NA
ATOM     33  C   UNL     1      -2.471  20.768  18.725  0.00  0.00    +0.120 A 
ATOM     34  C   UNL     1      -2.869  20.026  19.815  0.00  0.00    +0.137 A 
ATOM     35  N   UNL     1      -1.721  19.845  20.523  0.00  0.00    -0.251 N 
ATOM     36  N   UNL     1      -0.675  20.439  19.924  0.00  0.00    -0.065 NA
BRANCH  35  37
ATOM     37  C   UNL     1      -1.539  19.131  21.767  0.00  0.00    +0.156 C 
BRANCH  37  38
ATOM     38  C   UNL     1      -0.215  18.380  21.805  0.00  0.00    +0.143 C 
BRANCH  38  39
ATOM     39  C   UNL     1      -0.283  17.166  20.924  0.00  0.00    +0.306 C 
ATOM     40  O   UNL     1      -0.881  16.138  21.197  0.00  0.00    -0.251 OA
BRANCH  39  41
ATOM     41  O   UNL     1       0.412  17.316  19.774  0.00  0.00    -0.481 OA
ATOM     42  H   UNL     1       0.457  16.510  19.224  0.00  0.00    +0.295 HD
ENDBRANCH  39  41
ENDBRANCH  38  39
ENDBRANCH  37  38
ENDBRANCH  35  37
ENDBRANCH  31  33
ENDBRANCH  30  31
ENDBRANCH  26  30
ENDBRANCH  25  28
ENDBRANCH   1  25
TORSDOF 17
