REMARK VINA RESULT:    -5.668     14.366     18.433
REMARK INTER + INTRA:         -14.221
REMARK INTER:                 -12.082
REMARK INTRA:                  -2.139
REMARK UNBOUND:                -3.914
REMARK  Name = lig_assembled_73.pdb
REMARK  18 active torsions:
REMARK  status: ('A' for Active; 'I' for Inactive)
REMARK    1  A    between atoms: _2  and  _10
REMARK    2  A    between atoms: _3  and  _14
REMARK    3  A    between atoms: _5  and  _22
REMARK    4  A    between atoms: _7  and  _8
REMARK    5  A    between atoms: _7  and  _22
REMARK    6  A    between atoms: _13  and  _16
REMARK    7  A    between atoms: _18  and  _38
REMARK    8  A    between atoms: _20  and  _26
REMARK    9  A    between atoms: _21  and  _25
REMARK   10  A    between atoms: _25  and  _26
REMARK   11  A    between atoms: _28  and  _29
REMARK   12  A    between atoms: _30  and  _31
REMARK   13  A    between atoms: _32  and  _34
REMARK   14  A    between atoms: _34  and  _35
REMARK   15  A    between atoms: _34  and  _36
REMARK   16  A    between atoms: _36  and  _37
REMARK   17  A    between atoms: _36  and  _38
REMARK   18  A    between atoms: _39  and  _41
REMARK                            x       y       z     vdW  Elec       q    Type
REMARK                         _______ _______ _______ _____ _____    ______ ____
ROOT
ATOM      1  C   UNL     1      16.601   1.053  26.237  0.00  0.00    +0.163 C 
ENDROOT
BRANCH   1   2
ATOM      2  O   UNL     1      15.559   0.297  26.877  0.00  0.00    -0.388 OA
ATOM      3  H   UNL     1      15.813   0.106  27.783  0.00  0.00    +0.210 HD
ENDBRANCH   1   2
BRANCH   1   4
ATOM      4  C   UNL     1      16.374   1.125  24.717  0.00  0.00    +0.175 C 
BRANCH   4   5
ATOM      5  C   UNL     1      17.522   0.476  23.930  0.00  0.00    +0.176 C 
ATOM      6  O   UNL     1      17.587   1.115  22.626  0.00  0.00    -0.332 OA
ATOM      7  C   UNL     1      18.699   0.694  21.768  0.00  0.00    +0.277 C 
ATOM      8  C   UNL     1      18.698  -0.845  21.598  0.00  0.00    +0.110 C 
ATOM      9  C   UNL     1      18.598  -1.569  22.957  0.00  0.00    +0.143 C 
ATOM     10  C   UNL     1      17.409  -1.051  23.767  0.00  0.00    +0.133 C 
BRANCH  10  11
ATOM     11  N   UNL     1      17.375  -1.686  25.095  0.00  0.00    -0.308 N 
ATOM     12  H   UNL     1      18.076  -1.409  25.768  0.00  0.00    +0.149 HD
ATOM     13  C   UNL     1      16.478  -2.603  25.468  0.00  0.00    +0.210 C 
ATOM     14  C   UNL     1      15.440  -3.022  24.410  0.00  0.00    +0.109 C 
ATOM     15  O   UNL     1      16.465  -3.107  26.591  0.00  0.00    -0.276 OA
ENDBRANCH  10  11
BRANCH   7  16
ATOM     16  C   UNL     1      20.050   1.145  22.363  0.00  0.00    +0.414 C 
ATOM     17  O   UNL     1      20.994   0.359  22.425  0.00  0.00    -0.240 OA
ATOM     18  O   UNL     1      20.195   2.295  22.779  0.00  0.00    -0.240 OA
ENDBRANCH   7  16
BRANCH   9  19
ATOM     19  O   UNL     1      18.447  -2.973  22.745  0.00  0.00    -0.390 OA
ATOM     20  H   UNL     1      18.324  -3.413  23.589  0.00  0.00    +0.210 HD
ENDBRANCH   9  19
BRANCH   7  21
ATOM     21  O   UNL     1      18.514   1.299  20.463  0.00  0.00    -0.343 OA
ATOM     22  C   UNL     1      17.163   1.744  20.181  0.00  0.00    +0.198 C 
ENDBRANCH   7  21
ENDBRANCH   4   5
BRANCH   4  23
ATOM     23  O   UNL     1      16.202   2.496  24.305  0.00  0.00    -0.387 OA
ATOM     24  H   UNL     1      16.164   2.540  23.347  0.00  0.00    +0.210 HD
ENDBRANCH   4  23
ENDBRANCH   1   4
BRANCH   1  25
ATOM     25  C   UNL     1      16.649   2.465  26.812  0.00  0.00    +0.141 C 
BRANCH  25  28
ATOM     26  C   UNL     1      18.854   3.497  26.391  0.00  0.00    +0.401 C 
ATOM     27  O   UNL     1      18.584   3.827  25.234  0.00  0.00    -0.226 OA
ATOM     28  N   UNL     1      18.012   2.852  27.199  0.00  0.00    -0.279 N 
ATOM     29  H   UNL     1      18.328   2.616  28.129  0.00  0.00    +0.152 HD
BRANCH  26  30
ATOM     30  O   UNL     1      20.145   3.812  26.920  0.00  0.00    -0.444 OA
BRANCH  30  31
ATOM     31  C   UNL     1      20.348   5.227  26.874  0.00  0.00    +0.292 C 
BRANCH  31  33
ATOM     32  N   UNL     1      19.517   5.140  29.204  0.00  0.00    -0.131 NA
ATOM     33  C   UNL     1      19.784   5.865  28.079  0.00  0.00    +0.121 A 
ATOM     34  C   UNL     1      19.446   7.179  28.301  0.00  0.00    +0.143 A 
ATOM     35  N   UNL     1      18.979   7.213  29.595  0.00  0.00    -0.220 N 
ATOM     36  N   UNL     1      19.029   5.965  30.120  0.00  0.00    -0.060 NA
BRANCH  35  37
ATOM     37  C   UNL     1      18.496   8.320  30.339  0.00  0.00    +0.074 A 
ATOM     38  C   UNL     1      18.962   9.614  30.045  0.00  0.00    +0.032 A 
ATOM     39  C   UNL     1      18.506  10.722  30.772  0.00  0.00    +0.054 A 
ATOM     40  C   UNL     1      17.583  10.548  31.802  0.00  0.00    +0.195 A 
ATOM     41  C   UNL     1      17.125   9.263  32.088  0.00  0.00    +0.316 A 
ATOM     42  C   UNL     1      17.562   8.143  31.367  0.00  0.00    +0.116 A 
BRANCH  41  43
ATOM     43  N   UNL     1      16.173   9.048  33.159  0.00  0.00    +0.083 N 
ATOM     44  O   UNL     1      16.585   9.157  34.322  0.00  0.00    +0.042 OA
ATOM     45  O   UNL     1      15.037   8.679  32.828  0.00  0.00    -0.576 OA
ENDBRANCH  41  43
BRANCH  40  46
ATOM     46  O   UNL     1      17.125  11.628  32.494  0.00  0.00    -0.501 OA
ATOM     47  H   UNL     1      16.152  11.641  32.487  0.00  0.00    +0.292 HD
ENDBRANCH  40  46
ENDBRANCH  35  37
ENDBRANCH  31  33
ENDBRANCH  30  31
ENDBRANCH  26  30
ENDBRANCH  25  28
ENDBRANCH   1  25
TORSDOF 16
