REMARK VINA RESULT:    -6.196      1.502      3.942
REMARK INTER + INTRA:         -12.915
REMARK INTER:                 -11.288
REMARK INTRA:                  -1.627
REMARK UNBOUND:                -2.191
REMARK  Name = lig_assembled_48.pdb
REMARK  16 active torsions:
REMARK  status: ('A' for Active; 'I' for Inactive)
REMARK    1  A    between atoms: _2  and  _9
REMARK    2  A    between atoms: _4  and  _18
REMARK    3  A    between atoms: _6  and  _7
REMARK    4  A    between atoms: _6  and  _18
REMARK    5  A    between atoms: _14  and  _34
REMARK    6  A    between atoms: _16  and  _22
REMARK    7  A    between atoms: _17  and  _21
REMARK    8  A    between atoms: _21  and  _22
REMARK    9  A    between atoms: _24  and  _25
REMARK   10  A    between atoms: _26  and  _27
REMARK   11  A    between atoms: _28  and  _30
REMARK   12  A    between atoms: _30  and  _31
REMARK   13  A    between atoms: _30  and  _32
REMARK   14  A    between atoms: _32  and  _33
REMARK   15  A    between atoms: _32  and  _34
REMARK   16  A    between atoms: _35  and  _37
REMARK                            x       y       z     vdW  Elec       q    Type
REMARK                         _______ _______ _______ _____ _____    ______ ____
ROOT
ATOM      1  C   UNL     1       3.220   2.967  32.500  0.00  0.00    +0.163 C 
ENDROOT
BRANCH   1   2
ATOM      2  O   UNL     1       4.003   2.226  31.550  0.00  0.00    -0.388 OA
ATOM      3  H   UNL     1       3.448   1.571  31.119  0.00  0.00    +0.210 HD
ENDBRANCH   1   2
BRANCH   1   4
ATOM      4  C   UNL     1       2.099   3.714  31.783  0.00  0.00    +0.141 C 
BRANCH   4   7
ATOM      5  C   UNL     1       1.174   3.853  29.496  0.00  0.00    +0.401 C 
ATOM      6  O   UNL     1       0.091   4.316  29.861  0.00  0.00    -0.226 OA
ATOM      7  N   UNL     1       2.168   3.537  30.327  0.00  0.00    -0.279 N 
ATOM      8  H   UNL     1       3.016   3.154  29.933  0.00  0.00    +0.152 HD
BRANCH   5   9
ATOM      9  O   UNL     1       1.399   3.630  28.101  0.00  0.00    -0.444 OA
BRANCH   9  10
ATOM     10  C   UNL     1       0.245   3.014  27.524  0.00  0.00    +0.292 C 
BRANCH  10  12
ATOM     11  N   UNL     1      -0.260   5.070  26.250  0.00  0.00    -0.131 NA
ATOM     12  C   UNL     1      -0.131   3.710  26.280  0.00  0.00    +0.120 A 
ATOM     13  C   UNL     1      -0.380   3.206  25.022  0.00  0.00    +0.137 A 
ATOM     14  N   UNL     1      -0.560   4.313  24.248  0.00  0.00    -0.248 N 
ATOM     15  N   UNL     1      -0.560   5.428  25.010  0.00  0.00    -0.065 NA
BRANCH  14  16
ATOM     16  C   UNL     1      -0.685   4.453  22.801  0.00  0.00    +0.109 C 
ATOM     17  C   UNL     1       0.343   5.461  22.252  0.00  0.00    +0.027 C 
ATOM     18  C   UNL     1       1.758   4.889  22.281  0.00  0.00    +0.002 C 
ATOM     19  C   UNL     1       1.847   3.619  21.443  0.00  0.00    +0.000 C 
ATOM     20  C   UNL     1       0.814   2.574  21.854  0.00  0.00    +0.002 C 
ATOM     21  C   UNL     1      -0.603   3.144  21.992  0.00  0.00    +0.027 C 
ENDBRANCH  14  16
ENDBRANCH  10  12
ENDBRANCH   9  10
ENDBRANCH   5   9
ENDBRANCH   4   7
ENDBRANCH   1   4
BRANCH   1  22
ATOM     22  C   UNL     1       4.095   3.971  33.270  0.00  0.00    +0.175 C 
BRANCH  22  23
ATOM     23  C   UNL     1       5.501   3.418  33.547  0.00  0.00    +0.176 C 
ATOM     24  O   UNL     1       5.358   2.053  34.028  0.00  0.00    -0.332 OA
ATOM     25  C   UNL     1       6.610   1.323  34.246  0.00  0.00    +0.277 C 
ATOM     26  C   UNL     1       7.540   2.117  35.196  0.00  0.00    +0.110 C 
ATOM     27  C   UNL     1       7.698   3.584  34.743  0.00  0.00    +0.143 C 
ATOM     28  C   UNL     1       6.334   4.246  34.543  0.00  0.00    +0.133 C 
BRANCH  28  29
ATOM     29  N   UNL     1       6.496   5.615  34.029  0.00  0.00    -0.308 N 
ATOM     30  H   UNL     1       6.808   5.727  33.074  0.00  0.00    +0.149 HD
ATOM     31  C   UNL     1       6.258   6.720  34.741  0.00  0.00    +0.210 C 
ATOM     32  C   UNL     1       5.810   6.517  36.200  0.00  0.00    +0.109 C 
ATOM     33  O   UNL     1       6.389   7.854  34.279  0.00  0.00    -0.276 OA
ENDBRANCH  28  29
BRANCH  25  34
ATOM     34  C   UNL     1       7.335   1.068  32.909  0.00  0.00    +0.414 C 
ATOM     35  O   UNL     1       6.717   0.618  31.944  0.00  0.00    -0.240 OA
ATOM     36  O   UNL     1       8.537   1.313  32.793  0.00  0.00    -0.240 OA
ENDBRANCH  25  34
BRANCH  27  37
ATOM     37  O   UNL     1       8.436   4.314  35.724  0.00  0.00    -0.390 OA
ATOM     38  H   UNL     1       8.586   3.758  36.492  0.00  0.00    +0.210 HD
ENDBRANCH  27  37
BRANCH  25  39
ATOM     39  O   UNL     1       6.287   0.057  34.876  0.00  0.00    -0.343 OA
ATOM     40  C   UNL     1       7.400  -0.865  35.004  0.00  0.00    +0.198 C 
ENDBRANCH  25  39
ENDBRANCH  22  23
BRANCH  22  41
ATOM     41  O   UNL     1       3.454   4.342  34.507  0.00  0.00    -0.387 OA
ATOM     42  H   UNL     1       2.832   5.055  34.344  0.00  0.00    +0.210 HD
ENDBRANCH  22  41
ENDBRANCH   1  22
TORSDOF 14
