REMARK VINA RESULT:    -6.397     12.266     13.795
REMARK INTER + INTRA:         -13.622
REMARK INTER:                 -11.499
REMARK INTRA:                  -2.123
REMARK UNBOUND:                -1.802
REMARK  Name = lig_assembled_36.pdb
REMARK  18 active torsions:
REMARK  status: ('A' for Active; 'I' for Inactive)
REMARK    1  A    between atoms: _2  and  _10
REMARK    2  A    between atoms: _5  and  _21
REMARK    3  A    between atoms: _7  and  _8
REMARK    4  A    between atoms: _7  and  _21
REMARK    5  A    between atoms: _10  and  _11
REMARK    6  A    between atoms: _14  and  _15
REMARK    7  A    between atoms: _17  and  _37
REMARK    8  A    between atoms: _19  and  _25
REMARK    9  A    between atoms: _20  and  _24
REMARK   10  A    between atoms: _24  and  _25
REMARK   11  A    between atoms: _27  and  _28
REMARK   12  A    between atoms: _29  and  _30
REMARK   13  A    between atoms: _31  and  _33
REMARK   14  A    between atoms: _33  and  _34
REMARK   15  A    between atoms: _33  and  _35
REMARK   16  A    between atoms: _35  and  _36
REMARK   17  A    between atoms: _35  and  _37
REMARK   18  A    between atoms: _38  and  _40
REMARK                            x       y       z     vdW  Elec       q    Type
REMARK                         _______ _______ _______ _____ _____    ______ ____
ROOT
ATOM      1  C   UNL     1       7.771   2.395  34.066  0.00  0.00    +0.163 C 
ENDROOT
BRANCH   1   2
ATOM      2  O   UNL     1       8.441   2.643  35.313  0.00  0.00    -0.388 OA
ATOM      3  H   UNL     1       7.792   2.707  36.018  0.00  0.00    +0.210 HD
ENDBRANCH   1   2
BRANCH   1   4
ATOM      4  C   UNL     1       7.706   3.674  33.213  0.00  0.00    +0.175 C 
BRANCH   4   5
ATOM      5  C   UNL     1       6.930   4.798  33.915  0.00  0.00    +0.176 C 
ATOM      6  O   UNL     1       7.763   5.312  34.990  0.00  0.00    -0.332 OA
ATOM      7  C   UNL     1       7.225   6.470  35.710  0.00  0.00    +0.277 C 
ATOM      8  C   UNL     1       5.807   6.161  36.250  0.00  0.00    +0.110 C 
ATOM      9  C   UNL     1       4.893   5.582  35.150  0.00  0.00    +0.143 C 
ATOM     10  C   UNL     1       5.552   4.384  34.464  0.00  0.00    +0.133 C 
BRANCH  10  11
ATOM     11  N   UNL     1       4.710   3.895  33.361  0.00  0.00    -0.308 N 
ATOM     12  H   UNL     1       4.621   4.478  32.541  0.00  0.00    +0.149 HD
ATOM     13  C   UNL     1       4.056   2.730  33.373  0.00  0.00    +0.210 C 
ATOM     14  C   UNL     1       4.191   1.876  34.647  0.00  0.00    +0.109 C 
ATOM     15  O   UNL     1       3.369   2.339  32.428  0.00  0.00    -0.276 OA
ENDBRANCH  10  11
BRANCH   7  16
ATOM     16  C   UNL     1       7.169   7.708  34.791  0.00  0.00    +0.414 C 
ATOM     17  O   UNL     1       8.208   8.251  34.418  0.00  0.00    -0.240 OA
ATOM     18  O   UNL     1       6.085   8.163  34.423  0.00  0.00    -0.240 OA
ENDBRANCH   7  16
BRANCH   7  19
ATOM     19  O   UNL     1       8.096   6.740  36.840  0.00  0.00    -0.343 OA
ATOM     20  C   UNL     1       7.451   7.381  37.970  0.00  0.00    +0.198 C 
ENDBRANCH   7  19
BRANCH   9  21
ATOM     21  O   UNL     1       3.651   5.172  35.722  0.00  0.00    -0.390 OA
ATOM     22  H   UNL     1       3.367   5.821  36.371  0.00  0.00    +0.210 HD
ENDBRANCH   9  21
ENDBRANCH   4   5
BRANCH   4  23
ATOM     23  O   UNL     1       7.112   3.386  31.931  0.00  0.00    -0.387 OA
ATOM     24  H   UNL     1       6.573   4.131  31.654  0.00  0.00    +0.210 HD
ENDBRANCH   4  23
ENDBRANCH   1   4
BRANCH   1  25
ATOM     25  C   UNL     1       8.500   1.302  33.290  0.00  0.00    +0.141 C 
BRANCH  25  28
ATOM     26  C   UNL     1       6.675  -0.167  32.505  0.00  0.00    +0.401 C 
ATOM     27  O   UNL     1       6.204   0.673  31.735  0.00  0.00    -0.226 OA
ATOM     28  N   UNL     1       7.743   0.045  33.275  0.00  0.00    -0.279 N 
ATOM     29  H   UNL     1       8.049  -0.703  33.882  0.00  0.00    +0.152 HD
BRANCH  26  30
ATOM     30  O   UNL     1       6.053  -1.451  32.598  0.00  0.00    -0.444 OA
BRANCH  30  31
ATOM     31  C   UNL     1       6.736  -2.376  31.748  0.00  0.00    +0.292 C 
BRANCH  31  33
ATOM     32  N   UNL     1       4.947  -3.149  30.219  0.00  0.00    -0.131 NA
ATOM     33  C   UNL     1       6.091  -2.424  30.423  0.00  0.00    +0.120 A 
ATOM     34  C   UNL     1       6.446  -1.802  29.247  0.00  0.00    +0.137 A 
ATOM     35  N   UNL     1       5.426  -2.111  28.396  0.00  0.00    -0.247 N 
ATOM     36  N   UNL     1       4.557  -2.965  28.966  0.00  0.00    -0.065 NA
BRANCH  35  37
ATOM     37  C   UNL     1       5.208  -1.622  27.049  0.00  0.00    +0.180 C 
BRANCH  37  38
ATOM     38  C   UNL     1       5.929  -2.477  26.032  0.00  0.00    -0.026 A 
ATOM     39  C   UNL     1       7.280  -2.252  25.730  0.00  0.00    +0.007 A 
ATOM     40  C   UNL     1       7.940  -3.052  24.791  0.00  0.00    +0.019 A 
ATOM     41  C   UNL     1       7.257  -4.082  24.138  0.00  0.00    +0.052 A 
ATOM     42  C   UNL     1       5.905  -4.297  24.415  0.00  0.00    +0.019 A 
ATOM     43  C   UNL     1       5.244  -3.497  25.353  0.00  0.00    +0.007 A 
BRANCH  41  44
ATOM     44  C   UNL     1       7.942  -4.915  23.191  0.00  0.00    +0.099 C 
ATOM     45  N   UNL     1       8.503  -5.592  22.434  0.00  0.00    -0.191 NA
ENDBRANCH  41  44
ENDBRANCH  37  38
ENDBRANCH  35  37
ENDBRANCH  31  33
ENDBRANCH  30  31
ENDBRANCH  26  30
ENDBRANCH  25  28
ENDBRANCH   1  25
TORSDOF 16
