REMARK VINA RESULT:    -5.067     14.249     16.613
REMARK INTER + INTRA:         -12.515
REMARK INTER:                  -9.901
REMARK INTRA:                  -2.614
REMARK UNBOUND:                -3.154
REMARK  Name = lig_assembled_67.pdb
REMARK  18 active torsions:
REMARK  status: ('A' for Active; 'I' for Inactive)
REMARK    1  A    between atoms: _2  and  _9
REMARK    2  A    between atoms: _4  and  _19
REMARK    3  A    between atoms: _6  and  _7
REMARK    4  A    between atoms: _6  and  _19
REMARK    5  A    between atoms: _9  and  _10
REMARK    6  A    between atoms: _10  and  _11
REMARK    7  A    between atoms: _15  and  _35
REMARK    8  A    between atoms: _17  and  _23
REMARK    9  A    between atoms: _18  and  _22
REMARK   10  A    between atoms: _22  and  _23
REMARK   11  A    between atoms: _25  and  _26
REMARK   12  A    between atoms: _27  and  _28
REMARK   13  A    between atoms: _29  and  _31
REMARK   14  A    between atoms: _31  and  _32
REMARK   15  A    between atoms: _31  and  _33
REMARK   16  A    between atoms: _33  and  _34
REMARK   17  A    between atoms: _33  and  _35
REMARK   18  A    between atoms: _36  and  _38
REMARK                            x       y       z     vdW  Elec       q    Type
REMARK                         _______ _______ _______ _____ _____    ______ ____
ROOT
ATOM      1  C   UNL     1      18.400  10.615  29.739  0.00  0.00    +0.163 C 
ENDROOT
BRANCH   1   2
ATOM      2  O   UNL     1      17.109  10.777  30.348  0.00  0.00    -0.388 OA
ATOM      3  H   UNL     1      17.213  10.892  31.296  0.00  0.00    +0.210 HD
ENDBRANCH   1   2
BRANCH   1   4
ATOM      4  C   UNL     1      18.835   9.140  29.756  0.00  0.00    +0.175 C 
BRANCH   4   5
ATOM      5  C   UNL     1      18.122   8.340  30.856  0.00  0.00    +0.176 C 
ATOM      6  O   UNL     1      18.211   9.100  32.092  0.00  0.00    -0.332 OA
ATOM      7  C   UNL     1      17.489   8.537  33.237  0.00  0.00    +0.277 C 
ATOM      8  C   UNL     1      17.931   7.074  33.489  0.00  0.00    +0.110 C 
ATOM      9  C   UNL     1      17.883   6.234  32.196  0.00  0.00    +0.143 C 
ATOM     10  C   UNL     1      18.663   6.914  31.070  0.00  0.00    +0.133 C 
BRANCH  10  11
ATOM     11  N   UNL     1      18.537   6.148  29.820  0.00  0.00    -0.308 N 
ATOM     12  H   UNL     1      17.626   6.098  29.387  0.00  0.00    +0.149 HD
ATOM     13  C   UNL     1      19.549   5.514  29.221  0.00  0.00    +0.210 C 
ATOM     14  C   UNL     1      20.919   5.587  29.919  0.00  0.00    +0.109 C 
ATOM     15  O   UNL     1      19.417   4.892  28.166  0.00  0.00    -0.276 OA
ENDBRANCH  10  11
BRANCH   7  16
ATOM     16  C   UNL     1      15.966   8.581  32.998  0.00  0.00    +0.414 C 
ATOM     17  O   UNL     1      15.433   9.609  32.583  0.00  0.00    -0.240 OA
ATOM     18  O   UNL     1      15.270   7.589  33.220  0.00  0.00    -0.240 OA
ENDBRANCH   7  16
BRANCH   9  19
ATOM     19  O   UNL     1      18.439   4.942  32.440  0.00  0.00    -0.390 OA
ATOM     20  H   UNL     1      19.320   5.036  32.809  0.00  0.00    +0.210 HD
ENDBRANCH   9  19
BRANCH   7  21
ATOM     21  O   UNL     1      17.823   9.324  34.409  0.00  0.00    -0.343 OA
ATOM     22  C   UNL     1      17.108   8.957  35.616  0.00  0.00    +0.198 C 
ENDBRANCH   7  21
ENDBRANCH   4   5
BRANCH   4  23
ATOM     23  O   UNL     1      20.264   9.046  29.921  0.00  0.00    -0.387 OA
ATOM     24  H   UNL     1      20.546   9.641  30.620  0.00  0.00    +0.210 HD
ENDBRANCH   4  23
ENDBRANCH   1   4
BRANCH   1  25
ATOM     25  C   UNL     1      18.365  11.119  28.300  0.00  0.00    +0.141 C 
BRANCH  25  28
ATOM     26  C   UNL     1      20.112  10.481  26.674  0.00  0.00    +0.401 C 
ATOM     27  O   UNL     1      20.683  11.573  26.716  0.00  0.00    -0.226 OA
ATOM     28  N   UNL     1      19.018  10.184  27.376  0.00  0.00    -0.279 N 
ATOM     29  H   UNL     1      18.617   9.263  27.267  0.00  0.00    +0.152 HD
BRANCH  26  30
ATOM     30  O   UNL     1      20.635   9.457  25.823  0.00  0.00    -0.444 OA
BRANCH  30  31
ATOM     31  C   UNL     1      20.652   8.213  26.529  0.00  0.00    +0.292 C 
BRANCH  31  33
ATOM     32  N   UNL     1      21.167   6.162  25.242  0.00  0.00    -0.131 NA
ATOM     33  C   UNL     1      20.256   7.108  25.635  0.00  0.00    +0.120 A 
ATOM     34  C   UNL     1      19.036   6.818  25.068  0.00  0.00    +0.137 A 
ATOM     35  N   UNL     1      19.271   5.691  24.341  0.00  0.00    -0.251 N 
ATOM     36  N   UNL     1      20.551   5.300  24.446  0.00  0.00    -0.065 NA
BRANCH  35  37
ATOM     37  C   UNL     1      18.336   4.930  23.542  0.00  0.00    +0.150 C 
BRANCH  37  38
ATOM     38  C   UNL     1      18.312   3.441  23.882  0.00  0.00    +0.084 C 
BRANCH  38  39
ATOM     39  C   UNL     1      17.362   2.656  22.989  0.00  0.00    +0.252 C 
ATOM     40  O   UNL     1      16.748   3.528  22.033  0.00  0.00    -0.349 OA
ATOM     41  C   UNL     1      16.499   2.669  20.923  0.00  0.00    +0.191 C 
ATOM     42  C   UNL     1      17.691   1.747  20.924  0.00  0.00    +0.191 C 
ATOM     43  O   UNL     1      18.067   1.622  22.296  0.00  0.00    -0.349 OA
ENDBRANCH  38  39
ENDBRANCH  37  38
ENDBRANCH  35  37
ENDBRANCH  31  33
ENDBRANCH  30  31
ENDBRANCH  26  30
ENDBRANCH  25  28
ENDBRANCH   1  25
TORSDOF 16
