REMARK VINA RESULT:    -5.940      6.742     11.657
REMARK INTER + INTRA:         -12.346
REMARK INTER:                 -10.631
REMARK INTRA:                  -1.714
REMARK UNBOUND:                -2.065
REMARK  Name = lig_assembled_49.pdb
REMARK  16 active torsions:
REMARK  status: ('A' for Active; 'I' for Inactive)
REMARK    1  A    between atoms: _2  and  _9
REMARK    2  A    between atoms: _4  and  _17
REMARK    3  A    between atoms: _6  and  _7
REMARK    4  A    between atoms: _6  and  _17
REMARK    5  A    between atoms: _13  and  _33
REMARK    6  A    between atoms: _15  and  _21
REMARK    7  A    between atoms: _16  and  _20
REMARK    8  A    between atoms: _20  and  _21
REMARK    9  A    between atoms: _23  and  _24
REMARK   10  A    between atoms: _25  and  _26
REMARK   11  A    between atoms: _27  and  _29
REMARK   12  A    between atoms: _29  and  _30
REMARK   13  A    between atoms: _29  and  _31
REMARK   14  A    between atoms: _31  and  _32
REMARK   15  A    between atoms: _31  and  _33
REMARK   16  A    between atoms: _34  and  _36
REMARK                            x       y       z     vdW  Elec       q    Type
REMARK                         _______ _______ _______ _____ _____    ______ ____
ROOT
ATOM      1  C   UNL     1       8.473   3.073  35.681  0.00  0.00    +0.175 C 
ENDROOT
BRANCH   1   2
ATOM      2  C   UNL     1       7.694   4.344  35.312  0.00  0.00    +0.176 C 
ATOM      3  O   UNL     1       7.446   5.087  36.537  0.00  0.00    -0.332 OA
ATOM      4  C   UNL     1       6.799   6.392  36.368  0.00  0.00    +0.277 C 
ATOM      5  C   UNL     1       5.481   6.243  35.570  0.00  0.00    +0.110 C 
ATOM      6  C   UNL     1       5.688   5.432  34.274  0.00  0.00    +0.143 C 
ATOM      7  C   UNL     1       6.370   4.095  34.566  0.00  0.00    +0.133 C 
BRANCH   7   8
ATOM      8  N   UNL     1       6.640   3.370  33.315  0.00  0.00    -0.308 N 
ATOM      9  H   UNL     1       7.306   3.773  32.670  0.00  0.00    +0.149 HD
ATOM     10  C   UNL     1       6.063   2.214  32.975  0.00  0.00    +0.210 C 
ATOM     11  C   UNL     1       5.034   1.639  33.966  0.00  0.00    +0.109 C 
ATOM     12  O   UNL     1       6.320   1.621  31.926  0.00  0.00    -0.276 OA
ENDBRANCH   7   8
BRANCH   4  13
ATOM     13  C   UNL     1       7.736   7.375  35.636  0.00  0.00    +0.414 C 
ATOM     14  O   UNL     1       7.298   8.103  34.745  0.00  0.00    -0.240 OA
ATOM     15  O   UNL     1       8.929   7.441  35.935  0.00  0.00    -0.240 OA
ENDBRANCH   4  13
BRANCH   6  16
ATOM     16  O   UNL     1       4.426   5.190  33.650  0.00  0.00    -0.390 OA
ATOM     17  H   UNL     1       3.942   6.015  33.574  0.00  0.00    +0.210 HD
ENDBRANCH   6  16
BRANCH   4  18
ATOM     18  O   UNL     1       6.481   6.910  37.685  0.00  0.00    -0.343 OA
ATOM     19  C   UNL     1       5.911   5.942  38.602  0.00  0.00    +0.198 C 
ENDBRANCH   4  18
ENDBRANCH   1   2
BRANCH   1  20
ATOM     20  O   UNL     1       8.836   3.100  37.075  0.00  0.00    -0.387 OA
ATOM     21  H   UNL     1       9.215   2.253  37.324  0.00  0.00    +0.210 HD
ENDBRANCH   1  20
BRANCH   1  22
ATOM     22  C   UNL     1       9.728   2.891  34.809  0.00  0.00    +0.163 C 
BRANCH  22  23
ATOM     23  O   UNL     1       9.413   2.191  33.594  0.00  0.00    -0.388 OA
ATOM     24  H   UNL     1       9.992   1.431  33.503  0.00  0.00    +0.210 HD
ENDBRANCH  22  23
BRANCH  22  25
ATOM     25  C   UNL     1      10.786   2.122  35.595  0.00  0.00    +0.141 C 
BRANCH  25  28
ATOM     26  C   UNL     1      13.087   2.996  35.382  0.00  0.00    +0.401 C 
ATOM     27  O   UNL     1      13.372   2.277  34.422  0.00  0.00    -0.226 OA
ATOM     28  N   UNL     1      11.904   2.985  35.996  0.00  0.00    -0.279 N 
ATOM     29  H   UNL     1      11.768   3.605  36.782  0.00  0.00    +0.152 HD
BRANCH  26  30
ATOM     30  O   UNL     1      14.072   3.902  35.888  0.00  0.00    -0.444 OA
BRANCH  30  31
ATOM     31  C   UNL     1      15.169   3.974  34.973  0.00  0.00    +0.292 C 
BRANCH  31  33
ATOM     32  N   UNL     1      14.639   6.390  35.023  0.00  0.00    -0.131 NA
ATOM     33  C   UNL     1      15.306   5.344  34.443  0.00  0.00    +0.120 A 
ATOM     34  C   UNL     1      16.037   5.812  33.375  0.00  0.00    +0.137 A 
ATOM     35  N   UNL     1      15.768   7.149  33.353  0.00  0.00    -0.248 N 
ATOM     36  N   UNL     1      14.931   7.492  34.347  0.00  0.00    -0.065 NA
BRANCH  35  37
ATOM     37  C   UNL     1      16.253   8.132  32.414  0.00  0.00    +0.109 C 
ATOM     38  C   UNL     1      16.496   9.511  33.032  0.00  0.00    +0.027 C 
ATOM     39  C   UNL     1      17.384  10.190  32.003  0.00  0.00    +0.002 C 
ATOM     40  C   UNL     1      18.331   9.090  31.541  0.00  0.00    +0.002 C 
ATOM     41  C   UNL     1      17.584   7.769  31.742  0.00  0.00    +0.027 C 
ENDBRANCH  35  37
ENDBRANCH  31  33
ENDBRANCH  30  31
ENDBRANCH  26  30
ENDBRANCH  25  28
ENDBRANCH  22  25
ENDBRANCH   1  22
TORSDOF 14
