REMARK VINA RESULT:    -6.126     14.873     18.507
REMARK INTER + INTRA:         -12.866
REMARK INTER:                 -10.600
REMARK INTRA:                  -2.266
REMARK UNBOUND:                -1.905
REMARK  Name = lig_assembled_38.pdb
REMARK  17 active torsions:
REMARK  status: ('A' for Active; 'I' for Inactive)
REMARK    1  A    between atoms: _2  and  _9
REMARK    2  A    between atoms: _4  and  _19
REMARK    3  A    between atoms: _6  and  _7
REMARK    4  A    between atoms: _6  and  _19
REMARK    5  A    between atoms: _9  and  _10
REMARK    6  A    between atoms: _15  and  _35
REMARK    7  A    between atoms: _17  and  _23
REMARK    8  A    between atoms: _18  and  _22
REMARK    9  A    between atoms: _22  and  _23
REMARK   10  A    between atoms: _25  and  _26
REMARK   11  A    between atoms: _27  and  _28
REMARK   12  A    between atoms: _29  and  _31
REMARK   13  A    between atoms: _31  and  _32
REMARK   14  A    between atoms: _31  and  _33
REMARK   15  A    between atoms: _33  and  _34
REMARK   16  A    between atoms: _33  and  _35
REMARK   17  A    between atoms: _36  and  _38
REMARK                            x       y       z     vdW  Elec       q    Type
REMARK                         _______ _______ _______ _____ _____    ______ ____
ROOT
ATOM      1  C   UNL     1      18.854   5.021  24.999  0.00  0.00    +0.163 C 
ENDROOT
BRANCH   1   2
ATOM      2  O   UNL     1      18.043   5.343  23.857  0.00  0.00    -0.388 OA
ATOM      3  H   UNL     1      17.847   4.541  23.367  0.00  0.00    +0.210 HD
ENDBRANCH   1   2
BRANCH   1   4
ATOM      4  C   UNL     1      19.480   6.290  25.569  0.00  0.00    +0.141 C 
BRANCH   4   7
ATOM      5  C   UNL     1      19.377   6.178  28.035  0.00  0.00    +0.401 C 
ATOM      6  O   UNL     1      20.328   5.398  28.133  0.00  0.00    -0.226 OA
ATOM      7  N   UNL     1      18.910   6.642  26.875  0.00  0.00    -0.279 N 
ATOM      8  H   UNL     1      18.119   7.270  26.896  0.00  0.00    +0.152 HD
BRANCH   5   9
ATOM      9  O   UNL     1      18.718   6.623  29.223  0.00  0.00    -0.444 OA
BRANCH   9  10
ATOM     10  C   UNL     1      19.091   7.976  29.499  0.00  0.00    +0.292 C 
BRANCH  10  12
ATOM     11  N   UNL     1      17.926   9.883  30.567  0.00  0.00    -0.131 NA
ATOM     12  C   UNL     1      18.222   8.546  30.547  0.00  0.00    +0.120 A 
ATOM     13  C   UNL     1      17.565   7.925  31.586  0.00  0.00    +0.137 A 
ATOM     14  N   UNL     1      16.842   8.927  32.166  0.00  0.00    -0.247 N 
ATOM     15  N   UNL     1      17.074  10.105  31.558  0.00  0.00    -0.065 NA
BRANCH  14  16
ATOM     16  C   UNL     1      15.758   8.798  33.123  0.00  0.00    +0.180 C 
BRANCH  16  17
ATOM     17  C   UNL     1      16.175   9.078  34.546  0.00  0.00    -0.025 A 
ATOM     18  C   UNL     1      16.508   8.030  35.419  0.00  0.00    +0.005 A 
ATOM     19  C   UNL     1      16.981   8.301  36.708  0.00  0.00    +0.001 A 
ATOM     20  C   UNL     1      17.126   9.619  37.138  0.00  0.00    +0.015 A 
ATOM     21  C   UNL     1      16.789  10.662  36.281  0.00  0.00    +0.018 A 
ATOM     22 BR   UNL     1      16.993  12.451  36.857  0.00  0.00    -0.050 Br
ATOM     23  C   UNL     1      16.316  10.402  34.993  0.00  0.00    +0.020 A 
ENDBRANCH  16  17
ENDBRANCH  14  16
ENDBRANCH  10  12
ENDBRANCH   9  10
ENDBRANCH   5   9
ENDBRANCH   4   7
ENDBRANCH   1   4
BRANCH   1  24
ATOM     24  C   UNL     1      19.965   4.025  24.621  0.00  0.00    +0.175 C 
BRANCH  24  25
ATOM     25  C   UNL     1      19.399   2.662  24.197  0.00  0.00    +0.176 C 
ATOM     26  O   UNL     1      18.762   2.826  22.900  0.00  0.00    -0.332 OA
ATOM     27  C   UNL     1      18.253   1.597  22.284  0.00  0.00    +0.277 C 
ATOM     28  C   UNL     1      17.290   0.866  23.251  0.00  0.00    +0.110 C 
ATOM     29  C   UNL     1      17.911   0.696  24.654  0.00  0.00    +0.143 C 
ATOM     30  C   UNL     1      18.410   2.035  25.198  0.00  0.00    +0.133 C 
BRANCH  30  31
ATOM     31  N   UNL     1      19.078   1.847  26.496  0.00  0.00    -0.308 N 
ATOM     32  H   UNL     1      19.953   1.342  26.508  0.00  0.00    +0.149 HD
ATOM     33  C   UNL     1      18.603   2.301  27.659  0.00  0.00    +0.210 C 
ATOM     34  C   UNL     1      17.254   3.044  27.611  0.00  0.00    +0.109 C 
ATOM     35  O   UNL     1      19.191   2.141  28.729  0.00  0.00    -0.276 OA
ENDBRANCH  30  31
BRANCH  27  36
ATOM     36  C   UNL     1      19.414   0.655  21.903  0.00  0.00    +0.414 C 
ATOM     37  O   UNL     1      19.268  -0.566  21.963  0.00  0.00    -0.240 OA
ATOM     38  O   UNL     1      20.496   1.114  21.535  0.00  0.00    -0.240 OA
ENDBRANCH  27  36
BRANCH  27  39
ATOM     39  O   UNL     1      17.512   1.966  21.093  0.00  0.00    -0.343 OA
ATOM     40  C   UNL     1      16.504   2.989  21.291  0.00  0.00    +0.198 C 
ENDBRANCH  27  39
BRANCH  29  41
ATOM     41  O   UNL     1      16.939   0.157  25.550  0.00  0.00    -0.390 OA
ATOM     42  H   UNL     1      17.302  -0.613  25.993  0.00  0.00    +0.210 HD
ENDBRANCH  29  41
ENDBRANCH  24  25
BRANCH  24  43
ATOM     43  O   UNL     1      20.881   3.862  25.722  0.00  0.00    -0.387 OA
ATOM     44  H   UNL     1      20.822   2.965  26.058  0.00  0.00    +0.210 HD
ENDBRANCH  24  43
ENDBRANCH   1  24
TORSDOF 15
