REMARK VINA RESULT:    -5.609     14.813     16.893
REMARK INTER + INTRA:         -13.009
REMARK INTER:                 -11.129
REMARK INTRA:                  -1.880
REMARK UNBOUND:                -2.810
REMARK  Name = lig_assembled_53.pdb
REMARK  18 active torsions:
REMARK  status: ('A' for Active; 'I' for Inactive)
REMARK    1  A    between atoms: _2  and  _9
REMARK    2  A    between atoms: _4  and  _16
REMARK    3  A    between atoms: _5  and  _9
REMARK    4  A    between atoms: _5  and  _10
REMARK    5  A    between atoms: _6  and  _7
REMARK    6  A    between atoms: _6  and  _16
REMARK    7  A    between atoms: _12  and  _32
REMARK    8  A    between atoms: _14  and  _20
REMARK    9  A    between atoms: _15  and  _19
REMARK   10  A    between atoms: _19  and  _20
REMARK   11  A    between atoms: _22  and  _23
REMARK   12  A    between atoms: _24  and  _25
REMARK   13  A    between atoms: _26  and  _28
REMARK   14  A    between atoms: _28  and  _29
REMARK   15  A    between atoms: _28  and  _30
REMARK   16  A    between atoms: _30  and  _31
REMARK   17  A    between atoms: _30  and  _32
REMARK   18  A    between atoms: _33  and  _35
REMARK                            x       y       z     vdW  Elec       q    Type
REMARK                         _______ _______ _______ _____ _____    ______ ____
ROOT
ATOM      1  C   UNL     1       4.965   3.047  32.992  0.00  0.00    +0.175 C 
ENDROOT
BRANCH   1   2
ATOM      2  C   UNL     1       5.468   3.736  34.268  0.00  0.00    +0.176 C 
ATOM      3  O   UNL     1       5.466   5.171  34.032  0.00  0.00    -0.332 OA
ATOM      4  C   UNL     1       5.819   6.004  35.186  0.00  0.00    +0.277 C 
ATOM      5  C   UNL     1       7.188   5.571  35.767  0.00  0.00    +0.110 C 
ATOM      6  C   UNL     1       7.249   4.048  36.005  0.00  0.00    +0.143 C 
ATOM      7  C   UNL     1       6.860   3.279  34.742  0.00  0.00    +0.133 C 
BRANCH   7   8
ATOM      8  N   UNL     1       6.839   1.831  35.006  0.00  0.00    -0.308 N 
ATOM      9  H   UNL     1       6.159   1.483  35.666  0.00  0.00    +0.149 HD
ATOM     10  C   UNL     1       7.659   0.949  34.430  0.00  0.00    +0.210 C 
ATOM     11  C   UNL     1       8.702   1.515  33.447  0.00  0.00    +0.109 C 
ATOM     12  O   UNL     1       7.608  -0.260  34.659  0.00  0.00    -0.276 OA
ENDBRANCH   7   8
BRANCH   4  13
ATOM     13  C   UNL     1       4.739   5.905  36.283  0.00  0.00    +0.414 C 
ATOM     14  O   UNL     1       3.598   5.540  36.000  0.00  0.00    -0.240 OA
ATOM     15  O   UNL     1       5.007   6.189  37.451  0.00  0.00    -0.240 OA
ENDBRANCH   4  13
BRANCH   4  16
ATOM     16  O   UNL     1       5.929   7.377  34.732  0.00  0.00    -0.343 OA
ATOM     17  C   UNL     1       7.276   7.815  34.424  0.00  0.00    +0.198 C 
ENDBRANCH   4  16
BRANCH   6  18
ATOM     18  O   UNL     1       8.571   3.674  36.395  0.00  0.00    -0.390 OA
ATOM     19  H   UNL     1       9.012   4.427  36.797  0.00  0.00    +0.210 HD
ENDBRANCH   6  18
ENDBRANCH   1   2
BRANCH   1  20
ATOM     20  O   UNL     1       5.975   3.104  31.965  0.00  0.00    -0.387 OA
ATOM     21  H   UNL     1       5.598   3.476  31.164  0.00  0.00    +0.210 HD
ENDBRANCH   1  20
BRANCH   1  22
ATOM     22  C   UNL     1       3.653   3.665  32.479  0.00  0.00    +0.163 C 
BRANCH  22  23
ATOM     23  O   UNL     1       2.786   4.010  33.572  0.00  0.00    -0.388 OA
ATOM     24  H   UNL     1       3.313   4.313  34.315  0.00  0.00    +0.210 HD
ENDBRANCH  22  23
BRANCH  22  25
ATOM     25  C   UNL     1       2.954   2.677  31.550  0.00  0.00    +0.141 C 
BRANCH  25  28
ATOM     26  C   UNL     1       1.468   3.164  29.637  0.00  0.00    +0.401 C 
ATOM     27  O   UNL     1       0.511   2.539  30.100  0.00  0.00    -0.226 OA
ATOM     28  N   UNL     1       2.650   3.275  30.244  0.00  0.00    -0.279 N 
ATOM     29  H   UNL     1       3.377   3.800  29.780  0.00  0.00    +0.152 HD
BRANCH  26  30
ATOM     30  O   UNL     1       1.326   3.812  28.370  0.00  0.00    -0.444 OA
BRANCH  30  31
ATOM     31  C   UNL     1       0.210   3.256  27.671  0.00  0.00    +0.292 C 
BRANCH  31  33
ATOM     32  N   UNL     1      -0.425   5.177  26.242  0.00  0.00    -0.131 NA
ATOM     33  C   UNL     1       0.053   3.900  26.353  0.00  0.00    +0.120 A 
ATOM     34  C   UNL     1       0.323   3.410  25.095  0.00  0.00    +0.137 A 
ATOM     35  N   UNL     1      -0.072   4.409  24.257  0.00  0.00    -0.241 N 
ATOM     36  N   UNL     1      -0.478   5.488  24.955  0.00  0.00    -0.065 NA
BRANCH  35  37
ATOM     37  C   UNL     1       0.032   4.519  22.817  0.00  0.00    +0.265 C 
BRANCH  37  38
ATOM     38  C   UNL     1       1.384   4.927  22.298  0.00  0.00    +0.326 C 
ATOM     39  O   UNL     1       1.947   4.495  21.303  0.00  0.00    -0.249 OA
BRANCH  38  40
ATOM     40  O   UNL     1       1.980   5.866  23.081  0.00  0.00    -0.479 OA
ATOM     41  H   UNL     1       2.074   5.637  24.025  0.00  0.00    +0.295 HD
ENDBRANCH  38  40
ENDBRANCH  37  38
ENDBRANCH  35  37
ENDBRANCH  31  33
ENDBRANCH  30  31
ENDBRANCH  26  30
ENDBRANCH  25  28
ENDBRANCH  22  25
ENDBRANCH   1  22
TORSDOF 16
