REMARK VINA RESULT:    -6.471     19.302     23.039
REMARK INTER + INTRA:         -13.353
REMARK INTER:                  -9.527
REMARK INTRA:                  -3.826
REMARK UNBOUND:                -1.775
REMARK  Name = lig_assembled_69.pdb
REMARK  18 active torsions:
REMARK  status: ('A' for Active; 'I' for Inactive)
REMARK    1  A    between atoms: _2  and  _9
REMARK    2  A    between atoms: _4  and  _21
REMARK    3  A    between atoms: _6  and  _7
REMARK    4  A    between atoms: _6  and  _21
REMARK    5  A    between atoms: _11  and  _16
REMARK    6  A    between atoms: _14  and  _15
REMARK    7  A    between atoms: _17  and  _37
REMARK    8  A    between atoms: _19  and  _25
REMARK    9  A    between atoms: _20  and  _24
REMARK   10  A    between atoms: _24  and  _25
REMARK   11  A    between atoms: _27  and  _28
REMARK   12  A    between atoms: _29  and  _30
REMARK   13  A    between atoms: _31  and  _33
REMARK   14  A    between atoms: _33  and  _34
REMARK   15  A    between atoms: _33  and  _35
REMARK   16  A    between atoms: _35  and  _36
REMARK   17  A    between atoms: _35  and  _37
REMARK   18  A    between atoms: _38  and  _40
REMARK                            x       y       z     vdW  Elec       q    Type
REMARK                         _______ _______ _______ _____ _____    ______ ____
ROOT
ATOM      1  C   UNL     1      -4.219   9.189  10.179  0.00  0.00    +0.163 C 
ENDROOT
BRANCH   1   2
ATOM      2  O   UNL     1      -3.085   8.394  10.560  0.00  0.00    -0.388 OA
ATOM      3  H   UNL     1      -3.240   8.009  11.426  0.00  0.00    +0.210 HD
ENDBRANCH   1   2
BRANCH   1   4
ATOM      4  C   UNL     1      -4.249  10.515  10.959  0.00  0.00    +0.175 C 
BRANCH   4   5
ATOM      5  C   UNL     1      -3.528  10.406  12.311  0.00  0.00    +0.176 C 
ATOM      6  O   UNL     1      -3.981   9.188  12.963  0.00  0.00    -0.332 OA
ATOM      7  C   UNL     1      -3.317   8.861  14.228  0.00  0.00    +0.277 C 
ATOM      8  C   UNL     1      -3.417  10.051  15.214  0.00  0.00    +0.110 C 
ATOM      9  C   UNL     1      -2.975  11.375  14.556  0.00  0.00    +0.143 C 
ATOM     10  C   UNL     1      -3.726  11.614  13.246  0.00  0.00    +0.133 C 
BRANCH  10  11
ATOM     11  N   UNL     1      -3.234  12.833  12.585  0.00  0.00    -0.308 N 
ATOM     12  H   UNL     1      -2.292  12.825  12.221  0.00  0.00    +0.149 HD
ATOM     13  C   UNL     1      -3.952  13.949  12.435  0.00  0.00    +0.210 C 
ATOM     14  C   UNL     1      -5.375  13.939  13.024  0.00  0.00    +0.109 C 
ATOM     15  O   UNL     1      -3.519  14.951  11.864  0.00  0.00    -0.276 OA
ENDBRANCH  10  11
BRANCH   7  16
ATOM     16  C   UNL     1      -1.834   8.510  13.992  0.00  0.00    +0.414 C 
ATOM     17  O   UNL     1      -1.013   8.643  14.899  0.00  0.00    -0.240 OA
ATOM     18  O   UNL     1      -1.457   8.092  12.896  0.00  0.00    -0.240 OA
ENDBRANCH   7  16
BRANCH   7  19
ATOM     19  O   UNL     1      -4.002   7.723  14.813  0.00  0.00    -0.343 OA
ATOM     20  C   UNL     1      -4.646   6.840  13.861  0.00  0.00    +0.198 C 
ENDBRANCH   7  19
BRANCH   9  21
ATOM     21  O   UNL     1      -3.225  12.463  15.447  0.00  0.00    -0.390 OA
ATOM     22  H   UNL     1      -2.471  13.058  15.446  0.00  0.00    +0.210 HD
ENDBRANCH   9  21
ENDBRANCH   4   5
BRANCH   4  23
ATOM     23  O   UNL     1      -5.610  10.945  11.156  0.00  0.00    -0.387 OA
ATOM     24  H   UNL     1      -5.674  11.890  10.998  0.00  0.00    +0.210 HD
ENDBRANCH   4  23
ENDBRANCH   1   4
BRANCH   1  25
ATOM     25  C   UNL     1      -4.172   9.480   8.682  0.00  0.00    +0.141 C 
BRANCH  25  28
ATOM     26  C   UNL     1      -2.057  10.179   7.613  0.00  0.00    +0.401 C 
ATOM     27  O   UNL     1      -1.814   9.063   7.147  0.00  0.00    -0.226 OA
ATOM     28  N   UNL     1      -3.133  10.462   8.347  0.00  0.00    -0.279 N 
ATOM     29  H   UNL     1      -3.240  11.405   8.693  0.00  0.00    +0.152 HD
BRANCH  26  30
ATOM     30  O   UNL     1      -1.140  11.248   7.366  0.00  0.00    -0.444 OA
BRANCH  30  31
ATOM     31  C   UNL     1      -1.721  12.483   7.793  0.00  0.00    +0.292 C 
BRANCH  31  33
ATOM     32  N   UNL     1      -1.223  12.306  10.207  0.00  0.00    -0.131 NA
ATOM     33  C   UNL     1      -1.060  12.966   9.019  0.00  0.00    +0.120 A 
ATOM     34  C   UNL     1      -0.241  14.055   9.218  0.00  0.00    +0.137 A 
ATOM     35  N   UNL     1       0.048  14.011  10.550  0.00  0.00    -0.248 N 
ATOM     36  N   UNL     1      -0.545  12.958  11.139  0.00  0.00    -0.065 NA
BRANCH  35  37
ATOM     37  C   UNL     1       0.835  14.961  11.333  0.00  0.00    +0.114 C 
ATOM     38  C   UNL     1       0.004  15.585  12.461  0.00  0.00    +0.062 C 
ATOM     39  C   UNL     1      -0.849  16.798  12.082  0.00  0.00    +0.139 C 
ATOM     40  C   UNL     1      -0.107  18.069  11.780  0.00  0.00    +0.002 C 
ATOM     41  C   UNL     1       1.175  18.226  11.414  0.00  0.00    +0.002 C 
ATOM     42  C   UNL     1       2.168  17.159  11.068  0.00  0.00    +0.139 C 
ATOM     43  C   UNL     1       1.567  15.931  10.394  0.00  0.00    +0.062 C 
BRANCH  39  44
ATOM     44  O   UNL     1      -1.677  17.098  13.213  0.00  0.00    -0.388 OA
ATOM     45  H   UNL     1      -1.090  17.205  13.981  0.00  0.00    +0.210 HD
ENDBRANCH  39  44
BRANCH  42  46
ATOM     46  O   UNL     1       2.882  16.785  12.236  0.00  0.00    -0.388 OA
ATOM     47  H   UNL     1       2.792  15.821  12.335  0.00  0.00    +0.210 HD
ENDBRANCH  42  46
ENDBRANCH  35  37
ENDBRANCH  31  33
ENDBRANCH  30  31
ENDBRANCH  26  30
ENDBRANCH  25  28
ENDBRANCH   1  25
TORSDOF 16
