REMARK VINA RESULT:    -7.394     23.551     28.230
REMARK INTER + INTRA:         -17.351
REMARK INTER:                 -14.135
REMARK INTRA:                  -3.216
REMARK UNBOUND:                -3.474
REMARK  Name = lig_assembled_34.pdb
REMARK  19 active torsions:
REMARK  status: ('A' for Active; 'I' for Inactive)
REMARK    1  A    between atoms: _2  and  _9
REMARK    2  A    between atoms: _4  and  _37
REMARK    3  A    between atoms: _6  and  _7
REMARK    4  A    between atoms: _6  and  _37
REMARK    5  A    between atoms: _11  and  _12
REMARK    6  A    between atoms: _13  and  _14
REMARK    7  A    between atoms: _18  and  _31
REMARK    8  A    between atoms: _33  and  _53
REMARK    9  A    between atoms: _35  and  _41
REMARK   10  A    between atoms: _36  and  _40
REMARK   11  A    between atoms: _40  and  _41
REMARK   12  A    between atoms: _43  and  _44
REMARK   13  A    between atoms: _45  and  _46
REMARK   14  A    between atoms: _47  and  _49
REMARK   15  A    between atoms: _49  and  _50
REMARK   16  A    between atoms: _49  and  _51
REMARK   17  A    between atoms: _51  and  _52
REMARK   18  A    between atoms: _51  and  _53
REMARK   19  A    between atoms: _54  and  _56
REMARK                            x       y       z     vdW  Elec       q    Type
REMARK                         _______ _______ _______ _____ _____    ______ ____
ROOT
ATOM      1  N   UNL     1      14.513   4.961  34.511  0.00  0.00    -0.131 NA
ATOM      2  C   UNL     1      14.528   5.718  35.648  0.00  0.00    +0.121 A 
ATOM      3  C   UNL     1      15.296   6.835  35.428  0.00  0.00    +0.143 A 
ATOM      4  N   UNL     1      15.716   6.742  34.119  0.00  0.00    -0.220 N 
ATOM      5  N   UNL     1      15.249   5.580  33.590  0.00  0.00    -0.060 NA
ENDROOT
BRANCH   4   6
ATOM      6  C   UNL     1      16.470   7.688  33.373  0.00  0.00    +0.068 A 
ATOM      7  C   UNL     1      17.569   7.260  32.623  0.00  0.00    +0.038 A 
ATOM      8  C   UNL     1      18.439   8.159  31.960  0.00  0.00    +0.007 A 
ATOM      9  C   UNL     1      18.140   9.536  31.998  0.00  0.00    -0.008 A 
ATOM     10  C   UNL     1      16.997   9.958  32.720  0.00  0.00    +0.011 A 
ATOM     11  C   UNL     1      16.177   9.052  33.415  0.00  0.00    +0.028 A 
BRANCH   9  12
ATOM     12  C   UNL     1      18.993  10.611  31.394  0.00  0.00    +0.004 A 
ATOM     13  C   UNL     1      19.920  11.302  32.117  0.00  0.00    +0.026 A 
ATOM     14  C   UNL     1      20.117  11.094  33.557  0.00  0.00    +0.016 A 
ATOM     15  C   UNL     1      20.896  11.910  34.284  0.00  0.00    +0.051 A 
ATOM     16  C   UNL     1      21.616  13.036  33.642  0.00  0.00    +0.183 A 
ATOM     17  O   UNL     1      22.280  13.828  34.305  0.00  0.00    -0.288 OA
ATOM     18  C   UNL     1      21.566  13.125  32.169  0.00  0.00    +0.097 A 
ATOM     19  C   UNL     1      20.797  12.288  31.460  0.00  0.00    +0.140 A 
ATOM     20  O   UNL     1      20.892  12.320  30.077  0.00  0.00    -0.455 OA
ATOM     21  C   UNL     1      19.944  11.662  29.340  0.00  0.00    +0.140 A 
ATOM     22  C   UNL     1      20.030  11.802  27.955  0.00  0.00    +0.092 A 
ATOM     23  C   UNL     1      19.068  11.210  27.151  0.00  0.00    +0.120 A 
ATOM     24  C   UNL     1      17.983  10.552  27.718  0.00  0.00    +0.046 A 
ATOM     25  C   UNL     1      17.917  10.409  29.107  0.00  0.00    +0.016 A 
ATOM     26  C   UNL     1      18.933  10.910  29.934  0.00  0.00    +0.026 A 
BRANCH  23  27
ATOM     27  O   UNL     1      19.223  11.284  25.798  0.00  0.00    -0.507 OA
ATOM     28  H   UNL     1      18.338  11.354  25.405  0.00  0.00    +0.292 HD
ENDBRANCH  23  27
ENDBRANCH   9  12
BRANCH   8  29
ATOM     29  C   UNL     1      19.677   7.558  31.323  0.00  0.00    +0.072 C 
ATOM     30  O   UNL     1      20.754   7.651  31.997  0.00  0.00    -0.545 OA
ATOM     31  O   UNL     1      19.580   7.080  30.155  0.00  0.00    -0.545 OA
ENDBRANCH   8  29
ENDBRANCH   4   6
BRANCH   2  32
ATOM     32  C   UNL     1      13.805   5.322  36.872  0.00  0.00    +0.292 C 
BRANCH  32  33
ATOM     33  O   UNL     1      13.846   3.904  37.049  0.00  0.00    -0.444 OA
BRANCH  33  34
ATOM     34  C   UNL     1      12.513   3.385  37.054  0.00  0.00    +0.401 C 
ATOM     35  O   UNL     1      11.780   3.626  38.016  0.00  0.00    -0.226 OA
ATOM     36  N   UNL     1      12.142   2.663  35.996  0.00  0.00    -0.279 N 
ATOM     37  H   UNL     1      12.812   2.527  35.252  0.00  0.00    +0.152 HD
BRANCH  36  38
ATOM     38  C   UNL     1      10.814   2.053  35.852  0.00  0.00    +0.141 C 
BRANCH  38  39
ATOM     39  C   UNL     1       9.856   2.953  35.079  0.00  0.00    +0.163 C 
BRANCH  39  40
ATOM     40  O   UNL     1       9.604   2.400  33.777  0.00  0.00    -0.388 OA
ATOM     41  H   UNL     1       9.194   3.066  33.220  0.00  0.00    +0.210 HD
ENDBRANCH  39  40
BRANCH  39  42
ATOM     42  C   UNL     1       8.547   3.111  35.873  0.00  0.00    +0.175 C 
BRANCH  42  43
ATOM     43  C   UNL     1       7.767   4.366  35.456  0.00  0.00    +0.176 C 
ATOM     44  O   UNL     1       7.471   5.129  36.658  0.00  0.00    -0.332 OA
ATOM     45  C   UNL     1       6.816   6.423  36.443  0.00  0.00    +0.277 C 
ATOM     46  C   UNL     1       5.526   6.244  35.606  0.00  0.00    +0.110 C 
ATOM     47  C   UNL     1       5.784   5.412  34.332  0.00  0.00    +0.143 C 
ATOM     48  C   UNL     1       6.471   4.088  34.671  0.00  0.00    +0.133 C 
BRANCH  48  49
ATOM     49  N   UNL     1       6.790   3.344  33.443  0.00  0.00    -0.308 N 
ATOM     50  H   UNL     1       7.460   3.750  32.806  0.00  0.00    +0.149 HD
ATOM     51  C   UNL     1       6.251   2.166  33.115  0.00  0.00    +0.210 C 
ATOM     52  C   UNL     1       5.213   1.586  34.095  0.00  0.00    +0.109 C 
ATOM     53  O   UNL     1       6.548   1.558  32.087  0.00  0.00    -0.276 OA
ENDBRANCH  48  49
BRANCH  45  54
ATOM     54  C   UNL     1       7.766   7.403  35.723  0.00  0.00    +0.414 C 
ATOM     55  O   UNL     1       8.961   7.434  36.014  0.00  0.00    -0.240 OA
ATOM     56  O   UNL     1       7.337   8.163  34.853  0.00  0.00    -0.240 OA
ENDBRANCH  45  54
BRANCH  47  57
ATOM     57  O   UNL     1       4.546   5.144  33.672  0.00  0.00    -0.390 OA
ATOM     58  H   UNL     1       4.058   4.480  34.164  0.00  0.00    +0.210 HD
ENDBRANCH  47  57
BRANCH  45  59
ATOM     59  O   UNL     1       6.450   6.962  37.739  0.00  0.00    -0.343 OA
ATOM     60  C   UNL     1       7.119   6.347  38.869  0.00  0.00    +0.198 C 
ENDBRANCH  45  59
ENDBRANCH  42  43
BRANCH  42  61
ATOM     61  O   UNL     1       8.825   3.146  37.287  0.00  0.00    -0.387 OA
ATOM     62  H   UNL     1       9.721   2.839  37.445  0.00  0.00    +0.210 HD
ENDBRANCH  42  61
ENDBRANCH  39  42
ENDBRANCH  38  39
ENDBRANCH  36  38
ENDBRANCH  33  34
ENDBRANCH  32  33
ENDBRANCH   2  32
TORSDOF 17
