REMARK VINA RESULT:    -6.540      7.706     13.605
REMARK INTER + INTRA:         -13.377
REMARK INTER:                 -11.545
REMARK INTRA:                  -1.832
REMARK UNBOUND:                -1.294
REMARK  Name = lig_assembled_24.pdb
REMARK  19 active torsions:
REMARK  status: ('A' for Active; 'I' for Inactive)
REMARK    1  A    between atoms: _2  and  _9
REMARK    2  A    between atoms: _4  and  _21
REMARK    3  A    between atoms: _6  and  _7
REMARK    4  A    between atoms: _6  and  _21
REMARK    5  A    between atoms: _9  and  _10
REMARK    6  A    between atoms: _13  and  _16
REMARK    7  A    between atoms: _14  and  _16
REMARK    8  A    between atoms: _17  and  _37
REMARK    9  A    between atoms: _19  and  _25
REMARK   10  A    between atoms: _20  and  _24
REMARK   11  A    between atoms: _24  and  _25
REMARK   12  A    between atoms: _27  and  _28
REMARK   13  A    between atoms: _29  and  _30
REMARK   14  A    between atoms: _31  and  _33
REMARK   15  A    between atoms: _33  and  _34
REMARK   16  A    between atoms: _33  and  _35
REMARK   17  A    between atoms: _35  and  _36
REMARK   18  A    between atoms: _35  and  _37
REMARK   19  A    between atoms: _38  and  _40
REMARK                            x       y       z     vdW  Elec       q    Type
REMARK                         _______ _______ _______ _____ _____    ______ ____
ROOT
ATOM      1  C   UNL     1       9.735   2.903  34.805  0.00  0.00    +0.163 C 
ENDROOT
BRANCH   1   2
ATOM      2  O   UNL     1       9.417   2.147  33.625  0.00  0.00    -0.388 OA
ATOM      3  H   UNL     1       9.393   1.211  33.840  0.00  0.00    +0.210 HD
ENDBRANCH   1   2
BRANCH   1   4
ATOM      4  C   UNL     1       8.489   3.094  35.687  0.00  0.00    +0.175 C 
BRANCH   4   5
ATOM      5  C   UNL     1       7.705   4.361  35.314  0.00  0.00    +0.176 C 
ATOM      6  O   UNL     1       7.455   5.109  36.536  0.00  0.00    -0.332 OA
ATOM      7  C   UNL     1       6.805   6.410  36.360  0.00  0.00    +0.277 C 
ATOM      8  C   UNL     1       5.486   6.253  35.564  0.00  0.00    +0.110 C 
ATOM      9  C   UNL     1       5.695   5.437  34.271  0.00  0.00    +0.143 C 
ATOM     10  C   UNL     1       6.382   4.104  34.569  0.00  0.00    +0.133 C 
BRANCH  10  11
ATOM     11  N   UNL     1       6.654   3.374  33.321  0.00  0.00    -0.308 N 
ATOM     12  H   UNL     1       7.323   3.773  32.678  0.00  0.00    +0.149 HD
ATOM     13  C   UNL     1       6.075   2.219  32.982  0.00  0.00    +0.210 C 
ATOM     14  C   UNL     1       5.041   1.650  33.972  0.00  0.00    +0.109 C 
ATOM     15  O   UNL     1       6.333   1.622  31.937  0.00  0.00    -0.276 OA
ENDBRANCH  10  11
BRANCH   7  16
ATOM     16  C   UNL     1       7.738   7.394  35.624  0.00  0.00    +0.414 C 
ATOM     17  O   UNL     1       7.293   8.128  34.742  0.00  0.00    -0.240 OA
ATOM     18  O   UNL     1       8.934   7.453  35.911  0.00  0.00    -0.240 OA
ENDBRANCH   7  16
BRANCH   7  19
ATOM     19  O   UNL     1       6.485   6.933  37.675  0.00  0.00    -0.343 OA
ATOM     20  C   UNL     1       5.862   5.984  38.577  0.00  0.00    +0.198 C 
ENDBRANCH   7  19
BRANCH   9  21
ATOM     21  O   UNL     1       4.434   5.188  33.649  0.00  0.00    -0.390 OA
ATOM     22  H   UNL     1       4.553   5.121  32.699  0.00  0.00    +0.210 HD
ENDBRANCH   9  21
ENDBRANCH   4   5
BRANCH   4  23
ATOM     23  O   UNL     1       8.867   3.136  37.078  0.00  0.00    -0.387 OA
ATOM     24  H   UNL     1       9.822   3.199  37.148  0.00  0.00    +0.210 HD
ENDBRANCH   4  23
ENDBRANCH   1   4
BRANCH   1  25
ATOM     25  C   UNL     1      10.821   2.191  35.604  0.00  0.00    +0.141 C 
BRANCH  25  28
ATOM     26  C   UNL     1      13.051   3.234  35.402  0.00  0.00    +0.401 C 
ATOM     27  O   UNL     1      13.371   2.579  34.407  0.00  0.00    -0.226 OA
ATOM     28  N   UNL     1      11.881   3.113  36.030  0.00  0.00    -0.279 N 
ATOM     29  H   UNL     1      11.715   3.688  36.844  0.00  0.00    +0.152 HD
BRANCH  26  30
ATOM     30  O   UNL     1      13.977   4.185  35.935  0.00  0.00    -0.444 OA
BRANCH  30  31
ATOM     31  C   UNL     1      15.193   4.141  35.182  0.00  0.00    +0.292 C 
BRANCH  31  33
ATOM     32  N   UNL     1      14.660   6.524  34.774  0.00  0.00    -0.131 NA
ATOM     33  C   UNL     1      15.398   5.413  34.465  0.00  0.00    +0.120 A 
ATOM     34  C   UNL     1      16.287   5.728  33.462  0.00  0.00    +0.137 A 
ATOM     35  N   UNL     1      16.093   7.062  33.250  0.00  0.00    -0.247 N 
ATOM     36  N   UNL     1      15.085   7.525  34.018  0.00  0.00    -0.065 NA
BRANCH  35  37
ATOM     37  C   UNL     1      16.813   8.005  32.410  0.00  0.00    +0.180 C 
BRANCH  37  38
ATOM     38  C   UNL     1      17.146   9.319  33.074  0.00  0.00    -0.026 A 
ATOM     39  C   UNL     1      16.574  10.513  32.616  0.00  0.00    +0.009 A 
ATOM     40  C   UNL     1      16.886  11.725  33.238  0.00  0.00    +0.046 A 
ATOM     41  C   UNL     1      17.753  11.762  34.331  0.00  0.00    +0.120 A 
ATOM     42  C   UNL     1      18.343  10.582  34.777  0.00  0.00    +0.046 A 
ATOM     43  C   UNL     1      18.042   9.366  34.153  0.00  0.00    +0.009 A 
BRANCH  41  44
ATOM     44  O   UNL     1      17.998  13.006  34.843  0.00  0.00    -0.495 OA
ATOM     45  C   UNL     1      19.155  13.661  34.333  0.00  0.00    +0.277 C 
ENDBRANCH  41  44
ENDBRANCH  37  38
ENDBRANCH  35  37
ENDBRANCH  31  33
ENDBRANCH  30  31
ENDBRANCH  26  30
ENDBRANCH  25  28
ENDBRANCH   1  25
TORSDOF 16
