REMARK VINA RESULT:    -5.015     14.360     18.155
REMARK INTER + INTRA:         -12.861
REMARK INTER:                 -11.210
REMARK INTRA:                  -1.651
REMARK UNBOUND:                -3.888
REMARK  Name = lig_assembled_46.pdb
REMARK  17 active torsions:
REMARK  status: ('A' for Active; 'I' for Inactive)
REMARK    1  A    between atoms: _2  and  _9
REMARK    2  A    between atoms: _4  and  _19
REMARK    3  A    between atoms: _6  and  _7
REMARK    4  A    between atoms: _6  and  _19
REMARK    5  A    between atoms: _9  and  _10
REMARK    6  A    between atoms: _15  and  _35
REMARK    7  A    between atoms: _17  and  _23
REMARK    8  A    between atoms: _18  and  _22
REMARK    9  A    between atoms: _22  and  _23
REMARK   10  A    between atoms: _25  and  _26
REMARK   11  A    between atoms: _27  and  _28
REMARK   12  A    between atoms: _29  and  _31
REMARK   13  A    between atoms: _31  and  _32
REMARK   14  A    between atoms: _31  and  _33
REMARK   15  A    between atoms: _33  and  _34
REMARK   16  A    between atoms: _33  and  _35
REMARK   17  A    between atoms: _36  and  _38
REMARK                            x       y       z     vdW  Elec       q    Type
REMARK                         _______ _______ _______ _____ _____    ______ ____
ROOT
ATOM      1  C   UNL     1      16.667   1.089  26.189  0.00  0.00    +0.163 C 
ENDROOT
BRANCH   1   2
ATOM      2  O   UNL     1      15.651   0.350  26.887  0.00  0.00    -0.388 OA
ATOM      3  H   UNL     1      15.181   0.936  27.484  0.00  0.00    +0.210 HD
ENDBRANCH   1   2
BRANCH   1   4
ATOM      4  C   UNL     1      16.768   2.501  26.757  0.00  0.00    +0.141 C 
BRANCH   4   7
ATOM      5  C   UNL     1      19.113   3.275  26.848  0.00  0.00    +0.401 C 
ATOM      6  O   UNL     1      19.348   2.735  27.932  0.00  0.00    -0.226 OA
ATOM      7  N   UNL     1      17.933   3.221  26.229  0.00  0.00    -0.279 N 
ATOM      8  H   UNL     1      17.834   3.704  25.347  0.00  0.00    +0.152 HD
BRANCH   5   9
ATOM      9  O   UNL     1      20.153   4.010  26.198  0.00  0.00    -0.444 OA
BRANCH   9  10
ATOM     10  C   UNL     1      19.642   5.272  25.758  0.00  0.00    +0.292 C 
BRANCH  10  12
ATOM     11  N   UNL     1      20.951   6.359  27.556  0.00  0.00    -0.131 NA
ATOM     12  C   UNL     1      19.802   6.288  26.816  0.00  0.00    +0.120 A 
ATOM     13  C   UNL     1      18.947   7.294  27.213  0.00  0.00    +0.137 A 
ATOM     14  N   UNL     1      19.658   7.979  28.157  0.00  0.00    -0.247 N 
ATOM     15  N   UNL     1      20.858   7.404  28.370  0.00  0.00    -0.065 NA
BRANCH  14  16
ATOM     16  C   UNL     1      19.372   9.297  28.696  0.00  0.00    +0.180 C 
BRANCH  16  17
ATOM     17  C   UNL     1      18.656   9.267  30.024  0.00  0.00    -0.026 A 
ATOM     18  C   UNL     1      18.270  10.456  30.663  0.00  0.00    +0.005 A 
ATOM     19  C   UNL     1      17.524  10.416  31.843  0.00  0.00    +0.000 A 
ATOM     20  C   UNL     1      17.153   9.193  32.396  0.00  0.00    +0.000 A 
ATOM     21  C   UNL     1      17.537   8.005  31.776  0.00  0.00    +0.000 A 
ATOM     22  C   UNL     1      18.284   8.041  30.597  0.00  0.00    +0.005 A 
ENDBRANCH  16  17
ENDBRANCH  14  16
ENDBRANCH  10  12
ENDBRANCH   9  10
ENDBRANCH   5   9
ENDBRANCH   4   7
ENDBRANCH   1   4
BRANCH   1  23
ATOM     23  C   UNL     1      16.358   1.162  24.684  0.00  0.00    +0.175 C 
BRANCH  23  24
ATOM     24  C   UNL     1      17.517   0.625  23.830  0.00  0.00    +0.176 C 
ATOM     25  O   UNL     1      17.515   1.350  22.569  0.00  0.00    -0.332 OA
ATOM     26  C   UNL     1      18.625   1.044  21.661  0.00  0.00    +0.277 C 
ATOM     27  C   UNL     1      18.696  -0.479  21.389  0.00  0.00    +0.110 C 
ATOM     28  C   UNL     1      18.668  -1.293  22.699  0.00  0.00    +0.143 C 
ATOM     29  C   UNL     1      17.476  -0.892  23.569  0.00  0.00    +0.133 C 
BRANCH  29  30
ATOM     30  N   UNL     1      17.509  -1.612  24.852  0.00  0.00    -0.308 N 
ATOM     31  H   UNL     1      18.238  -1.371  25.510  0.00  0.00    +0.149 HD
ATOM     32  C   UNL     1      16.640  -2.563  25.204  0.00  0.00    +0.210 C 
ATOM     33  C   UNL     1      15.558  -2.925  24.169  0.00  0.00    +0.109 C 
ATOM     34  O   UNL     1      16.683  -3.139  26.292  0.00  0.00    -0.276 OA
ENDBRANCH  29  30
BRANCH  26  35
ATOM     35  C   UNL     1      19.965   1.526  22.253  0.00  0.00    +0.414 C 
ATOM     36  O   UNL     1      21.030   1.162  21.754  0.00  0.00    -0.240 OA
ATOM     37  O   UNL     1      19.983   2.277  23.228  0.00  0.00    -0.240 OA
ENDBRANCH  26  35
BRANCH  26  38
ATOM     38  O   UNL     1      18.374   1.722  20.403  0.00  0.00    -0.343 OA
ATOM     39  C   UNL     1      16.986   1.746  19.986  0.00  0.00    +0.198 C 
ENDBRANCH  26  38
BRANCH  28  40
ATOM     40  O   UNL     1      18.583  -2.687  22.399  0.00  0.00    -0.390 OA
ATOM     41  H   UNL     1      17.835  -3.070  22.862  0.00  0.00    +0.210 HD
ENDBRANCH  28  40
ENDBRANCH  23  24
BRANCH  23  42
ATOM     42  O   UNL     1      16.048   2.518  24.305  0.00  0.00    -0.387 OA
ATOM     43  H   UNL     1      16.722   2.845  23.705  0.00  0.00    +0.210 HD
ENDBRANCH  23  42
ENDBRANCH   1  23
TORSDOF 15
