REMARK VINA RESULT:    -6.210     20.038     23.930
REMARK INTER + INTRA:         -12.662
REMARK INTER:                 -10.543
REMARK INTRA:                  -2.119
REMARK UNBOUND:                -1.914
REMARK  Name = lig_assembled_56.pdb
REMARK  16 active torsions:
REMARK  status: ('A' for Active; 'I' for Inactive)
REMARK    1  A    between atoms: _2  and  _10
REMARK    2  A    between atoms: _5  and  _18
REMARK    3  A    between atoms: _7  and  _8
REMARK    4  A    between atoms: _7  and  _18
REMARK    5  A    between atoms: _14  and  _34
REMARK    6  A    between atoms: _16  and  _22
REMARK    7  A    between atoms: _17  and  _21
REMARK    8  A    between atoms: _21  and  _22
REMARK    9  A    between atoms: _24  and  _25
REMARK   10  A    between atoms: _26  and  _27
REMARK   11  A    between atoms: _28  and  _30
REMARK   12  A    between atoms: _30  and  _31
REMARK   13  A    between atoms: _30  and  _32
REMARK   14  A    between atoms: _32  and  _33
REMARK   15  A    between atoms: _32  and  _34
REMARK   16  A    between atoms: _35  and  _37
REMARK                            x       y       z     vdW  Elec       q    Type
REMARK                         _______ _______ _______ _____ _____    ______ ____
ROOT
ATOM      1  C   UNL     1       9.713   2.942  34.833  0.00  0.00    +0.163 C 
ENDROOT
BRANCH   1   2
ATOM      2  O   UNL     1       9.454   1.955  33.822  0.00  0.00    -0.388 OA
ATOM      3  H   UNL     1       9.036   1.188  34.222  0.00  0.00    +0.210 HD
ENDBRANCH   1   2
BRANCH   1   4
ATOM      4  C   UNL     1      10.879   2.498  35.710  0.00  0.00    +0.141 C 
BRANCH   4   7
ATOM      5  C   UNL     1      11.951   4.226  37.114  0.00  0.00    +0.401 C 
ATOM      6  O   UNL     1      11.267   3.975  38.109  0.00  0.00    -0.226 OA
ATOM      7  N   UNL     1      11.832   3.589  35.949  0.00  0.00    -0.279 N 
ATOM      8  H   UNL     1      12.432   3.873  35.187  0.00  0.00    +0.152 HD
BRANCH   5   9
ATOM      9  O   UNL     1      12.934   5.261  37.190  0.00  0.00    -0.444 OA
BRANCH   9  10
ATOM     10  C   UNL     1      14.206   4.742  36.796  0.00  0.00    +0.292 C 
BRANCH  10  12
ATOM     11  N   UNL     1      14.670   4.842  34.368  0.00  0.00    -0.131 NA
ATOM     12  C   UNL     1      14.696   5.441  35.594  0.00  0.00    +0.121 A 
ATOM     13  C   UNL     1      15.222   6.707  35.464  0.00  0.00    +0.143 A 
ATOM     14  N   UNL     1      15.488   6.844  34.120  0.00  0.00    -0.220 N 
ATOM     15  N   UNL     1      15.154   5.698  33.479  0.00  0.00    -0.060 NA
BRANCH  14  16
ATOM     16  C   UNL     1      16.012   7.964  33.429  0.00  0.00    +0.070 A 
ATOM     17  C   UNL     1      15.590   9.260  33.734  0.00  0.00    +0.047 A 
ATOM     18  C   UNL     1      16.133  10.309  33.007  0.00  0.00    +0.113 A 
ATOM     19  N   UNL     1      17.044  10.151  32.024  0.00  0.00    -0.263 NA
ATOM     20  C   UNL     1      17.436   8.888  31.751  0.00  0.00    +0.113 A 
ATOM     21  C   UNL     1      16.958   7.773  32.417  0.00  0.00    +0.047 A 
ENDBRANCH  14  16
ENDBRANCH  10  12
ENDBRANCH   9  10
ENDBRANCH   5   9
ENDBRANCH   4   7
ENDBRANCH   1   4
BRANCH   1  22
ATOM     22  C   UNL     1       8.470   3.173  35.709  0.00  0.00    +0.175 C 
BRANCH  22  23
ATOM     23  C   UNL     1       7.809   4.530  35.429  0.00  0.00    +0.176 C 
ATOM     24  O   UNL     1       7.580   5.188  36.705  0.00  0.00    -0.332 OA
ATOM     25  C   UNL     1       7.048   6.552  36.629  0.00  0.00    +0.277 C 
ATOM     26  C   UNL     1       5.749   6.580  35.786  0.00  0.00    +0.110 C 
ATOM     27  C   UNL     1       5.934   5.863  34.432  0.00  0.00    +0.143 C 
ATOM     28  C   UNL     1       6.495   4.455  34.628  0.00  0.00    +0.133 C 
BRANCH  28  29
ATOM     29  N   UNL     1       6.748   3.815  33.328  0.00  0.00    -0.308 N 
ATOM     30  H   UNL     1       7.471   4.209  32.741  0.00  0.00    +0.149 HD
ATOM     31  C   UNL     1       6.086   2.748  32.872  0.00  0.00    +0.210 C 
ATOM     32  C   UNL     1       4.974   2.188  33.778  0.00  0.00    +0.109 C 
ATOM     33  O   UNL     1       6.330   2.224  31.784  0.00  0.00    -0.276 OA
ENDBRANCH  28  29
BRANCH  25  34
ATOM     34  C   UNL     1       8.086   7.511  36.009  0.00  0.00    +0.414 C 
ATOM     35  O   UNL     1       9.288   7.326  36.193  0.00  0.00    -0.240 OA
ATOM     36  O   UNL     1       7.721   8.468  35.325  0.00  0.00    -0.240 OA
ENDBRANCH  25  34
BRANCH  27  37
ATOM     37  O   UNL     1       4.679   5.780  33.756  0.00  0.00    -0.390 OA
ATOM     38  H   UNL     1       4.828   5.684  32.812  0.00  0.00    +0.210 HD
ENDBRANCH  27  37
BRANCH  25  39
ATOM     39  O   UNL     1       6.728   6.985  37.977  0.00  0.00    -0.343 OA
ATOM     40  C   UNL     1       7.494   6.340  39.025  0.00  0.00    +0.198 C 
ENDBRANCH  25  39
ENDBRANCH  22  23
BRANCH  22  41
ATOM     41  O   UNL     1       8.818   3.068  37.104  0.00  0.00    -0.387 OA
ATOM     42  H   UNL     1       9.733   2.789  37.185  0.00  0.00    +0.210 HD
ENDBRANCH  22  41
ENDBRANCH   1  22
TORSDOF 14
