REMARK VINA RESULT:    -6.278      4.605      6.232
REMARK INTER + INTRA:         -13.278
REMARK INTER:                 -11.525
REMARK INTRA:                  -1.753
REMARK UNBOUND:                -2.413
REMARK  Name = lig_assembled_8.pdb
REMARK  16 active torsions:
REMARK  status: ('A' for Active; 'I' for Inactive)
REMARK    1  A    between atoms: _2  and  _9
REMARK    2  A    between atoms: _4  and  _18
REMARK    3  A    between atoms: _6  and  _7
REMARK    4  A    between atoms: _6  and  _18
REMARK    5  A    between atoms: _14  and  _34
REMARK    6  A    between atoms: _16  and  _22
REMARK    7  A    between atoms: _17  and  _21
REMARK    8  A    between atoms: _21  and  _22
REMARK    9  A    between atoms: _24  and  _25
REMARK   10  A    between atoms: _26  and  _27
REMARK   11  A    between atoms: _28  and  _30
REMARK   12  A    between atoms: _30  and  _31
REMARK   13  A    between atoms: _30  and  _32
REMARK   14  A    between atoms: _32  and  _33
REMARK   15  A    between atoms: _32  and  _34
REMARK   16  A    between atoms: _35  and  _37
REMARK                            x       y       z     vdW  Elec       q    Type
REMARK                         _______ _______ _______ _____ _____    ______ ____
ROOT
ATOM      1  C   UNL     1       7.512   2.510  34.479  0.00  0.00    +0.163 C 
ENDROOT
BRANCH   1   2
ATOM      2  O   UNL     1       8.064   2.420  35.803  0.00  0.00    -0.388 OA
ATOM      3  H   UNL     1       7.468   1.919  36.365  0.00  0.00    +0.210 HD
ENDBRANCH   1   2
BRANCH   1   4
ATOM      4  C   UNL     1       8.067   1.390  33.605  0.00  0.00    +0.141 C 
BRANCH   4   7
ATOM      5  C   UNL     1       6.098   0.499  32.408  0.00  0.00    +0.401 C 
ATOM      6  O   UNL     1       5.951   1.503  31.708  0.00  0.00    -0.226 OA
ATOM      7  N   UNL     1       7.057   0.362  33.324  0.00  0.00    -0.279 N 
ATOM      8  H   UNL     1       7.090  -0.496  33.856  0.00  0.00    +0.152 HD
BRANCH   5   9
ATOM      9  O   UNL     1       5.194  -0.598  32.247  0.00  0.00    -0.444 OA
BRANCH   9  10
ATOM     10  C   UNL     1       5.928  -1.825  32.238  0.00  0.00    +0.292 C 
BRANCH  10  12
ATOM     11  N   UNL     1       6.147  -3.639  30.579  0.00  0.00    -0.131 NA
ATOM     12  C   UNL     1       6.097  -2.310  30.856  0.00  0.00    +0.121 A 
ATOM     13  C   UNL     1       6.219  -1.606  29.680  0.00  0.00    +0.143 A 
ATOM     14  N   UNL     1       6.321  -2.563  28.685  0.00  0.00    -0.219 N 
ATOM     15  N   UNL     1       6.287  -3.781  29.269  0.00  0.00    -0.060 NA
BRANCH  14  16
ATOM     16  C   UNL     1       6.426  -2.359  27.274  0.00  0.00    +0.081 A 
ATOM     17  C   UNL     1       7.685  -2.566  26.665  0.00  0.00    +0.029 A 
ATOM     18  C   UNL     1       7.877  -2.367  25.295  0.00  0.00    +0.002 A 
ATOM     19  C   UNL     1       6.818  -1.958  24.499  0.00  0.00    +0.001 A 
ATOM     20  C   UNL     1       5.567  -1.755  25.074  0.00  0.00    +0.017 A 
ATOM     21  C   UNL     1       5.355  -1.953  26.452  0.00  0.00    +0.043 A 
ATOM     22 BR   UNL     1       3.561  -1.619  27.002  0.00  0.00    -0.048 Br
ENDBRANCH  14  16
ENDBRANCH  10  12
ENDBRANCH   9  10
ENDBRANCH   5   9
ENDBRANCH   4   7
ENDBRANCH   1   4
BRANCH   1  23
ATOM     23  C   UNL     1       7.837   3.870  33.839  0.00  0.00    +0.175 C 
BRANCH  23  24
ATOM     24  C   UNL     1       7.197   5.037  34.606  0.00  0.00    +0.176 C 
ATOM     25  O   UNL     1       7.912   5.191  35.863  0.00  0.00    -0.332 OA
ATOM     26  C   UNL     1       7.505   6.333  36.688  0.00  0.00    +0.277 C 
ATOM     27  C   UNL     1       5.980   6.292  36.954  0.00  0.00    +0.110 C 
ATOM     28  C   UNL     1       5.179   6.098  35.649  0.00  0.00    +0.143 C 
ATOM     29  C   UNL     1       5.687   4.885  34.869  0.00  0.00    +0.133 C 
BRANCH  29  30
ATOM     30  N   UNL     1       4.975   4.762  33.587  0.00  0.00    -0.308 N 
ATOM     31  H   UNL     1       5.167   5.450  32.873  0.00  0.00    +0.149 HD
ATOM     32  C   UNL     1       4.092   3.800  33.306  0.00  0.00    +0.210 C 
ATOM     33  C   UNL     1       3.802   2.781  34.425  0.00  0.00    +0.109 C 
ATOM     34  O   UNL     1       3.522   3.713  32.219  0.00  0.00    -0.276 OA
ENDBRANCH  29  30
BRANCH  26  35
ATOM     35  C   UNL     1       7.873   7.663  35.999  0.00  0.00    +0.414 C 
ATOM     36  O   UNL     1       7.872   7.747  34.772  0.00  0.00    -0.240 OA
ATOM     37  O   UNL     1       8.171   8.652  36.670  0.00  0.00    -0.240 OA
ENDBRANCH  26  35
BRANCH  28  38
ATOM     38  O   UNL     1       3.797   5.915  35.956  0.00  0.00    -0.390 OA
ATOM     39  H   UNL     1       3.386   5.375  35.276  0.00  0.00    +0.210 HD
ENDBRANCH  28  38
BRANCH  26  40
ATOM     40  O   UNL     1       8.194   6.235  37.961  0.00  0.00    -0.343 OA
ATOM     41  C   UNL     1       7.343   5.942  39.097  0.00  0.00    +0.198 C 
ENDBRANCH  26  40
ENDBRANCH  23  24
BRANCH  23  42
ATOM     42  O   UNL     1       7.408   3.886  32.462  0.00  0.00    -0.387 OA
ATOM     43  H   UNL     1       6.793   3.165  32.310  0.00  0.00    +0.210 HD
ENDBRANCH  23  42
ENDBRANCH   1  23
TORSDOF 14
