REMARK VINA RESULT:    -5.808      6.899     12.161
REMARK INTER + INTRA:         -13.522
REMARK INTER:                 -11.651
REMARK INTRA:                  -1.871
REMARK UNBOUND:                -2.111
REMARK  Name = lig_assembled_17.pdb
REMARK  22 active torsions:
REMARK  status: ('A' for Active; 'I' for Inactive)
REMARK    1  A    between atoms: _2  and  _10
REMARK    2  A    between atoms: _3  and  _11
REMARK    3  A    between atoms: _3  and  _12
REMARK    4  A    between atoms: _3  and  _14
REMARK    5  A    between atoms: _5  and  _19
REMARK    6  A    between atoms: _6  and  _14
REMARK    7  A    between atoms: _7  and  _8
REMARK    8  A    between atoms: _7  and  _19
REMARK    9  A    between atoms: _10  and  _11
REMARK   10  A    between atoms: _12  and  _13
REMARK   11  A    between atoms: _15  and  _35
REMARK   12  A    between atoms: _17  and  _23
REMARK   13  A    between atoms: _18  and  _22
REMARK   14  A    between atoms: _22  and  _23
REMARK   15  A    between atoms: _25  and  _26
REMARK   16  A    between atoms: _27  and  _28
REMARK   17  A    between atoms: _29  and  _31
REMARK   18  A    between atoms: _31  and  _32
REMARK   19  A    between atoms: _31  and  _33
REMARK   20  A    between atoms: _33  and  _34
REMARK   21  A    between atoms: _33  and  _35
REMARK   22  A    between atoms: _36  and  _38
REMARK                            x       y       z     vdW  Elec       q    Type
REMARK                         _______ _______ _______ _____ _____    ______ ____
ROOT
ATOM      1  C   UNL     1       7.256   2.504  34.415  0.00  0.00    +0.163 C 
ENDROOT
BRANCH   1   2
ATOM      2  O   UNL     1       7.266   2.489  35.852  0.00  0.00    -0.388 OA
ATOM      3  H   UNL     1       7.776   1.737  36.161  0.00  0.00    +0.210 HD
ENDBRANCH   1   2
BRANCH   1   4
ATOM      4  C   UNL     1       7.732   3.864  33.876  0.00  0.00    +0.175 C 
BRANCH   4   5
ATOM      5  C   UNL     1       7.156   5.038  34.681  0.00  0.00    +0.176 C 
ATOM      6  O   UNL     1       7.892   5.126  35.932  0.00  0.00    -0.332 OA
ATOM      7  C   UNL     1       7.548   6.263  36.792  0.00  0.00    +0.277 C 
ATOM      8  C   UNL     1       6.026   6.285  37.077  0.00  0.00    +0.110 C 
ATOM      9  C   UNL     1       5.202   6.163  35.778  0.00  0.00    +0.143 C 
ATOM     10  C   UNL     1       5.644   4.949  34.960  0.00  0.00    +0.133 C 
BRANCH  10  11
ATOM     11  N   UNL     1       4.912   4.892  33.685  0.00  0.00    -0.308 N 
ATOM     12  H   UNL     1       5.140   5.577  32.979  0.00  0.00    +0.149 HD
ATOM     13  C   UNL     1       3.965   3.994  33.400  0.00  0.00    +0.210 C 
ATOM     14  C   UNL     1       3.621   2.980  34.507  0.00  0.00    +0.109 C 
ATOM     15  O   UNL     1       3.378   3.961  32.318  0.00  0.00    -0.276 OA
ENDBRANCH  10  11
BRANCH   7  16
ATOM     16  C   UNL     1       7.969   7.593  36.133  0.00  0.00    +0.414 C 
ATOM     17  O   UNL     1       8.180   8.588  36.825  0.00  0.00    -0.240 OA
ATOM     18  O   UNL     1       8.097   7.671  34.910  0.00  0.00    -0.240 OA
ENDBRANCH   7  16
BRANCH   9  19
ATOM     19  O   UNL     1       3.816   6.035  36.097  0.00  0.00    -0.390 OA
ATOM     20  H   UNL     1       3.686   6.199  37.034  0.00  0.00    +0.210 HD
ENDBRANCH   9  19
BRANCH   7  21
ATOM     21  O   UNL     1       8.247   6.100  38.052  0.00  0.00    -0.343 OA
ATOM     22  C   UNL     1       9.574   5.524  37.947  0.00  0.00    +0.198 C 
ENDBRANCH   7  21
ENDBRANCH   4   5
BRANCH   4  23
ATOM     23  O   UNL     1       7.381   3.997  32.484  0.00  0.00    -0.387 OA
ATOM     24  H   UNL     1       6.752   3.311  32.245  0.00  0.00    +0.210 HD
ENDBRANCH   4  23
ENDBRANCH   1   4
BRANCH   1  25
ATOM     25  C   UNL     1       8.158   1.399  33.876  0.00  0.00    +0.141 C 
BRANCH  25  28
ATOM     26  C   UNL     1      10.423   1.672  34.825  0.00  0.00    +0.401 C 
ATOM     27  O   UNL     1      10.127   1.179  35.916  0.00  0.00    -0.226 OA
ATOM     28  N   UNL     1       9.563   1.819  33.816  0.00  0.00    -0.279 N 
ATOM     29  H   UNL     1       9.898   2.243  32.962  0.00  0.00    +0.152 HD
BRANCH  26  30
ATOM     30  O   UNL     1      11.762   2.124  34.607  0.00  0.00    -0.444 OA
BRANCH  30  31
ATOM     31  C   UNL     1      12.267   2.716  35.806  0.00  0.00    +0.292 C 
BRANCH  31  33
ATOM     32  N   UNL     1      13.678   3.956  34.199  0.00  0.00    -0.131 NA
ATOM     33  C   UNL     1      13.391   3.618  35.495  0.00  0.00    +0.120 A 
ATOM     34  C   UNL     1      14.281   4.251  36.334  0.00  0.00    +0.137 A 
ATOM     35  N   UNL     1      15.067   4.973  35.488  0.00  0.00    -0.250 N 
ATOM     36  N   UNL     1      14.711   4.786  34.206  0.00  0.00    -0.065 NA
BRANCH  35  37
ATOM     37  C   UNL     1      16.140   5.890  35.815  0.00  0.00    +0.160 C 
BRANCH  37  38
ATOM     38  C   UNL     1      15.718   7.338  35.529  0.00  0.00    +0.107 C 
BRANCH  38  39
ATOM     39  N   UNL     1      16.335   7.973  34.338  0.00  0.00    -0.301 NA
BRANCH  39  40
ATOM     40  C   UNL     1      16.340   9.446  34.398  0.00  0.00    +0.081 C 
ATOM     41  C   UNL     1      15.433  10.170  33.408  0.00  0.00    +0.020 C 
ENDBRANCH  39  40
BRANCH  39  42
ATOM     42  C   UNL     1      17.677   7.390  34.131  0.00  0.00    +0.081 C 
ATOM     43  C   UNL     1      18.620   8.238  33.283  0.00  0.00    +0.020 C 
ENDBRANCH  39  42
ENDBRANCH  38  39
ENDBRANCH  37  38
ENDBRANCH  35  37
ENDBRANCH  31  33
ENDBRANCH  30  31
ENDBRANCH  26  30
ENDBRANCH  25  28
ENDBRANCH   1  25
TORSDOF 18
