REMARK VINA RESULT:    -6.747      2.659      4.958
REMARK INTER + INTRA:         -12.878
REMARK INTER:                 -10.734
REMARK INTRA:                  -2.144
REMARK UNBOUND:                -1.202
REMARK  Name = lig_assembled_40.pdb
REMARK  17 active torsions:
REMARK  status: ('A' for Active; 'I' for Inactive)
REMARK    1  A    between atoms: _2  and  _9
REMARK    2  A    between atoms: _4  and  _19
REMARK    3  A    between atoms: _6  and  _7
REMARK    4  A    between atoms: _6  and  _19
REMARK    5  A    between atoms: _12  and  _13
REMARK    6  A    between atoms: _15  and  _35
REMARK    7  A    between atoms: _17  and  _23
REMARK    8  A    between atoms: _18  and  _22
REMARK    9  A    between atoms: _22  and  _23
REMARK   10  A    between atoms: _25  and  _26
REMARK   11  A    between atoms: _27  and  _28
REMARK   12  A    between atoms: _29  and  _31
REMARK   13  A    between atoms: _31  and  _32
REMARK   14  A    between atoms: _31  and  _33
REMARK   15  A    between atoms: _33  and  _34
REMARK   16  A    between atoms: _33  and  _35
REMARK   17  A    between atoms: _36  and  _38
REMARK                            x       y       z     vdW  Elec       q    Type
REMARK                         _______ _______ _______ _____ _____    ______ ____
ROOT
ATOM      1  C   UNL     1       2.771   1.891  32.672  0.00  0.00    +0.163 C 
ENDROOT
BRANCH   1   2
ATOM      2  O   UNL     1       2.139   0.610  32.831  0.00  0.00    -0.388 OA
ATOM      3  H   UNL     1       2.734  -0.080  32.527  0.00  0.00    +0.210 HD
ENDBRANCH   1   2
BRANCH   1   4
ATOM      4  C   UNL     1       1.716   2.992  32.643  0.00  0.00    +0.141 C 
BRANCH   4   7
ATOM      5  C   UNL     1       0.202   4.021  30.983  0.00  0.00    +0.401 C 
ATOM      6  O   UNL     1      -0.566   4.483  31.830  0.00  0.00    -0.226 OA
ATOM      7  N   UNL     1       1.290   3.307  31.274  0.00  0.00    -0.279 N 
ATOM      8  H   UNL     1       1.853   2.962  30.509  0.00  0.00    +0.152 HD
BRANCH   5   9
ATOM      9  O   UNL     1      -0.073   4.250  29.599  0.00  0.00    -0.444 OA
BRANCH   9  10
ATOM     10  C   UNL     1       0.181   3.053  28.858  0.00  0.00    +0.292 C 
BRANCH  10  12
ATOM     11  N   UNL     1       2.209   3.755  27.624  0.00  0.00    -0.131 NA
ATOM     12  C   UNL     1       0.901   3.365  27.609  0.00  0.00    +0.121 A 
ATOM     13  C   UNL     1       0.462   3.319  26.307  0.00  0.00    +0.143 A 
ATOM     14  N   UNL     1       1.557   3.662  25.547  0.00  0.00    -0.220 N 
ATOM     15  N   UNL     1       2.599   3.943  26.370  0.00  0.00    -0.060 NA
BRANCH  14  16
ATOM     16  C   UNL     1       1.677   3.697  24.134  0.00  0.00    +0.067 A 
ATOM     17  C   UNL     1       1.737   4.916  23.449  0.00  0.00    +0.028 A 
ATOM     18  C   UNL     1       1.785   4.936  22.052  0.00  0.00    +0.005 A 
ATOM     19  C   UNL     1       1.773   3.743  21.323  0.00  0.00    -0.050 A 
ATOM     20  C   UNL     1       1.749   2.524  22.010  0.00  0.00    +0.005 A 
ATOM     21  C   UNL     1       1.777   3.761  19.822  0.00  0.00    +0.044 C 
ATOM     22  C   UNL     1       1.702   2.497  23.407  0.00  0.00    +0.028 A 
ENDBRANCH  14  16
ENDBRANCH  10  12
ENDBRANCH   9  10
ENDBRANCH   5   9
ENDBRANCH   4   7
ENDBRANCH   1   4
BRANCH   1  23
ATOM     23  C   UNL     1       3.599   1.939  31.376  0.00  0.00    +0.175 C 
BRANCH  23  24
ATOM     24  C   UNL     1       4.760   0.934  31.396  0.00  0.00    +0.176 C 
ATOM     25  O   UNL     1       4.197  -0.403  31.290  0.00  0.00    -0.332 OA
ATOM     26  C   UNL     1       5.170  -1.494  31.186  0.00  0.00    +0.277 C 
ATOM     27  C   UNL     1       6.172  -1.440  32.365  0.00  0.00    +0.110 C 
ATOM     28  C   UNL     1       6.773  -0.030  32.537  0.00  0.00    +0.143 C 
ATOM     29  C   UNL     1       5.673   1.028  32.632  0.00  0.00    +0.133 C 
BRANCH  29  30
ATOM     30  N   UNL     1       6.260   2.376  32.709  0.00  0.00    -0.308 N 
ATOM     31  H   UNL     1       6.727   2.734  31.887  0.00  0.00    +0.149 HD
ATOM     32  C   UNL     1       6.215   3.156  33.792  0.00  0.00    +0.210 C 
ATOM     33  C   UNL     1       5.519   2.570  35.035  0.00  0.00    +0.109 C 
ATOM     34  O   UNL     1       6.702   4.286  33.822  0.00  0.00    -0.276 OA
ENDBRANCH  29  30
BRANCH  26  35
ATOM     35  C   UNL     1       5.940  -1.415  29.851  0.00  0.00    +0.414 C 
ATOM     36  O   UNL     1       7.160  -1.574  29.829  0.00  0.00    -0.240 OA
ATOM     37  O   UNL     1       5.342  -1.192  28.798  0.00  0.00    -0.240 OA
ENDBRANCH  26  35
BRANCH  28  38
ATOM     38  O   UNL     1       7.570   0.013  33.722  0.00  0.00    -0.390 OA
ATOM     39  H   UNL     1       8.223   0.713  33.645  0.00  0.00    +0.210 HD
ENDBRANCH  28  38
BRANCH  26  40
ATOM     40  O   UNL     1       4.446  -2.749  31.258  0.00  0.00    -0.343 OA
ATOM     41  C   UNL     1       5.208  -3.867  31.778  0.00  0.00    +0.198 C 
ENDBRANCH  26  40
ENDBRANCH  23  24
BRANCH  23  42
ATOM     42  O   UNL     1       4.100   3.272  31.156  0.00  0.00    -0.387 OA
ATOM     43  H   UNL     1       4.993   3.341  31.502  0.00  0.00    +0.210 HD
ENDBRANCH  23  42
ENDBRANCH   1  23
TORSDOF 14
