REMARK VINA RESULT:    -6.353     14.714     17.135
REMARK INTER + INTRA:         -13.187
REMARK INTER:                 -10.616
REMARK INTRA:                  -2.571
REMARK UNBOUND:                -2.191
REMARK  Name = lig_assembled_48.pdb
REMARK  16 active torsions:
REMARK  status: ('A' for Active; 'I' for Inactive)
REMARK    1  A    between atoms: _2  and  _9
REMARK    2  A    between atoms: _4  and  _18
REMARK    3  A    between atoms: _6  and  _7
REMARK    4  A    between atoms: _6  and  _18
REMARK    5  A    between atoms: _14  and  _34
REMARK    6  A    between atoms: _16  and  _22
REMARK    7  A    between atoms: _17  and  _21
REMARK    8  A    between atoms: _21  and  _22
REMARK    9  A    between atoms: _24  and  _25
REMARK   10  A    between atoms: _26  and  _27
REMARK   11  A    between atoms: _28  and  _30
REMARK   12  A    between atoms: _30  and  _31
REMARK   13  A    between atoms: _30  and  _32
REMARK   14  A    between atoms: _32  and  _33
REMARK   15  A    between atoms: _32  and  _34
REMARK   16  A    between atoms: _35  and  _37
REMARK                            x       y       z     vdW  Elec       q    Type
REMARK                         _______ _______ _______ _____ _____    ______ ____
ROOT
ATOM      1  C   UNL     1      17.737   4.035  22.636  0.00  0.00    +0.163 C 
ENDROOT
BRANCH   1   2
ATOM      2  O   UNL     1      17.132   5.276  23.033  0.00  0.00    -0.388 OA
ATOM      3  H   UNL     1      16.782   5.724  22.259  0.00  0.00    +0.210 HD
ENDBRANCH   1   2
BRANCH   1   4
ATOM      4  C   UNL     1      16.719   3.170  21.899  0.00  0.00    +0.141 C 
BRANCH   4   7
ATOM      5  C   UNL     1      17.906   1.371  20.691  0.00  0.00    +0.401 C 
ATOM      6  O   UNL     1      18.239   2.094  19.750  0.00  0.00    -0.226 OA
ATOM      7  N   UNL     1      17.189   1.789  21.735  0.00  0.00    -0.279 N 
ATOM      8  H   UNL     1      16.957   1.119  22.454  0.00  0.00    +0.152 HD
BRANCH   5   9
ATOM      9  O   UNL     1      18.297  -0.004  20.683  0.00  0.00    -0.444 OA
BRANCH   9  10
ATOM     10  C   UNL     1      19.134  -0.270  21.812  0.00  0.00    +0.292 C 
BRANCH  10  12
ATOM     11  N   UNL     1      19.735  -2.575  22.469  0.00  0.00    -0.131 NA
ATOM     12  C   UNL     1      18.798  -1.584  22.392  0.00  0.00    +0.120 A 
ATOM     13  C   UNL     1      17.619  -2.035  22.943  0.00  0.00    +0.137 A 
ATOM     14  N   UNL     1      17.926  -3.273  23.423  0.00  0.00    -0.248 N 
ATOM     15  N   UNL     1      19.181  -3.620  23.066  0.00  0.00    -0.065 NA
BRANCH  14  16
ATOM     16  C   UNL     1      17.157  -4.186  24.260  0.00  0.00    +0.109 C 
ATOM     17  C   UNL     1      17.936  -4.554  25.538  0.00  0.00    +0.027 C 
ATOM     18  C   UNL     1      17.995  -3.381  26.514  0.00  0.00    +0.002 C 
ATOM     19  C   UNL     1      16.593  -2.946  26.924  0.00  0.00    +0.000 C 
ATOM     20  C   UNL     1      15.705  -2.629  25.724  0.00  0.00    +0.002 C 
ATOM     21  C   UNL     1      15.740  -3.715  24.641  0.00  0.00    +0.027 C 
ENDBRANCH  14  16
ENDBRANCH  10  12
ENDBRANCH   9  10
ENDBRANCH   5   9
ENDBRANCH   4   7
ENDBRANCH   1   4
BRANCH   1  22
ATOM     22  C   UNL     1      18.273   3.268  23.857  0.00  0.00    +0.175 C 
BRANCH  22  23
ATOM     23  C   UNL     1      18.322   4.148  25.115  0.00  0.00    +0.176 C 
ATOM     24  O   UNL     1      19.592   4.855  25.118  0.00  0.00    -0.332 OA
ATOM     25  C   UNL     1      19.774   5.829  26.199  0.00  0.00    +0.277 C 
ATOM     26  C   UNL     1      19.545   5.158  27.575  0.00  0.00    +0.110 C 
ATOM     27  C   UNL     1      18.220   4.368  27.611  0.00  0.00    +0.143 C 
ATOM     28  C   UNL     1      18.135   3.386  26.441  0.00  0.00    +0.133 C 
BRANCH  28  29
ATOM     29  N   UNL     1      16.833   2.702  26.436  0.00  0.00    -0.308 N 
ATOM     30  H   UNL     1      16.002   3.271  26.355  0.00  0.00    +0.149 HD
ATOM     31  C   UNL     1      16.677   1.379  26.530  0.00  0.00    +0.210 C 
ATOM     32  C   UNL     1      17.962   0.542  26.678  0.00  0.00    +0.109 C 
ATOM     33  O   UNL     1      15.574   0.832  26.508  0.00  0.00    -0.276 OA
ENDBRANCH  28  29
BRANCH  25  34
ATOM     34  C   UNL     1      18.801   7.015  26.034  0.00  0.00    +0.414 C 
ATOM     35  O   UNL     1      18.725   7.880  26.906  0.00  0.00    -0.240 OA
ATOM     36  O   UNL     1      18.092   7.107  25.031  0.00  0.00    -0.240 OA
ENDBRANCH  25  34
BRANCH  27  37
ATOM     37  O   UNL     1      18.122   3.645  28.839  0.00  0.00    -0.390 OA
ATOM     38  H   UNL     1      18.988   3.594  29.250  0.00  0.00    +0.210 HD
ENDBRANCH  27  37
BRANCH  25  39
ATOM     39  O   UNL     1      21.142   6.309  26.145  0.00  0.00    -0.343 OA
ATOM     40  C   UNL     1      22.149   5.273  26.020  0.00  0.00    +0.198 C 
ENDBRANCH  25  39
ENDBRANCH  22  23
BRANCH  22  41
ATOM     41  O   UNL     1      19.582   2.735  23.573  0.00  0.00    -0.387 OA
ATOM     42  H   UNL     1      20.248   3.396  23.776  0.00  0.00    +0.210 HD
ENDBRANCH  22  41
ENDBRANCH   1  22
TORSDOF 14
