REMARK VINA RESULT:    -6.712     13.812     16.047
REMARK INTER + INTRA:         -13.734
REMARK INTER:                 -11.858
REMARK INTRA:                  -1.876
REMARK UNBOUND:                -2.118
REMARK  Name = lig_assembled_7.pdb
REMARK  19 active torsions:
REMARK  status: ('A' for Active; 'I' for Inactive)
REMARK    1  A    between atoms: _2  and  _9
REMARK    2  A    between atoms: _4  and  _21
REMARK    3  A    between atoms: _5  and  _16
REMARK    4  A    between atoms: _6  and  _7
REMARK    5  A    between atoms: _6  and  _21
REMARK    6  A    between atoms: _10  and  _11
REMARK    7  A    between atoms: _13  and  _14
REMARK    8  A    between atoms: _17  and  _37
REMARK    9  A    between atoms: _19  and  _25
REMARK   10  A    between atoms: _20  and  _24
REMARK   11  A    between atoms: _24  and  _25
REMARK   12  A    between atoms: _27  and  _28
REMARK   13  A    between atoms: _29  and  _30
REMARK   14  A    between atoms: _31  and  _33
REMARK   15  A    between atoms: _33  and  _34
REMARK   16  A    between atoms: _33  and  _35
REMARK   17  A    between atoms: _35  and  _36
REMARK   18  A    between atoms: _35  and  _37
REMARK   19  A    between atoms: _38  and  _40
REMARK                            x       y       z     vdW  Elec       q    Type
REMARK                         _______ _______ _______ _____ _____    ______ ____
ROOT
ATOM      1  C   UNL     1      18.672   5.777  29.038  0.00  0.00    +0.163 C 
ENDROOT
BRANCH   1   2
ATOM      2  O   UNL     1      18.469   4.783  30.056  0.00  0.00    -0.388 OA
ATOM      3  H   UNL     1      19.160   4.118  29.997  0.00  0.00    +0.210 HD
ENDBRANCH   1   2
BRANCH   1   4
ATOM      4  C   UNL     1      19.117   5.111  27.740  0.00  0.00    +0.141 C 
BRANCH   4   7
ATOM      5  C   UNL     1      18.904   6.590  25.772  0.00  0.00    +0.401 C 
ATOM      6  O   UNL     1      20.010   7.113  25.928  0.00  0.00    -0.226 OA
ATOM      7  N   UNL     1      18.404   5.651  26.575  0.00  0.00    -0.279 N 
ATOM      8  H   UNL     1      17.483   5.289  26.371  0.00  0.00    +0.152 HD
BRANCH   5   9
ATOM      9  O   UNL     1      18.089   7.004  24.673  0.00  0.00    -0.444 OA
BRANCH   9  10
ATOM     10  C   UNL     1      18.629   6.485  23.455  0.00  0.00    +0.292 C 
BRANCH  10  12
ATOM     11  N   UNL     1      16.927   5.023  22.435  0.00  0.00    -0.131 NA
ATOM     12  C   UNL     1      18.063   5.154  23.171  0.00  0.00    +0.121 A 
ATOM     13  C   UNL     1      18.506   3.896  23.532  0.00  0.00    +0.143 A 
ATOM     14  N   UNL     1      17.569   3.019  23.028  0.00  0.00    -0.219 N 
ATOM     15  N   UNL     1      16.651   3.734  22.330  0.00  0.00    -0.060 NA
BRANCH  14  16
ATOM     16  C   UNL     1      17.493   1.594  23.150  0.00  0.00    +0.073 A 
ATOM     17  C   UNL     1      18.003   0.773  22.099  0.00  0.00    -0.024 A 
ATOM     18  C   UNL     1      17.933  -0.633  22.212  0.00  0.00    +0.008 A 
ATOM     19  C   UNL     1      17.384  -1.248  23.334  0.00  0.00    -0.050 A 
ATOM     20  C   UNL     1      17.328  -2.743  23.422  0.00  0.00    +0.044 C 
ATOM     21  C   UNL     1      16.890  -0.443  24.358  0.00  0.00    +0.008 A 
ATOM     22  C   UNL     1      18.681   1.298  20.852  0.00  0.00    +0.046 C 
ATOM     23  C   UNL     1      16.911   0.969  24.284  0.00  0.00    -0.024 A 
ATOM     24  C   UNL     1      16.214   1.646  25.437  0.00  0.00    +0.046 C 
ENDBRANCH  14  16
ENDBRANCH  10  12
ENDBRANCH   9  10
ENDBRANCH   5   9
ENDBRANCH   4   7
ENDBRANCH   1   4
BRANCH   1  25
ATOM     25  C   UNL     1      19.727   6.806  29.477  0.00  0.00    +0.175 C 
BRANCH  25  26
ATOM     26  C   UNL     1      19.222   8.249  29.333  0.00  0.00    +0.176 C 
ATOM     27  O   UNL     1      20.322   9.061  28.838  0.00  0.00    -0.332 OA
ATOM     28  C   UNL     1      19.993  10.458  28.538  0.00  0.00    +0.277 C 
ATOM     29  C   UNL     1      19.353  11.141  29.772  0.00  0.00    +0.110 C 
ATOM     30  C   UNL     1      18.198  10.298  30.353  0.00  0.00    +0.143 C 
ATOM     31  C   UNL     1      18.649   8.862  30.625  0.00  0.00    +0.133 C 
BRANCH  31  32
ATOM     32  N   UNL     1      17.518   8.048  31.096  0.00  0.00    -0.308 N 
ATOM     33  H   UNL     1      16.766   7.863  30.446  0.00  0.00    +0.149 HD
ATOM     34  C   UNL     1      17.419   7.536  32.326  0.00  0.00    +0.210 C 
ATOM     35  C   UNL     1      18.569   7.857  33.300  0.00  0.00    +0.109 C 
ATOM     36  O   UNL     1      16.467   6.844  32.688  0.00  0.00    -0.276 OA
ENDBRANCH  31  32
BRANCH  28  37
ATOM     37  C   UNL     1      19.026  10.547  27.339  0.00  0.00    +0.414 C 
ATOM     38  O   UNL     1      17.832  10.782  27.522  0.00  0.00    -0.240 OA
ATOM     39  O   UNL     1      19.439  10.385  26.191  0.00  0.00    -0.240 OA
ENDBRANCH  28  37
BRANCH  30  40
ATOM     40  O   UNL     1      17.738  10.885  31.571  0.00  0.00    -0.390 OA
ATOM     41  H   UNL     1      17.991  10.328  32.311  0.00  0.00    +0.210 HD
ENDBRANCH  30  40
BRANCH  28  42
ATOM     42  O   UNL     1      21.228  11.151  28.222  0.00  0.00    -0.343 OA
ATOM     43  C   UNL     1      21.298  12.522  28.689  0.00  0.00    +0.198 C 
ENDBRANCH  28  42
ENDBRANCH  25  26
BRANCH  25  44
ATOM     44  O   UNL     1      20.940   6.627  28.719  0.00  0.00    -0.387 OA
ATOM     45  H   UNL     1      21.472   5.938  29.124  0.00  0.00    +0.210 HD
ENDBRANCH  25  44
ENDBRANCH   1  25
TORSDOF 14
