REMARK VINA RESULT:    -5.947      5.335      9.752
REMARK INTER + INTRA:         -12.897
REMARK INTER:                 -11.251
REMARK INTRA:                  -1.646
REMARK UNBOUND:                -2.083
REMARK  Name = lig_assembled_35.pdb
REMARK  19 active torsions:
REMARK  status: ('A' for Active; 'I' for Inactive)
REMARK    1  A    between atoms: _2  and  _9
REMARK    2  A    between atoms: _4  and  _17
REMARK    3  A    between atoms: _5  and  _9
REMARK    4  A    between atoms: _5  and  _11
REMARK    5  A    between atoms: _6  and  _7
REMARK    6  A    between atoms: _6  and  _17
REMARK    7  A    between atoms: _9  and  _10
REMARK    8  A    between atoms: _13  and  _33
REMARK    9  A    between atoms: _15  and  _21
REMARK   10  A    between atoms: _16  and  _20
REMARK   11  A    between atoms: _20  and  _21
REMARK   12  A    between atoms: _23  and  _24
REMARK   13  A    between atoms: _25  and  _26
REMARK   14  A    between atoms: _27  and  _29
REMARK   15  A    between atoms: _29  and  _30
REMARK   16  A    between atoms: _29  and  _31
REMARK   17  A    between atoms: _31  and  _32
REMARK   18  A    between atoms: _31  and  _33
REMARK   19  A    between atoms: _34  and  _36
REMARK                            x       y       z     vdW  Elec       q    Type
REMARK                         _______ _______ _______ _____ _____    ______ ____
ROOT
ATOM      1  C   UNL     1      18.696   6.137  24.353  0.00  0.00    +0.163 C 
ENDROOT
BRANCH   1   2
ATOM      2  O   UNL     1      18.042   6.314  23.085  0.00  0.00    -0.388 OA
ATOM      3  H   UNL     1      18.405   7.085  22.643  0.00  0.00    +0.210 HD
ENDBRANCH   1   2
BRANCH   1   4
ATOM      4  C   UNL     1      19.410   4.776  24.419  0.00  0.00    +0.175 C 
BRANCH   4   5
ATOM      5  C   UNL     1      18.605   3.738  25.215  0.00  0.00    +0.176 C 
ATOM      6  O   UNL     1      19.467   3.208  26.259  0.00  0.00    -0.332 OA
ATOM      7  C   UNL     1      18.831   2.274  27.193  0.00  0.00    +0.277 C 
ATOM      8  C   UNL     1      18.166   1.108  26.422  0.00  0.00    +0.110 C 
ATOM      9  C   UNL     1      17.263   1.621  25.280  0.00  0.00    +0.143 C 
ATOM     10  C   UNL     1      18.024   2.588  24.372  0.00  0.00    +0.133 C 
BRANCH  10  11
ATOM     11  N   UNL     1      17.130   3.137  23.340  0.00  0.00    -0.308 N 
ATOM     12  H   UNL     1      16.425   3.799  23.631  0.00  0.00    +0.149 HD
ATOM     13  C   UNL     1      17.190   2.818  22.045  0.00  0.00    +0.210 C 
ATOM     14  C   UNL     1      18.259   1.786  21.637  0.00  0.00    +0.109 C 
ATOM     15  O   UNL     1      16.437   3.305  21.200  0.00  0.00    -0.276 OA
ENDBRANCH  10  11
BRANCH   7  16
ATOM     16  C   UNL     1      17.772   2.995  28.052  0.00  0.00    +0.414 C 
ATOM     17  O   UNL     1      16.611   3.088  27.656  0.00  0.00    -0.240 OA
ATOM     18  O   UNL     1      18.079   3.483  29.141  0.00  0.00    -0.240 OA
ENDBRANCH   7  16
BRANCH   7  19
ATOM     19  O   UNL     1      19.865   1.724  28.051  0.00  0.00    -0.343 OA
ATOM     20  C   UNL     1      19.657   0.347  28.453  0.00  0.00    +0.198 C 
ENDBRANCH   7  19
BRANCH   9  21
ATOM     21  O   UNL     1      16.792   0.518  24.505  0.00  0.00    -0.390 OA
ATOM     22  H   UNL     1      16.249  -0.051  25.054  0.00  0.00    +0.210 HD
ENDBRANCH   9  21
ENDBRANCH   4   5
BRANCH   4  23
ATOM     23  O   UNL     1      20.723   4.931  24.991  0.00  0.00    -0.387 OA
ATOM     24  H   UNL     1      20.643   5.157  25.921  0.00  0.00    +0.210 HD
ENDBRANCH   4  23
ENDBRANCH   1   4
BRANCH   1  25
ATOM     25  C   UNL     1      19.708   7.255  24.579  0.00  0.00    +0.141 C 
BRANCH  25  28
ATOM     26  C   UNL     1      19.425   7.828  26.965  0.00  0.00    +0.401 C 
ATOM     27  O   UNL     1      19.873   6.754  27.373  0.00  0.00    -0.226 OA
ATOM     28  N   UNL     1      19.306   8.144  25.675  0.00  0.00    -0.279 N 
ATOM     29  H   UNL     1      18.918   9.046  25.439  0.00  0.00    +0.152 HD
BRANCH  26  30
ATOM     30  O   UNL     1      18.997   8.807  27.915  0.00  0.00    -0.444 OA
BRANCH  30  31
ATOM     31  C   UNL     1      19.554   8.506  29.197  0.00  0.00    +0.292 C 
BRANCH  31  33
ATOM     32  N   UNL     1      17.821  10.015  30.115  0.00  0.00    -0.131 NA
ATOM     33  C   UNL     1      18.627   8.919  30.268  0.00  0.00    +0.120 A 
ATOM     34  C   UNL     1      18.400   8.364  31.508  0.00  0.00    +0.138 A 
ATOM     35  N   UNL     1      17.434   9.159  32.053  0.00  0.00    -0.238 N 
ATOM     36  N   UNL     1      17.106  10.162  31.221  0.00  0.00    -0.065 NA
BRANCH  35  37
ATOM     37  C   UNL     1      16.788   9.075  33.349  0.00  0.00    +0.214 C 
ATOM     38  C   UNL     1      16.755  10.438  34.032  0.00  0.00    +0.045 C 
BRANCH  37  39
ATOM     39  C   UNL     1      15.409   8.456  33.242  0.00  0.00    +0.329 C 
ATOM     40  O   UNL     1      15.156   7.285  33.489  0.00  0.00    -0.249 OA
BRANCH  39  41
ATOM     41  O   UNL     1      14.445   9.308  32.812  0.00  0.00    -0.479 OA
ATOM     42  H   UNL     1      14.654  10.261  32.890  0.00  0.00    +0.295 HD
ENDBRANCH  39  41
ENDBRANCH  37  39
ENDBRANCH  35  37
ENDBRANCH  31  33
ENDBRANCH  30  31
ENDBRANCH  26  30
ENDBRANCH  25  28
ENDBRANCH   1  25
TORSDOF 16
