REMARK VINA RESULT:    -5.704      2.677      5.214
REMARK INTER + INTRA:         -13.342
REMARK INTER:                 -11.709
REMARK INTRA:                  -1.633
REMARK UNBOUND:                -2.970
REMARK  Name = lig_assembled_22.pdb
REMARK  20 active torsions:
REMARK  status: ('A' for Active; 'I' for Inactive)
REMARK    1  A    between atoms: _2  and  _9
REMARK    2  A    between atoms: _4  and  _18
REMARK    3  A    between atoms: _5  and  _9
REMARK    4  A    between atoms: _5  and  _12
REMARK    5  A    between atoms: _6  and  _7
REMARK    6  A    between atoms: _6  and  _18
REMARK    7  A    between atoms: _9  and  _10
REMARK    8  A    between atoms: _9  and  _11
REMARK    9  A    between atoms: _14  and  _34
REMARK   10  A    between atoms: _16  and  _22
REMARK   11  A    between atoms: _17  and  _21
REMARK   12  A    between atoms: _21  and  _22
REMARK   13  A    between atoms: _24  and  _25
REMARK   14  A    between atoms: _26  and  _27
REMARK   15  A    between atoms: _28  and  _30
REMARK   16  A    between atoms: _30  and  _31
REMARK   17  A    between atoms: _30  and  _32
REMARK   18  A    between atoms: _32  and  _33
REMARK   19  A    between atoms: _32  and  _34
REMARK   20  A    between atoms: _35  and  _37
REMARK                            x       y       z     vdW  Elec       q    Type
REMARK                         _______ _______ _______ _____ _____    ______ ____
ROOT
ATOM      1  C   UNL     1      16.577   1.076  26.242  0.00  0.00    +0.163 C 
ENDROOT
BRANCH   1   2
ATOM      2  O   UNL     1      15.684   0.135  26.858  0.00  0.00    -0.388 OA
ATOM      3  H   UNL     1      14.811   0.218  26.467  0.00  0.00    +0.210 HD
ENDBRANCH   1   2
BRANCH   1   4
ATOM      4  C   UNL     1      16.387   2.458  26.859  0.00  0.00    +0.141 C 
BRANCH   4   7
ATOM      5  C   UNL     1      18.375   3.673  27.682  0.00  0.00    +0.401 C 
ATOM      6  O   UNL     1      18.200   3.352  28.860  0.00  0.00    -0.226 OA
ATOM      7  N   UNL     1      17.573   3.305  26.682  0.00  0.00    -0.279 N 
ATOM      8  H   UNL     1      17.794   3.626  25.750  0.00  0.00    +0.152 HD
BRANCH   5   9
ATOM      9  O   UNL     1      19.497   4.493  27.345  0.00  0.00    -0.444 OA
BRANCH   9  10
ATOM     10  C   UNL     1      19.057   5.606  26.562  0.00  0.00    +0.292 C 
BRANCH  10  12
ATOM     11  N   UNL     1      18.985   6.846  28.696  0.00  0.00    -0.131 NA
ATOM     12  C   UNL     1      19.164   6.853  27.342  0.00  0.00    +0.120 A 
ATOM     13  C   UNL     1      19.433   8.141  26.932  0.00  0.00    +0.138 A 
ATOM     14  N   UNL     1      19.405   8.874  28.085  0.00  0.00    -0.235 N 
ATOM     15  N   UNL     1      19.130   8.083  29.140  0.00  0.00    -0.064 NA
BRANCH  14  16
ATOM     16  C   UNL     1      19.601  10.312  28.277  0.00  0.00    +0.155 C 
ATOM     17  C   UNL     1      19.039  11.139  27.101  0.00  0.00    +0.048 C 
ATOM     18  C   UNL     1      21.110  10.594  28.393  0.00  0.00    +0.048 C 
BRANCH  16  19
ATOM     19  C   UNL     1      18.892  10.781  29.551  0.00  0.00    +0.332 C 
ATOM     20  O   UNL     1      19.472  11.158  30.563  0.00  0.00    -0.248 OA
BRANCH  19  21
ATOM     21  O   UNL     1      17.538  10.759  29.502  0.00  0.00    -0.479 OA
ATOM     22  H   UNL     1      17.080  10.408  30.290  0.00  0.00    +0.295 HD
ENDBRANCH  19  21
ENDBRANCH  16  19
ENDBRANCH  14  16
ENDBRANCH  10  12
ENDBRANCH   9  10
ENDBRANCH   5   9
ENDBRANCH   4   7
ENDBRANCH   1   4
BRANCH   1  23
ATOM     23  C   UNL     1      16.335   1.153  24.725  0.00  0.00    +0.175 C 
BRANCH  23  24
ATOM     24  C   UNL     1      17.530   0.622  23.920  0.00  0.00    +0.176 C 
ATOM     25  O   UNL     1      17.559   1.323  22.646  0.00  0.00    -0.332 OA
ATOM     26  C   UNL     1      18.703   1.020  21.782  0.00  0.00    +0.277 C 
ATOM     27  C   UNL     1      18.811  -0.506  21.542  0.00  0.00    +0.110 C 
ATOM     28  C   UNL     1      18.754  -1.295  22.867  0.00  0.00    +0.143 C 
ATOM     29  C   UNL     1      17.526  -0.900  23.688  0.00  0.00    +0.133 C 
BRANCH  29  30
ATOM     30  N   UNL     1      17.529  -1.595  24.985  0.00  0.00    -0.308 N 
ATOM     31  H   UNL     1      18.217  -1.313  25.670  0.00  0.00    +0.149 HD
ATOM     32  C   UNL     1      16.682  -2.573  25.317  0.00  0.00    +0.210 C 
ATOM     33  C   UNL     1      15.663  -2.997  24.243  0.00  0.00    +0.109 C 
ATOM     34  O   UNL     1      16.698  -3.127  26.417  0.00  0.00    -0.276 OA
ENDBRANCH  29  30
BRANCH  26  35
ATOM     35  C   UNL     1      20.014   1.538  22.408  0.00  0.00    +0.414 C 
ATOM     36  O   UNL     1      19.982   2.302  23.373  0.00  0.00    -0.240 OA
ATOM     37  O   UNL     1      21.104   1.193  21.950  0.00  0.00    -0.240 OA
ENDBRANCH  26  35
BRANCH  26  38
ATOM     38  O   UNL     1      18.483   1.670  20.503  0.00  0.00    -0.343 OA
ATOM     39  C   UNL     1      17.096   1.760  20.092  0.00  0.00    +0.198 C 
ENDBRANCH  26  38
BRANCH  28  40
ATOM     40  O   UNL     1      18.704  -2.696  22.591  0.00  0.00    -0.390 OA
ATOM     41  H   UNL     1      18.066  -3.115  23.173  0.00  0.00    +0.210 HD
ENDBRANCH  28  40
ENDBRANCH  23  24
BRANCH  23  42
ATOM     42  O   UNL     1      16.038   2.510  24.337  0.00  0.00    -0.387 OA
ATOM     43  H   UNL     1      16.375   2.671  23.453  0.00  0.00    +0.210 HD
ENDBRANCH  23  42
ENDBRANCH   1  23
TORSDOF 16
