REMARK VINA RESULT:    -6.145      6.025     12.430
REMARK INTER + INTRA:         -14.716
REMARK INTER:                 -13.058
REMARK INTRA:                  -1.658
REMARK UNBOUND:                -2.643
REMARK  Name = lig_assembled_37.pdb
REMARK  21 active torsions:
REMARK  status: ('A' for Active; 'I' for Inactive)
REMARK    1  A    between atoms: _2  and  _9
REMARK    2  A    between atoms: _4  and  _24
REMARK    3  A    between atoms: _6  and  _7
REMARK    4  A    between atoms: _6  and  _24
REMARK    5  A    between atoms: _9  and  _10
REMARK    6  A    between atoms: _9  and  _11
REMARK    7  A    between atoms: _11  and  _18
REMARK    8  A    between atoms: _12  and  _13
REMARK    9  A    between atoms: _12  and  _18
REMARK   10  A    between atoms: _20  and  _40
REMARK   11  A    between atoms: _22  and  _28
REMARK   12  A    between atoms: _23  and  _27
REMARK   13  A    between atoms: _27  and  _28
REMARK   14  A    between atoms: _30  and  _31
REMARK   15  A    between atoms: _32  and  _33
REMARK   16  A    between atoms: _34  and  _36
REMARK   17  A    between atoms: _36  and  _37
REMARK   18  A    between atoms: _36  and  _38
REMARK   19  A    between atoms: _38  and  _39
REMARK   20  A    between atoms: _38  and  _40
REMARK   21  A    between atoms: _41  and  _43
REMARK                            x       y       z     vdW  Elec       q    Type
REMARK                         _______ _______ _______ _____ _____    ______ ____
ROOT
ATOM      1  C   UNL     1       8.328   1.324  34.156  0.00  0.00    +0.141 C 
ENDROOT
BRANCH   1   4
ATOM      2  C   UNL     1      10.648   1.776  34.876  0.00  0.00    +0.401 C 
ATOM      3  O   UNL     1      10.538   1.162  35.940  0.00  0.00    -0.226 OA
ATOM      4  N   UNL     1       9.664   1.907  33.986  0.00  0.00    -0.279 N 
ATOM      5  H   UNL     1       9.849   2.438  33.146  0.00  0.00    +0.152 HD
BRANCH   2   6
ATOM      6  O   UNL     1      11.897   2.396  34.559  0.00  0.00    -0.444 OA
BRANCH   6   7
ATOM      7  C   UNL     1      12.690   2.507  35.744  0.00  0.00    +0.292 C 
BRANCH   7   9
ATOM      8  N   UNL     1      13.171   4.889  36.233  0.00  0.00    -0.131 NA
ATOM      9  C   UNL     1      13.556   3.699  35.674  0.00  0.00    +0.120 A 
ATOM     10  C   UNL     1      14.798   3.853  35.102  0.00  0.00    +0.138 A 
ATOM     11  N   UNL     1      15.105   5.163  35.318  0.00  0.00    -0.238 N 
ATOM     12  N   UNL     1      14.130   5.777  36.016  0.00  0.00    -0.065 NA
BRANCH  11  13
ATOM     13  C   UNL     1      16.306   5.896  34.969  0.00  0.00    +0.214 C 
ATOM     14  C   UNL     1      17.455   4.952  34.619  0.00  0.00    +0.045 C 
BRANCH  13  15
ATOM     15  C   UNL     1      16.049   6.855  33.828  0.00  0.00    +0.332 C 
ATOM     16  O   UNL     1      16.249   6.586  32.649  0.00  0.00    -0.248 OA
BRANCH  15  17
ATOM     17  O   UNL     1      15.573   8.044  34.284  0.00  0.00    -0.458 OA
BRANCH  17  18
ATOM     18  C   UNL     1      15.306   9.042  33.286  0.00  0.00    +0.267 C 
BRANCH  18  19
ATOM     19  C   UNL     1      16.389  10.090  33.304  0.00  0.00    -0.010 A 
ATOM     20  C   UNL     1      17.270  10.220  32.221  0.00  0.00    +0.007 A 
ATOM     21  C   UNL     1      18.256  11.208  32.224  0.00  0.00    +0.000 A 
ATOM     22  C   UNL     1      18.372  12.075  33.309  0.00  0.00    +0.000 A 
ATOM     23  C   UNL     1      17.506  11.952  34.394  0.00  0.00    +0.000 A 
ATOM     24  C   UNL     1      16.521  10.963  34.393  0.00  0.00    +0.007 A 
ENDBRANCH  18  19
ENDBRANCH  17  18
ENDBRANCH  15  17
ENDBRANCH  13  15
ENDBRANCH  11  13
ENDBRANCH   7   9
ENDBRANCH   6   7
ENDBRANCH   2   6
ENDBRANCH   1   4
BRANCH   1  25
ATOM     25  C   UNL     1       7.274   2.389  34.440  0.00  0.00    +0.163 C 
BRANCH  25  26
ATOM     26  O   UNL     1       7.040   2.485  35.855  0.00  0.00    -0.388 OA
ATOM     27  H   UNL     1       6.612   1.682  36.164  0.00  0.00    +0.210 HD
ENDBRANCH  25  26
BRANCH  25  28
ATOM     28  C   UNL     1       7.741   3.739  33.868  0.00  0.00    +0.175 C 
BRANCH  28  29
ATOM     29  C   UNL     1       7.121   4.929  34.615  0.00  0.00    +0.176 C 
ATOM     30  O   UNL     1       7.811   5.065  35.888  0.00  0.00    -0.332 OA
ATOM     31  C   UNL     1       7.423   6.223  36.699  0.00  0.00    +0.277 C 
ATOM     32  C   UNL     1       5.892   6.233  36.930  0.00  0.00    +0.110 C 
ATOM     33  C   UNL     1       5.115   6.058  35.608  0.00  0.00    +0.143 C 
ATOM     34  C   UNL     1       5.602   4.826  34.844  0.00  0.00    +0.133 C 
BRANCH  34  35
ATOM     35  N   UNL     1       4.916   4.720  33.547  0.00  0.00    -0.308 N 
ATOM     36  H   UNL     1       5.142   5.402  32.836  0.00  0.00    +0.149 HD
ATOM     37  C   UNL     1       4.015   3.781  33.246  0.00  0.00    +0.210 C 
ATOM     38  C   UNL     1       3.673   2.772  34.359  0.00  0.00    +0.109 C 
ATOM     39  O   UNL     1       3.467   3.707  32.146  0.00  0.00    -0.276 OA
ENDBRANCH  34  35
BRANCH  31  40
ATOM     40  C   UNL     1       7.849   7.538  36.014  0.00  0.00    +0.414 C 
ATOM     41  O   UNL     1       8.198   8.505  36.690  0.00  0.00    -0.240 OA
ATOM     42  O   UNL     1       7.843   7.633  34.786  0.00  0.00    -0.240 OA
ENDBRANCH  31  40
BRANCH  31  43
ATOM     43  O   UNL     1       8.079   6.109  37.988  0.00  0.00    -0.343 OA
ATOM     44  C   UNL     1       8.396   4.754  38.396  0.00  0.00    +0.198 C 
ENDBRANCH  31  43
BRANCH  33  45
ATOM     45  O   UNL     1       3.720   5.921  35.882  0.00  0.00    -0.390 OA
ATOM     46  H   UNL     1       3.370   6.760  36.188  0.00  0.00    +0.210 HD
ENDBRANCH  33  45
ENDBRANCH  28  29
BRANCH  28  47
ATOM     47  O   UNL     1       7.427   3.817  32.463  0.00  0.00    -0.387 OA
ATOM     48  H   UNL     1       7.183   4.718  32.239  0.00  0.00    +0.210 HD
ENDBRANCH  28  47
ENDBRANCH  25  28
ENDBRANCH   1  25
TORSDOF 18
