REMARK VINA RESULT:    -4.900      3.904      8.426
REMARK INTER + INTRA:         -13.516
REMARK INTER:                 -11.361
REMARK INTRA:                  -2.155
REMARK UNBOUND:                -4.177
REMARK  Name = lig_assembled_50.pdb
REMARK  20 active torsions:
REMARK  status: ('A' for Active; 'I' for Inactive)
REMARK    1  A    between atoms: _2  and  _9
REMARK    2  A    between atoms: _4  and  _17
REMARK    3  A    between atoms: _5  and  _10
REMARK    4  A    between atoms: _5  and  _11
REMARK    5  A    between atoms: _6  and  _7
REMARK    6  A    between atoms: _6  and  _17
REMARK    7  A    between atoms: _9  and  _10
REMARK    8  A    between atoms: _10  and  _12
REMARK    9  A    between atoms: _13  and  _33
REMARK   10  A    between atoms: _15  and  _21
REMARK   11  A    between atoms: _16  and  _20
REMARK   12  A    between atoms: _20  and  _21
REMARK   13  A    between atoms: _23  and  _24
REMARK   14  A    between atoms: _25  and  _26
REMARK   15  A    between atoms: _27  and  _29
REMARK   16  A    between atoms: _29  and  _30
REMARK   17  A    between atoms: _29  and  _31
REMARK   18  A    between atoms: _31  and  _32
REMARK   19  A    between atoms: _31  and  _33
REMARK   20  A    between atoms: _34  and  _36
REMARK                            x       y       z     vdW  Elec       q    Type
REMARK                         _______ _______ _______ _____ _____    ______ ____
ROOT
ATOM      1  C   UNL     1      16.507   0.170  26.774  0.00  0.00    +0.163 C 
ENDROOT
BRANCH   1   2
ATOM      2  O   UNL     1      15.558   1.233  26.584  0.00  0.00    -0.388 OA
ATOM      3  H   UNL     1      14.690   0.860  26.414  0.00  0.00    +0.210 HD
ENDBRANCH   1   2
BRANCH   1   4
ATOM      4  C   UNL     1      16.698  -0.635  25.478  0.00  0.00    +0.175 C 
BRANCH   4   5
ATOM      5  C   UNL     1      17.485   0.152  24.419  0.00  0.00    +0.176 C 
ATOM      6  O   UNL     1      16.716   1.339  24.082  0.00  0.00    -0.332 OA
ATOM      7  C   UNL     1      17.364   2.273  23.156  0.00  0.00    +0.277 C 
ATOM      8  C   UNL     1      17.792   1.541  21.861  0.00  0.00    +0.110 C 
ATOM      9  C   UNL     1      18.585   0.254  22.169  0.00  0.00    +0.143 C 
ATOM     10  C   UNL     1      17.820  -0.643  23.143  0.00  0.00    +0.133 C 
BRANCH  10  11
ATOM     11  N   UNL     1      18.624  -1.823  23.496  0.00  0.00    -0.308 N 
ATOM     12  H   UNL     1      19.565  -1.671  23.830  0.00  0.00    +0.149 HD
ATOM     13  C   UNL     1      18.191  -3.084  23.405  0.00  0.00    +0.210 C 
ATOM     14  C   UNL     1      16.761  -3.284  22.868  0.00  0.00    +0.109 C 
ATOM     15  O   UNL     1      18.881  -4.053  23.722  0.00  0.00    -0.276 OA
ENDBRANCH  10  11
BRANCH   7  16
ATOM     16  C   UNL     1      18.600   2.924  23.812  0.00  0.00    +0.414 C 
ATOM     17  O   UNL     1      19.699   2.859  23.264  0.00  0.00    -0.240 OA
ATOM     18  O   UNL     1      18.498   3.513  24.889  0.00  0.00    -0.240 OA
ENDBRANCH   7  16
BRANCH   9  19
ATOM     19  O   UNL     1      18.827  -0.465  20.958  0.00  0.00    -0.390 OA
ATOM     20  H   UNL     1      19.593  -0.095  20.513  0.00  0.00    +0.210 HD
ENDBRANCH   9  19
BRANCH   7  21
ATOM     21  O   UNL     1      16.401   3.299  22.805  0.00  0.00    -0.343 OA
ATOM     22  C   UNL     1      16.881   4.295  21.868  0.00  0.00    +0.198 C 
ENDBRANCH   7  21
ENDBRANCH   4   5
BRANCH   4  23
ATOM     23  O   UNL     1      15.419  -1.037  24.949  0.00  0.00    -0.387 OA
ATOM     24  H   UNL     1      15.384  -1.995  24.888  0.00  0.00    +0.210 HD
ENDBRANCH   4  23
ENDBRANCH   1   4
BRANCH   1  25
ATOM     25  C   UNL     1      17.848   0.743  27.221  0.00  0.00    +0.141 C 
BRANCH  25  28
ATOM     26  C   UNL     1      18.455   2.863  28.336  0.00  0.00    +0.401 C 
ATOM     27  O   UNL     1      19.171   2.322  29.182  0.00  0.00    -0.226 OA
ATOM     28  N   UNL     1      17.794   2.200  27.386  0.00  0.00    -0.279 N 
ATOM     29  H   UNL     1      17.223   2.732  26.743  0.00  0.00    +0.152 HD
BRANCH  26  30
ATOM     30  O   UNL     1      18.306   4.285  28.359  0.00  0.00    -0.444 OA
BRANCH  30  31
ATOM     31  C   UNL     1      19.539   4.900  27.978  0.00  0.00    +0.292 C 
BRANCH  31  33
ATOM     32  N   UNL     1      18.879   6.740  26.452  0.00  0.00    -0.131 NA
ATOM     33  C   UNL     1      19.331   6.332  27.683  0.00  0.00    +0.120 A 
ATOM     34  C   UNL     1      19.511   7.440  28.486  0.00  0.00    +0.137 A 
ATOM     35  N   UNL     1      19.162   8.481  27.687  0.00  0.00    -0.249 N 
ATOM     36  N   UNL     1      18.766   8.058  26.471  0.00  0.00    -0.065 NA
BRANCH  35  37
ATOM     37  C   UNL     1      19.182   9.894  27.993  0.00  0.00    +0.178 C 
BRANCH  37  38
ATOM     38  C   UNL     1      19.803  10.763  26.893  0.00  0.00    +0.161 C 
BRANCH  38  39
ATOM     39  O   UNL     1      18.858  11.132  25.885  0.00  0.00    -0.388 OA
ATOM     40  H   UNL     1      17.972  11.195  26.296  0.00  0.00    +0.210 HD
ENDBRANCH  38  39
BRANCH  38  41
ATOM     41  C   UNL     1      20.509  12.016  27.426  0.00  0.00    +0.189 C 
BRANCH  41  42
ATOM     42  O   UNL     1      20.285  12.183  28.825  0.00  0.00    -0.392 OA
ATOM     43  H   UNL     1      19.669  12.930  28.948  0.00  0.00    +0.210 HD
ENDBRANCH  41  42
ENDBRANCH  38  41
ENDBRANCH  37  38
ENDBRANCH  35  37
ENDBRANCH  31  33
ENDBRANCH  30  31
ENDBRANCH  26  30
ENDBRANCH  25  28
ENDBRANCH   1  25
TORSDOF 18
