REMARK VINA RESULT:    -6.175      1.732      2.330
REMARK INTER + INTRA:         -14.000
REMARK INTER:                 -12.198
REMARK INTRA:                  -1.803
REMARK UNBOUND:                -2.230
REMARK  Name = lig_assembled_9.pdb
REMARK  20 active torsions:
REMARK  status: ('A' for Active; 'I' for Inactive)
REMARK    1  A    between atoms: _2  and  _9
REMARK    2  A    between atoms: _4  and  _23
REMARK    3  A    between atoms: _6  and  _7
REMARK    4  A    between atoms: _6  and  _23
REMARK    5  A    between atoms: _11  and  _12
REMARK    6  A    between atoms: _12  and  _17
REMARK    7  A    between atoms: _13  and  _14
REMARK    8  A    between atoms: _13  and  _17
REMARK    9  A    between atoms: _19  and  _39
REMARK   10  A    between atoms: _21  and  _27
REMARK   11  A    between atoms: _22  and  _26
REMARK   12  A    between atoms: _26  and  _27
REMARK   13  A    between atoms: _29  and  _30
REMARK   14  A    between atoms: _31  and  _32
REMARK   15  A    between atoms: _33  and  _35
REMARK   16  A    between atoms: _35  and  _36
REMARK   17  A    between atoms: _35  and  _37
REMARK   18  A    between atoms: _37  and  _38
REMARK   19  A    between atoms: _37  and  _39
REMARK   20  A    between atoms: _40  and  _42
REMARK                            x       y       z     vdW  Elec       q    Type
REMARK                         _______ _______ _______ _____ _____    ______ ____
ROOT
ATOM      1  C   UNL     1       6.367   2.884  32.740  0.00  0.00    +0.163 C 
ENDROOT
BRANCH   1   2
ATOM      2  O   UNL     1       6.194   3.237  31.358  0.00  0.00    -0.388 OA
ATOM      3  H   UNL     1       7.049   3.436  30.969  0.00  0.00    +0.210 HD
ENDBRANCH   1   2
BRANCH   1   4
ATOM      4  C   UNL     1       7.545   3.654  33.362  0.00  0.00    +0.175 C 
BRANCH   4   5
ATOM      5  C   UNL     1       7.217   4.176  34.768  0.00  0.00    +0.176 C 
ATOM      6  O   UNL     1       7.269   5.628  34.730  0.00  0.00    -0.332 OA
ATOM      7  C   UNL     1       6.877   6.309  35.968  0.00  0.00    +0.277 C 
ATOM      8  C   UNL     1       7.714   5.787  37.161  0.00  0.00    +0.110 C 
ATOM      9  C   UNL     1       7.715   4.245  37.224  0.00  0.00    +0.143 C 
ATOM     10  C   UNL     1       8.135   3.641  35.884  0.00  0.00    +0.133 C 
BRANCH  10  11
ATOM     11  N   UNL     1       8.048   2.173  35.930  0.00  0.00    -0.308 N 
ATOM     12  H   UNL     1       7.164   1.761  36.195  0.00  0.00    +0.149 HD
ATOM     13  C   UNL     1       9.060   1.350  35.646  0.00  0.00    +0.210 C 
ATOM     14  C   UNL     1      10.401   2.009  35.271  0.00  0.00    +0.109 C 
ATOM     15  O   UNL     1       8.954   0.123  35.679  0.00  0.00    -0.276 OA
ENDBRANCH  10  11
BRANCH   7  16
ATOM     16  C   UNL     1       5.377   6.097  36.258  0.00  0.00    +0.414 C 
ATOM     17  O   UNL     1       4.967   6.072  37.418  0.00  0.00    -0.240 OA
ATOM     18  O   UNL     1       4.577   5.950  35.333  0.00  0.00    -0.240 OA
ENDBRANCH   7  16
BRANCH   7  19
ATOM     19  O   UNL     1       7.147   7.726  35.805  0.00  0.00    -0.343 OA
ATOM     20  C   UNL     1       7.529   8.126  34.465  0.00  0.00    +0.198 C 
ENDBRANCH   7  19
BRANCH   9  21
ATOM     21  O   UNL     1       8.616   3.805  38.241  0.00  0.00    -0.390 OA
ATOM     22  H   UNL     1       9.419   4.331  38.208  0.00  0.00    +0.210 HD
ENDBRANCH   9  21
ENDBRANCH   4   5
BRANCH   4  23
ATOM     23  O   UNL     1       7.931   4.747  32.504  0.00  0.00    -0.387 OA
ATOM     24  H   UNL     1       7.184   5.007  31.961  0.00  0.00    +0.210 HD
ENDBRANCH   4  23
ENDBRANCH   1   4
BRANCH   1  25
ATOM     25  C   UNL     1       5.092   3.187  33.520  0.00  0.00    +0.141 C 
BRANCH  25  28
ATOM     26  C   UNL     1       2.722   3.580  32.941  0.00  0.00    +0.401 C 
ATOM     27  O   UNL     1       2.287   3.061  33.971  0.00  0.00    -0.226 OA
ATOM     28  N   UNL     1       4.019   3.676  32.645  0.00  0.00    -0.279 N 
ATOM     29  H   UNL     1       4.278   4.111  31.771  0.00  0.00    +0.152 HD
BRANCH  26  30
ATOM     30  O   UNL     1       1.799   4.113  31.988  0.00  0.00    -0.444 OA
BRANCH  30  31
ATOM     31  C   UNL     1       1.196   3.042  31.256  0.00  0.00    +0.292 C 
BRANCH  31  33
ATOM     32  N   UNL     1       2.402   3.442  29.132  0.00  0.00    -0.131 NA
ATOM     33  C   UNL     1       1.223   3.333  29.811  0.00  0.00    +0.121 A 
ATOM     34  C   UNL     1       0.180   3.524  28.935  0.00  0.00    +0.143 A 
ATOM     35  N   UNL     1       0.777   3.710  27.708  0.00  0.00    -0.220 N 
ATOM     36  N   UNL     1       2.123   3.680  27.857  0.00  0.00    -0.060 NA
BRANCH  35  37
ATOM     37  C   UNL     1       0.164   3.881  26.440  0.00  0.00    +0.068 A 
ATOM     38  C   UNL     1       0.656   3.206  25.314  0.00  0.00    +0.042 A 
ATOM     39  C   UNL     1       0.066   3.403  24.057  0.00  0.00    +0.061 A 
ATOM     40  C   UNL     1      -1.022   4.274  23.930  0.00  0.00    +0.015 A 
ATOM     41  C   UNL     1      -1.523   4.937  25.052  0.00  0.00    +0.003 A 
ATOM     42  C   UNL     1      -0.935   4.742  26.303  0.00  0.00    +0.028 A 
BRANCH  39  43
ATOM     43  C   UNL     1       0.519   2.661  22.850  0.00  0.00    +0.339 C 
ATOM     44  O   UNL     1      -0.106   1.744  22.344  0.00  0.00    -0.245 OA
BRANCH  43  45
ATOM     45  O   UNL     1       1.751   3.094  22.483  0.00  0.00    -0.461 OA
BRANCH  45  46
ATOM     46  C   UNL     1       1.772   4.239  21.620  0.00  0.00    +0.229 C 
ATOM     47  C   UNL     1       1.754   3.745  20.186  0.00  0.00    +0.048 C 
ENDBRANCH  45  46
ENDBRANCH  43  45
ENDBRANCH  39  43
ENDBRANCH  35  37
ENDBRANCH  31  33
ENDBRANCH  30  31
ENDBRANCH  26  30
ENDBRANCH  25  28
ENDBRANCH   1  25
TORSDOF 17
