REMARK VINA RESULT:    -6.801      7.736     12.669
REMARK INTER + INTRA:         -14.208
REMARK INTER:                 -12.641
REMARK INTRA:                  -1.567
REMARK UNBOUND:                -1.444
REMARK  Name = lig_assembled_16.pdb
REMARK  19 active torsions:
REMARK  status: ('A' for Active; 'I' for Inactive)
REMARK    1  A    between atoms: _2  and  _9
REMARK    2  A    between atoms: _4  and  _22
REMARK    3  A    between atoms: _6  and  _7
REMARK    4  A    between atoms: _6  and  _22
REMARK    5  A    between atoms: _9  and  _10
REMARK    6  A    between atoms: _13  and  _14
REMARK    7  A    between atoms: _14  and  _16
REMARK    8  A    between atoms: _18  and  _38
REMARK    9  A    between atoms: _20  and  _26
REMARK   10  A    between atoms: _21  and  _25
REMARK   11  A    between atoms: _25  and  _26
REMARK   12  A    between atoms: _28  and  _29
REMARK   13  A    between atoms: _30  and  _31
REMARK   14  A    between atoms: _32  and  _34
REMARK   15  A    between atoms: _34  and  _35
REMARK   16  A    between atoms: _34  and  _36
REMARK   17  A    between atoms: _36  and  _37
REMARK   18  A    between atoms: _36  and  _38
REMARK   19  A    between atoms: _39  and  _41
REMARK                            x       y       z     vdW  Elec       q    Type
REMARK                         _______ _______ _______ _____ _____    ______ ____
ROOT
ATOM      1  C   UNL     1       3.659   3.717  32.499  0.00  0.00    +0.163 C 
ENDROOT
BRANCH   1   2
ATOM      2  O   UNL     1       2.847   4.052  33.635  0.00  0.00    -0.388 OA
ATOM      3  H   UNL     1       3.116   3.522  34.390  0.00  0.00    +0.210 HD
ENDBRANCH   1   2
BRANCH   1   4
ATOM      4  C   UNL     1       5.004   3.114  32.942  0.00  0.00    +0.175 C 
BRANCH   4   5
ATOM      5  C   UNL     1       5.559   3.802  34.198  0.00  0.00    +0.176 C 
ATOM      6  O   UNL     1       5.667   5.225  33.917  0.00  0.00    -0.332 OA
ATOM      7  C   UNL     1       6.084   6.063  35.045  0.00  0.00    +0.277 C 
ATOM      8  C   UNL     1       7.416   5.545  35.641  0.00  0.00    +0.110 C 
ATOM      9  C   UNL     1       7.361   4.030  35.926  0.00  0.00    +0.143 C 
ATOM     10  C   UNL     1       6.913   3.254  34.687  0.00  0.00    +0.133 C 
BRANCH  10  11
ATOM     11  N   UNL     1       6.780   1.822  34.996  0.00  0.00    -0.308 N 
ATOM     12  H   UNL     1       6.113   1.552  35.705  0.00  0.00    +0.149 HD
ATOM     13  C   UNL     1       7.484   0.855  34.401  0.00  0.00    +0.210 C 
ATOM     14  C   UNL     1       8.512   1.301  33.343  0.00  0.00    +0.109 C 
ATOM     15  O   UNL     1       7.341  -0.338  34.669  0.00  0.00    -0.276 OA
ENDBRANCH  10  11
BRANCH   7  16
ATOM     16  C   UNL     1       5.001   6.082  36.143  0.00  0.00    +0.414 C 
ATOM     17  O   UNL     1       5.288   6.414  37.293  0.00  0.00    -0.240 OA
ATOM     18  O   UNL     1       3.840   5.765  35.880  0.00  0.00    -0.240 OA
ENDBRANCH   7  16
BRANCH   7  19
ATOM     19  O   UNL     1       6.299   7.410  34.548  0.00  0.00    -0.343 OA
ATOM     20  C   UNL     1       7.563   8.009  34.929  0.00  0.00    +0.198 C 
ENDBRANCH   7  19
BRANCH   9  21
ATOM     21  O   UNL     1       8.651   3.568  36.330  0.00  0.00    -0.390 OA
ATOM     22  H   UNL     1       8.552   2.851  36.960  0.00  0.00    +0.210 HD
ENDBRANCH   9  21
ENDBRANCH   4   5
BRANCH   4  23
ATOM     23  O   UNL     1       5.961   3.193  31.868  0.00  0.00    -0.387 OA
ATOM     24  H   UNL     1       5.595   3.714  31.149  0.00  0.00    +0.210 HD
ENDBRANCH   4  23
ENDBRANCH   1   4
BRANCH   1  25
ATOM     25  C   UNL     1       2.924   2.722  31.607  0.00  0.00    +0.141 C 
BRANCH  25  28
ATOM     26  C   UNL     1       2.228   2.648  29.237  0.00  0.00    +0.401 C 
ATOM     27  O   UNL     1       2.354   1.425  29.140  0.00  0.00    -0.226 OA
ATOM     28  N   UNL     1       2.478   3.337  30.351  0.00  0.00    -0.279 N 
ATOM     29  H   UNL     1       2.354   4.340  30.330  0.00  0.00    +0.152 HD
BRANCH  26  30
ATOM     30  O   UNL     1       1.791   3.394  28.098  0.00  0.00    -0.444 OA
BRANCH  30  31
ATOM     31  C   UNL     1       1.805   2.552  26.942  0.00  0.00    +0.292 C 
BRANCH  31  33
ATOM     32  N   UNL     1       2.447   4.243  25.249  0.00  0.00    -0.131 NA
ATOM     33  C   UNL     1       1.530   3.344  25.730  0.00  0.00    +0.120 A 
ATOM     34  C   UNL     1       0.432   3.332  24.899  0.00  0.00    +0.137 A 
ATOM     35  N   UNL     1       0.785   4.171  23.884  0.00  0.00    -0.247 N 
ATOM     36  N   UNL     1       1.972   4.758  24.123  0.00  0.00    -0.065 NA
BRANCH  35  37
ATOM     37  C   UNL     1       0.061   4.441  22.659  0.00  0.00    +0.180 C 
BRANCH  37  38
ATOM     38  C   UNL     1       0.783   3.875  21.457  0.00  0.00    -0.026 A 
ATOM     39  C   UNL     1       1.602   2.744  21.582  0.00  0.00    +0.006 A 
ATOM     40  C   UNL     1       2.237   2.202  20.461  0.00  0.00    +0.015 A 
ATOM     41  C   UNL     1       2.073   2.789  19.204  0.00  0.00    +0.059 A 
ATOM     42  C   UNL     1       1.273   3.933  19.070  0.00  0.00    +0.015 A 
ATOM     43  C   UNL     1       0.645   4.477  20.195  0.00  0.00    +0.006 A 
BRANCH  41  44
ATOM     44  C   UNL     1       2.711   2.129  18.034  0.00  0.00    +0.337 C 
ATOM     45  O   UNL     1       2.104   1.369  17.297  0.00  0.00    -0.245 OA
BRANCH  44  46
ATOM     46  O   UNL     1       4.018   2.417  17.883  0.00  0.00    -0.477 OA
ATOM     47  H   UNL     1       4.210   3.313  17.554  0.00  0.00    +0.295 HD
ENDBRANCH  44  46
ENDBRANCH  41  44
ENDBRANCH  37  38
ENDBRANCH  35  37
ENDBRANCH  31  33
ENDBRANCH  30  31
ENDBRANCH  26  30
ENDBRANCH  25  28
ENDBRANCH   1  25
TORSDOF 17
