REMARK VINA RESULT:    -6.078     21.542     24.134
REMARK INTER + INTRA:         -12.434
REMARK INTER:                 -10.584
REMARK INTRA:                  -1.850
REMARK UNBOUND:                -1.914
REMARK  Name = lig_assembled_56.pdb
REMARK  16 active torsions:
REMARK  status: ('A' for Active; 'I' for Inactive)
REMARK    1  A    between atoms: _2  and  _10
REMARK    2  A    between atoms: _5  and  _18
REMARK    3  A    between atoms: _7  and  _8
REMARK    4  A    between atoms: _7  and  _18
REMARK    5  A    between atoms: _14  and  _34
REMARK    6  A    between atoms: _16  and  _22
REMARK    7  A    between atoms: _17  and  _21
REMARK    8  A    between atoms: _21  and  _22
REMARK    9  A    between atoms: _24  and  _25
REMARK   10  A    between atoms: _26  and  _27
REMARK   11  A    between atoms: _28  and  _30
REMARK   12  A    between atoms: _30  and  _31
REMARK   13  A    between atoms: _30  and  _32
REMARK   14  A    between atoms: _32  and  _33
REMARK   15  A    between atoms: _32  and  _34
REMARK   16  A    between atoms: _35  and  _37
REMARK                            x       y       z     vdW  Elec       q    Type
REMARK                         _______ _______ _______ _____ _____    ______ ____
ROOT
ATOM      1  C   UNL     1      16.580   1.029  26.230  0.00  0.00    +0.163 C 
ENDROOT
BRANCH   1   2
ATOM      2  O   UNL     1      15.486   0.371  26.890  0.00  0.00    -0.388 OA
ATOM      3  H   UNL     1      15.048   0.990  27.479  0.00  0.00    +0.210 HD
ENDBRANCH   1   2
BRANCH   1   4
ATOM      4  C   UNL     1      16.753   2.439  26.785  0.00  0.00    +0.141 C 
BRANCH   4   7
ATOM      5  C   UNL     1      18.924   3.431  26.147  0.00  0.00    +0.401 C 
ATOM      6  O   UNL     1      18.526   3.830  25.050  0.00  0.00    -0.226 OA
ATOM      7  N   UNL     1      18.165   2.766  27.019  0.00  0.00    -0.279 N 
ATOM      8  H   UNL     1      18.584   2.471  27.889  0.00  0.00    +0.152 HD
BRANCH   5   9
ATOM      9  O   UNL     1      20.280   3.680  26.527  0.00  0.00    -0.444 OA
BRANCH   9  10
ATOM     10  C   UNL     1      20.578   5.067  26.351  0.00  0.00    +0.292 C 
BRANCH  10  12
ATOM     11  N   UNL     1      20.966   5.596  28.736  0.00  0.00    -0.131 NA
ATOM     12  C   UNL     1      20.272   5.818  27.583  0.00  0.00    +0.121 A 
ATOM     13  C   UNL     1      19.329   6.796  27.807  0.00  0.00    +0.143 A 
ATOM     14  N   UNL     1      19.500   7.159  29.124  0.00  0.00    -0.220 N 
ATOM     15  N   UNL     1      20.491   6.411  29.668  0.00  0.00    -0.060 NA
BRANCH  14  16
ATOM     16  C   UNL     1      18.811   8.147  29.869  0.00  0.00    +0.070 A 
ATOM     17  C   UNL     1      18.186   7.830  31.078  0.00  0.00    +0.047 A 
ATOM     18  C   UNL     1      17.516   8.842  31.748  0.00  0.00    +0.113 A 
ATOM     19  N   UNL     1      17.433  10.113  31.302  0.00  0.00    -0.263 NA
ATOM     20  C   UNL     1      18.048  10.393  30.133  0.00  0.00    +0.113 A 
ATOM     21  C   UNL     1      18.744   9.457  29.387  0.00  0.00    +0.047 A 
ENDBRANCH  14  16
ENDBRANCH  10  12
ENDBRANCH   9  10
ENDBRANCH   5   9
ENDBRANCH   4   7
ENDBRANCH   1   4
BRANCH   1  22
ATOM     22  C   UNL     1      16.344   1.099  24.711  0.00  0.00    +0.175 C 
BRANCH  22  23
ATOM     23  C   UNL     1      17.482   0.440  23.918  0.00  0.00    +0.176 C 
ATOM     24  O   UNL     1      17.531   1.063  22.605  0.00  0.00    -0.332 OA
ATOM     25  C   UNL     1      18.632   0.631  21.739  0.00  0.00    +0.277 C 
ATOM     26  C   UNL     1      18.629  -0.910  21.588  0.00  0.00    +0.110 C 
ATOM     27  C   UNL     1      18.545  -1.617  22.957  0.00  0.00    +0.143 C 
ATOM     28  C   UNL     1      17.367  -1.089  23.776  0.00  0.00    +0.133 C 
BRANCH  28  29
ATOM     29  N   UNL     1      17.349  -1.707  25.112  0.00  0.00    -0.308 N 
ATOM     30  H   UNL     1      18.060  -1.423  25.772  0.00  0.00    +0.149 HD
ATOM     31  C   UNL     1      16.456  -2.617  25.508  0.00  0.00    +0.210 C 
ATOM     32  C   UNL     1      15.403  -3.048  24.470  0.00  0.00    +0.109 C 
ATOM     33  O   UNL     1      16.457  -3.107  26.638  0.00  0.00    -0.276 OA
ENDBRANCH  28  29
BRANCH  25  34
ATOM     34  C   UNL     1      19.990   1.089  22.311  0.00  0.00    +0.414 C 
ATOM     35  O   UNL     1      20.154   2.259  22.656  0.00  0.00    -0.240 OA
ATOM     36  O   UNL     1      20.920   0.291  22.427  0.00  0.00    -0.240 OA
ENDBRANCH  25  34
BRANCH  27  37
ATOM     37  O   UNL     1      18.392  -3.024  22.765  0.00  0.00    -0.390 OA
ATOM     38  H   UNL     1      18.002  -3.189  21.904  0.00  0.00    +0.210 HD
ENDBRANCH  27  37
BRANCH  25  39
ATOM     39  O   UNL     1      18.430   1.219  20.429  0.00  0.00    -0.343 OA
ATOM     40  C   UNL     1      17.191   1.955  20.272  0.00  0.00    +0.198 C 
ENDBRANCH  25  39
ENDBRANCH  22  23
BRANCH  22  41
ATOM     41  O   UNL     1      16.180   2.471  24.298  0.00  0.00    -0.387 OA
ATOM     42  H   UNL     1      15.367   2.558  23.794  0.00  0.00    +0.210 HD
ENDBRANCH  22  41
ENDBRANCH   1  22
TORSDOF 14
