REMARK VINA RESULT:    -6.059      1.967      3.955
REMARK INTER + INTRA:         -14.341
REMARK INTER:                 -11.825
REMARK INTRA:                  -2.516
REMARK UNBOUND:                -2.615
REMARK  Name = lig_assembled_83.pdb
REMARK  20 active torsions:
REMARK  status: ('A' for Active; 'I' for Inactive)
REMARK    1  A    between atoms: _2  and  _12
REMARK    2  A    between atoms: _3  and  _14
REMARK    3  A    between atoms: _7  and  _24
REMARK    4  A    between atoms: _9  and  _10
REMARK    5  A    between atoms: _9  and  _24
REMARK    6  A    between atoms: _12  and  _13
REMARK    7  A    between atoms: _13  and  _14
REMARK    8  A    between atoms: _13  and  _18
REMARK    9  A    between atoms: _20  and  _40
REMARK   10  A    between atoms: _22  and  _28
REMARK   11  A    between atoms: _23  and  _27
REMARK   12  A    between atoms: _27  and  _28
REMARK   13  A    between atoms: _30  and  _31
REMARK   14  A    between atoms: _32  and  _33
REMARK   15  A    between atoms: _34  and  _36
REMARK   16  A    between atoms: _36  and  _37
REMARK   17  A    between atoms: _36  and  _38
REMARK   18  A    between atoms: _38  and  _39
REMARK   19  A    between atoms: _38  and  _40
REMARK   20  A    between atoms: _41  and  _43
REMARK                            x       y       z     vdW  Elec       q    Type
REMARK                         _______ _______ _______ _____ _____    ______ ____
ROOT
ATOM      1  C   UNL     1      19.056   3.939  23.804  0.00  0.00    +0.141 C 
ENDROOT
BRANCH   1   4
ATOM      2  C   UNL     1      18.362   6.262  24.279  0.00  0.00    +0.401 C 
ATOM      3  O   UNL     1      18.313   6.590  23.091  0.00  0.00    -0.226 OA
ATOM      4  N   UNL     1      18.706   5.045  24.703  0.00  0.00    -0.279 N 
ATOM      5  H   UNL     1      18.726   4.875  25.698  0.00  0.00    +0.152 HD
BRANCH   2   6
ATOM      6  O   UNL     1      18.039   7.230  25.280  0.00  0.00    -0.444 OA
BRANCH   6   7
ATOM      7  C   UNL     1      18.801   6.968  26.462  0.00  0.00    +0.292 C 
BRANCH   7   9
ATOM      8  N   UNL     1      18.688   9.438  26.690  0.00  0.00    -0.131 NA
ATOM      9  C   UNL     1      19.066   8.220  27.194  0.00  0.00    +0.120 A 
ATOM     10  C   UNL     1      19.684   8.411  28.409  0.00  0.00    +0.137 A 
ATOM     11  N   UNL     1      19.634   9.759  28.592  0.00  0.00    -0.249 N 
ATOM     12  N   UNL     1      19.048  10.378  27.555  0.00  0.00    -0.065 NA
BRANCH  11  13
ATOM     13  C   UNL     1      20.158  10.521  29.706  0.00  0.00    +0.178 C 
BRANCH  13  14
ATOM     14  C   UNL     1      19.042  11.045  30.614  0.00  0.00    +0.156 C 
BRANCH  14  15
ATOM     15  O   UNL     1      17.769  10.815  30.002  0.00  0.00    -0.388 OA
ATOM     16  H   UNL     1      17.127  11.487  30.312  0.00  0.00    +0.210 HD
ENDBRANCH  14  15
BRANCH  14  17
ATOM     17  C   UNL     1      19.104  10.361  31.990  0.00  0.00    +0.162 C 
BRANCH  17  18
ATOM     18  N   UNL     1      18.117   9.302  32.131  0.00  0.00    -0.269 N 
ATOM     19  C   UNL     1      18.370   7.985  31.820  0.00  0.00    +0.113 A 
ATOM     20  C   UNL     1      17.211   7.307  32.118  0.00  0.00    +0.137 A 
ATOM     21  N   UNL     1      16.249   8.166  32.573  0.00  0.00    -0.172 NA
ATOM     22  C   UNL     1      16.819   9.357  32.578  0.00  0.00    +0.450 A 
ATOM     23  N   UNL     1      16.125  10.548  33.014  0.00  0.00    +0.120 N 
ATOM     24  O   UNL     1      16.748  11.622  32.983  0.00  0.00    +0.045 OA
ATOM     25  O   UNL     1      14.949  10.423  33.377  0.00  0.00    -0.573 OA
ENDBRANCH  17  18
ENDBRANCH  14  17
ENDBRANCH  13  14
ENDBRANCH  11  13
ENDBRANCH   7   9
ENDBRANCH   6   7
ENDBRANCH   2   6
ENDBRANCH   1   4
BRANCH   1  26
ATOM     26  C   UNL     1      19.041   2.594  24.524  0.00  0.00    +0.163 C 
BRANCH  26  27
ATOM     27  O   UNL     1      19.699   2.710  25.796  0.00  0.00    -0.388 OA
ATOM     28  H   UNL     1      19.090   2.464  26.496  0.00  0.00    +0.210 HD
ENDBRANCH  26  27
BRANCH  26  29
ATOM     29  C   UNL     1      17.587   2.121  24.698  0.00  0.00    +0.175 C 
BRANCH  29  30
ATOM     30  C   UNL     1      17.462   0.593  24.605  0.00  0.00    +0.176 C 
ATOM     31  O   UNL     1      18.071   0.021  25.795  0.00  0.00    -0.332 OA
ATOM     32  C   UNL     1      17.951  -1.433  25.932  0.00  0.00    +0.277 C 
ATOM     33  C   UNL     1      18.501  -2.143  24.670  0.00  0.00    +0.110 C 
ATOM     34  C   UNL     1      17.906  -1.547  23.377  0.00  0.00    +0.143 C 
ATOM     35  C   UNL     1      18.083  -0.029  23.340  0.00  0.00    +0.133 C 
BRANCH  35  36
ATOM     36  N   UNL     1      17.435   0.537  22.146  0.00  0.00    -0.308 N 
ATOM     37  H   UNL     1      16.425   0.534  22.111  0.00  0.00    +0.149 HD
ATOM     38  C   UNL     1      18.095   1.054  21.106  0.00  0.00    +0.210 C 
ATOM     39  C   UNL     1      19.633   1.020  21.179  0.00  0.00    +0.109 C 
ATOM     40  O   UNL     1      17.525   1.534  20.125  0.00  0.00    -0.276 OA
ENDBRANCH  35  36
BRANCH  32  41
ATOM     41  C   UNL     1      16.480  -1.843  26.154  0.00  0.00    +0.414 C 
ATOM     42  O   UNL     1      15.991  -2.770  25.511  0.00  0.00    -0.240 OA
ATOM     43  O   UNL     1      15.783  -1.246  26.975  0.00  0.00    -0.240 OA
ENDBRANCH  32  41
BRANCH  32  44
ATOM     44  O   UNL     1      18.750  -1.844  27.072  0.00  0.00    -0.343 OA
ATOM     45  C   UNL     1      19.247  -0.758  27.894  0.00  0.00    +0.198 C 
ENDBRANCH  32  44
BRANCH  34  46
ATOM     46  O   UNL     1      18.550  -2.123  22.240  0.00  0.00    -0.390 OA
ATOM     47  H   UNL     1      19.237  -2.727  22.533  0.00  0.00    +0.210 HD
ENDBRANCH  34  46
ENDBRANCH  29  30
BRANCH  29  48
ATOM     48  O   UNL     1      16.739   2.750  23.716  0.00  0.00    -0.387 OA
ATOM     49  H   UNL     1      17.122   2.636  22.843  0.00  0.00    +0.210 HD
ENDBRANCH  29  48
ENDBRANCH  26  29
ENDBRANCH   1  26
TORSDOF 18
