REMARK VINA RESULT:    -6.059     13.759     17.528
REMARK INTER + INTRA:         -13.273
REMARK INTER:                 -11.687
REMARK INTRA:                  -1.587
REMARK UNBOUND:                -2.078
REMARK  Name = lig_assembled_14.pdb
REMARK  18 active torsions:
REMARK  status: ('A' for Active; 'I' for Inactive)
REMARK    1  A    between atoms: _2  and  _10
REMARK    2  A    between atoms: _3  and  _11
REMARK    3  A    between atoms: _5  and  _19
REMARK    4  A    between atoms: _7  and  _8
REMARK    5  A    between atoms: _7  and  _19
REMARK    6  A    between atoms: _10  and  _11
REMARK    7  A    between atoms: _15  and  _35
REMARK    8  A    between atoms: _17  and  _23
REMARK    9  A    between atoms: _18  and  _22
REMARK   10  A    between atoms: _22  and  _23
REMARK   11  A    between atoms: _25  and  _26
REMARK   12  A    between atoms: _27  and  _28
REMARK   13  A    between atoms: _29  and  _31
REMARK   14  A    between atoms: _31  and  _32
REMARK   15  A    between atoms: _31  and  _33
REMARK   16  A    between atoms: _33  and  _34
REMARK   17  A    between atoms: _33  and  _35
REMARK   18  A    between atoms: _36  and  _38
REMARK                            x       y       z     vdW  Elec       q    Type
REMARK                         _______ _______ _______ _____ _____    ______ ____
ROOT
ATOM      1  C   UNL     1       6.410   2.805  32.717  0.00  0.00    +0.163 C 
ENDROOT
BRANCH   1   2
ATOM      2  O   UNL     1       6.184   3.245  31.368  0.00  0.00    -0.388 OA
ATOM      3  H   UNL     1       5.299   2.991  31.092  0.00  0.00    +0.210 HD
ENDBRANCH   1   2
BRANCH   1   4
ATOM      4  C   UNL     1       7.570   3.583  33.361  0.00  0.00    +0.175 C 
BRANCH   4   5
ATOM      5  C   UNL     1       7.213   4.097  34.764  0.00  0.00    +0.176 C 
ATOM      6  O   UNL     1       7.396   5.539  34.772  0.00  0.00    -0.332 OA
ATOM      7  C   UNL     1       6.999   6.222  36.007  0.00  0.00    +0.277 C 
ATOM      8  C   UNL     1       7.719   5.597  37.226  0.00  0.00    +0.110 C 
ATOM      9  C   UNL     1       7.579   4.060  37.244  0.00  0.00    +0.143 C 
ATOM     10  C   UNL     1       8.017   3.454  35.910  0.00  0.00    +0.133 C 
BRANCH  10  11
ATOM     11  N   UNL     1       7.797   1.999  35.908  0.00  0.00    -0.308 N 
ATOM     12  H   UNL     1       6.863   1.663  36.093  0.00  0.00    +0.149 HD
ATOM     13  C   UNL     1       8.753   1.094  35.678  0.00  0.00    +0.210 C 
ATOM     14  C   UNL     1      10.171   1.638  35.426  0.00  0.00    +0.109 C 
ATOM     15  O   UNL     1       8.537  -0.118  35.669  0.00  0.00    -0.276 OA
ENDBRANCH  10  11
BRANCH   7  16
ATOM     16  C   UNL     1       5.472   6.139  36.211  0.00  0.00    +0.414 C 
ATOM     17  O   UNL     1       4.724   5.987  35.246  0.00  0.00    -0.240 OA
ATOM     18  O   UNL     1       4.988   6.223  37.340  0.00  0.00    -0.240 OA
ENDBRANCH   7  16
BRANCH   9  19
ATOM     19  O   UNL     1       8.381   3.516  38.293  0.00  0.00    -0.390 OA
ATOM     20  H   UNL     1       8.894   2.778  37.955  0.00  0.00    +0.210 HD
ENDBRANCH   9  19
BRANCH   7  21
ATOM     21  O   UNL     1       7.402   7.612  35.901  0.00  0.00    -0.343 OA
ATOM     22  C   UNL     1       7.506   8.118  34.546  0.00  0.00    +0.198 C 
ENDBRANCH   7  21
ENDBRANCH   4   5
BRANCH   4  23
ATOM     23  O   UNL     1       7.963   4.682  32.515  0.00  0.00    -0.387 OA
ATOM     24  H   UNL     1       8.427   4.344  31.745  0.00  0.00    +0.210 HD
ENDBRANCH   4  23
ENDBRANCH   1   4
BRANCH   1  25
ATOM     25  C   UNL     1       5.145   2.997  33.547  0.00  0.00    +0.141 C 
BRANCH  25  28
ATOM     26  C   UNL     1       2.986   3.203  32.364  0.00  0.00    +0.401 C 
ATOM     27  O   UNL     1       2.969   4.435  32.413  0.00  0.00    -0.226 OA
ATOM     28  N   UNL     1       3.961   2.449  32.874  0.00  0.00    -0.279 N 
ATOM     29  H   UNL     1       3.880   1.446  32.793  0.00  0.00    +0.152 HD
BRANCH  26  30
ATOM     30  O   UNL     1       1.902   2.519  31.730  0.00  0.00    -0.444 OA
BRANCH  30  31
ATOM     31  C   UNL     1       2.418   1.506  30.862  0.00  0.00    +0.292 C 
BRANCH  31  33
ATOM     32  N   UNL     1       1.506   0.793  28.675  0.00  0.00    -0.131 NA
ATOM     33  C   UNL     1       2.033   1.780  29.465  0.00  0.00    +0.120 A 
ATOM     34  C   UNL     1       2.122   2.943  28.733  0.00  0.00    +0.137 A 
ATOM     35  N   UNL     1       1.646   2.593  27.507  0.00  0.00    -0.250 N 
ATOM     36  N   UNL     1       1.269   1.303  27.476  0.00  0.00    -0.065 NA
BRANCH  35  37
ATOM     37  C   UNL     1       1.572   3.404  26.310  0.00  0.00    +0.160 C 
BRANCH  37  38
ATOM     38  C   UNL     1       1.856   2.584  25.046  0.00  0.00    +0.107 C 
BRANCH  38  39
ATOM     39  N   UNL     1       2.225   3.419  23.890  0.00  0.00    -0.301 NA
ATOM     40  C   UNL     1       1.609   2.973  22.637  0.00  0.00    +0.084 C 
ATOM     41  C   UNL     1       1.785   4.179  21.737  0.00  0.00    +0.017 C 
ATOM     42  C   UNL     1       1.562   5.359  22.664  0.00  0.00    +0.017 C 
ATOM     43  C   UNL     1       1.801   4.816  24.070  0.00  0.00    +0.084 C 
ENDBRANCH  38  39
ENDBRANCH  37  38
ENDBRANCH  35  37
ENDBRANCH  31  33
ENDBRANCH  30  31
ENDBRANCH  26  30
ENDBRANCH  25  28
ENDBRANCH   1  25
TORSDOF 16
