REMARK VINA RESULT:    -6.312     21.695     24.479
REMARK INTER + INTRA:         -13.170
REMARK INTER:                 -10.704
REMARK INTRA:                  -2.466
REMARK UNBOUND:                -1.875
REMARK  Name = lig_assembled_82.pdb
REMARK  19 active torsions:
REMARK  status: ('A' for Active; 'I' for Inactive)
REMARK    1  A    between atoms: _2  and  _9
REMARK    2  A    between atoms: _4  and  _22
REMARK    3  A    between atoms: _5  and  _16
REMARK    4  A    between atoms: _6  and  _7
REMARK    5  A    between atoms: _6  and  _22
REMARK    6  A    between atoms: _9  and  _10
REMARK    7  A    between atoms: _16  and  _17
REMARK    8  A    between atoms: _18  and  _38
REMARK    9  A    between atoms: _20  and  _26
REMARK   10  A    between atoms: _21  and  _25
REMARK   11  A    between atoms: _25  and  _26
REMARK   12  A    between atoms: _28  and  _29
REMARK   13  A    between atoms: _30  and  _31
REMARK   14  A    between atoms: _32  and  _34
REMARK   15  A    between atoms: _34  and  _35
REMARK   16  A    between atoms: _34  and  _36
REMARK   17  A    between atoms: _36  and  _37
REMARK   18  A    between atoms: _36  and  _38
REMARK   19  A    between atoms: _39  and  _41
REMARK                            x       y       z     vdW  Elec       q    Type
REMARK                         _______ _______ _______ _____ _____    ______ ____
ROOT
ATOM      1  C   UNL     1      11.357  23.314  25.876  0.00  0.00    +0.163 C 
ENDROOT
BRANCH   1   2
ATOM      2  O   UNL     1      10.679  22.052  25.760  0.00  0.00    -0.388 OA
ATOM      3  H   UNL     1      10.614  21.807  24.834  0.00  0.00    +0.210 HD
ENDBRANCH   1   2
BRANCH   1   4
ATOM      4  C   UNL     1      12.621  23.151  26.713  0.00  0.00    +0.141 C 
BRANCH   4   7
ATOM      5  C   UNL     1      14.896  22.693  25.863  0.00  0.00    +0.401 C 
ATOM      6  O   UNL     1      15.359  23.769  26.249  0.00  0.00    -0.226 OA
ATOM      7  N   UNL     1      13.626  22.324  26.033  0.00  0.00    -0.279 N 
ATOM      8  H   UNL     1      13.338  21.425  25.672  0.00  0.00    +0.152 HD
BRANCH   5   9
ATOM      9  O   UNL     1      15.754  21.771  25.187  0.00  0.00    -0.444 OA
BRANCH   9  10
ATOM     10  C   UNL     1      16.691  22.491  24.383  0.00  0.00    +0.292 C 
BRANCH  10  12
ATOM     11  N   UNL     1      15.802  21.283  22.416  0.00  0.00    -0.131 NA
ATOM     12  C   UNL     1      16.321  22.431  22.966  0.00  0.00    +0.120 A 
ATOM     13  C   UNL     1      16.406  23.392  21.974  0.00  0.00    +0.137 A 
ATOM     14  N   UNL     1      16.051  22.727  20.834  0.00  0.00    -0.247 N 
ATOM     15  N   UNL     1      15.604  21.490  21.121  0.00  0.00    -0.065 NA
BRANCH  14  16
ATOM     16  C   UNL     1      16.193  23.163  19.442  0.00  0.00    +0.176 C 
BRANCH  16  17
ATOM     17  C   UNL     1      14.886  23.617  18.840  0.00  0.00    -0.049 C 
ATOM     18  C   UNL     1      14.867  23.943  17.381  0.00  0.00    +0.023 C 
ATOM     19  C   UNL     1      13.561  23.583  16.538  0.00  0.00    -0.025 C 
ATOM     20  C   UNL     1      12.561  22.428  16.672  0.00  0.00    +0.012 C 
ATOM     21  C   UNL     1      12.987  24.871  17.294  0.00  0.00    -0.000 C 
ATOM     22  C   UNL     1      12.617  24.636  18.793  0.00  0.00    +0.031 C 
ATOM     23  C   UNL     1      14.064  23.544  15.074  0.00  0.00    +0.012 C 
ATOM     24  C   UNL     1      14.423  25.449  17.190  0.00  0.00    +0.012 C 
ATOM     25  C   UNL     1      13.760  23.934  19.509  0.00  0.00    -0.025 C 
ENDBRANCH  16  17
ENDBRANCH  14  16
ENDBRANCH  10  12
ENDBRANCH   9  10
ENDBRANCH   5   9
ENDBRANCH   4   7
ENDBRANCH   1   4
BRANCH   1  26
ATOM     26  C   UNL     1      10.445  24.371  26.522  0.00  0.00    +0.175 C 
BRANCH  26  27
ATOM     27  C   UNL     1       9.741  25.245  25.474  0.00  0.00    +0.176 C 
ATOM     28  O   UNL     1       8.721  24.436  24.828  0.00  0.00    -0.332 OA
ATOM     29  C   UNL     1       7.869  25.139  23.864  0.00  0.00    +0.277 C 
ATOM     30  C   UNL     1       8.735  25.844  22.791  0.00  0.00    +0.110 C 
ATOM     31  C   UNL     1       9.855  26.693  23.430  0.00  0.00    +0.143 C 
ATOM     32  C   UNL     1      10.676  25.863  24.418  0.00  0.00    +0.133 C 
BRANCH  32  33
ATOM     33  N   UNL     1      11.683  26.704  25.084  0.00  0.00    -0.308 N 
ATOM     34  H   UNL     1      11.358  27.398  25.742  0.00  0.00    +0.149 HD
ATOM     35  C   UNL     1      12.999  26.610  24.875  0.00  0.00    +0.210 C 
ATOM     36  C   UNL     1      13.461  25.561  23.847  0.00  0.00    +0.109 C 
ATOM     37  O   UNL     1      13.821  27.318  25.459  0.00  0.00    -0.276 OA
ENDBRANCH  32  33
BRANCH  29  38
ATOM     38  C   UNL     1       6.982  26.181  24.577  0.00  0.00    +0.414 C 
ATOM     39  O   UNL     1       6.578  25.973  25.720  0.00  0.00    -0.240 OA
ATOM     40  O   UNL     1       6.670  27.228  24.009  0.00  0.00    -0.240 OA
ENDBRANCH  29  38
BRANCH  29  41
ATOM     41  O   UNL     1       7.033  24.155  23.203  0.00  0.00    -0.343 OA
ATOM     42  C   UNL     1       7.432  22.776  23.406  0.00  0.00    +0.198 C 
ENDBRANCH  29  41
BRANCH  31  43
ATOM     43  O   UNL     1      10.716  27.200  22.411  0.00  0.00    -0.390 OA
ATOM     44  H   UNL     1      11.548  27.476  22.802  0.00  0.00    +0.210 HD
ENDBRANCH  31  43
ENDBRANCH  26  27
BRANCH  26  45
ATOM     45  O   UNL     1      11.205  25.195  27.428  0.00  0.00    -0.387 OA
ATOM     46  H   UNL     1      10.651  25.908  27.755  0.00  0.00    +0.210 HD
ENDBRANCH  26  45
ENDBRANCH   1  26
TORSDOF 15
