REMARK VINA RESULT:    -6.368     13.744     15.247
REMARK INTER + INTRA:         -13.568
REMARK INTER:                 -12.123
REMARK INTRA:                  -1.445
REMARK UNBOUND:                -1.802
REMARK  Name = lig_assembled_36.pdb
REMARK  18 active torsions:
REMARK  status: ('A' for Active; 'I' for Inactive)
REMARK    1  A    between atoms: _2  and  _10
REMARK    2  A    between atoms: _5  and  _21
REMARK    3  A    between atoms: _7  and  _8
REMARK    4  A    between atoms: _7  and  _21
REMARK    5  A    between atoms: _10  and  _11
REMARK    6  A    between atoms: _14  and  _15
REMARK    7  A    between atoms: _17  and  _37
REMARK    8  A    between atoms: _19  and  _25
REMARK    9  A    between atoms: _20  and  _24
REMARK   10  A    between atoms: _24  and  _25
REMARK   11  A    between atoms: _27  and  _28
REMARK   12  A    between atoms: _29  and  _30
REMARK   13  A    between atoms: _31  and  _33
REMARK   14  A    between atoms: _33  and  _34
REMARK   15  A    between atoms: _33  and  _35
REMARK   16  A    between atoms: _35  and  _36
REMARK   17  A    between atoms: _35  and  _37
REMARK   18  A    between atoms: _38  and  _40
REMARK                            x       y       z     vdW  Elec       q    Type
REMARK                         _______ _______ _______ _____ _____    ______ ____
ROOT
ATOM      1  C   UNL     1       5.689   1.826  32.724  0.00  0.00    +0.163 C 
ENDROOT
BRANCH   1   2
ATOM      2  O   UNL     1       5.874   0.785  31.752  0.00  0.00    -0.388 OA
ATOM      3  H   UNL     1       5.867  -0.069  32.191  0.00  0.00    +0.210 HD
ENDBRANCH   1   2
BRANCH   1   4
ATOM      4  C   UNL     1       6.999   2.598  32.959  0.00  0.00    +0.175 C 
BRANCH   4   5
ATOM      5  C   UNL     1       6.914   3.523  34.182  0.00  0.00    +0.176 C 
ATOM      6  O   UNL     1       6.976   4.897  33.710  0.00  0.00    -0.332 OA
ATOM      7  C   UNL     1       6.801   5.929  34.736  0.00  0.00    +0.277 C 
ATOM      8  C   UNL     1       7.817   5.725  35.887  0.00  0.00    +0.110 C 
ATOM      9  C   UNL     1       7.810   4.270  36.401  0.00  0.00    +0.143 C 
ATOM     10  C   UNL     1       7.996   3.280  35.251  0.00  0.00    +0.133 C 
BRANCH  10  11
ATOM     11  N   UNL     1       7.901   1.896  35.741  0.00  0.00    -0.308 N 
ATOM     12  H   UNL     1       7.020   1.594  36.133  0.00  0.00    +0.149 HD
ATOM     13  C   UNL     1       8.902   1.013  35.702  0.00  0.00    +0.210 C 
ATOM     14  C   UNL     1      10.240   1.512  35.124  0.00  0.00    +0.109 C 
ATOM     15  O   UNL     1       8.789  -0.144  36.107  0.00  0.00    -0.276 OA
ENDBRANCH  10  11
BRANCH   7  16
ATOM     16  C   UNL     1       5.367   5.899  35.304  0.00  0.00    +0.414 C 
ATOM     17  O   UNL     1       5.151   6.251  36.463  0.00  0.00    -0.240 OA
ATOM     18  O   UNL     1       4.426   5.523  34.603  0.00  0.00    -0.240 OA
ENDBRANCH   7  16
BRANCH   7  19
ATOM     19  O   UNL     1       7.057   7.219  34.123  0.00  0.00    -0.343 OA
ATOM     20  C   UNL     1       7.777   8.161  34.958  0.00  0.00    +0.198 C 
ENDBRANCH   7  19
BRANCH   9  21
ATOM     21  O   UNL     1       8.861   4.090  37.351  0.00  0.00    -0.390 OA
ATOM     22  H   UNL     1       8.535   3.584  38.098  0.00  0.00    +0.210 HD
ENDBRANCH   9  21
ENDBRANCH   4   5
BRANCH   4  23
ATOM     23  O   UNL     1       7.345   3.359  31.785  0.00  0.00    -0.387 OA
ATOM     24  H   UNL     1       7.151   2.842  30.999  0.00  0.00    +0.210 HD
ENDBRANCH   4  23
ENDBRANCH   1   4
BRANCH   1  25
ATOM     25  C   UNL     1       4.606   2.792  32.255  0.00  0.00    +0.141 C 
BRANCH  25  28
ATOM     26  C   UNL     1       2.722   2.468  30.690  0.00  0.00    +0.401 C 
ATOM     27  O   UNL     1       1.873   2.897  31.475  0.00  0.00    -0.226 OA
ATOM     28  N   UNL     1       4.021   2.378  30.973  0.00  0.00    -0.279 N 
ATOM     29  H   UNL     1       4.639   2.003  30.267  0.00  0.00    +0.152 HD
BRANCH  26  30
ATOM     30  O   UNL     1       2.309   2.031  29.392  0.00  0.00    -0.444 OA
BRANCH  30  31
ATOM     31  C   UNL     1       0.990   2.512  29.123  0.00  0.00    +0.292 C 
BRANCH  31  33
ATOM     32  N   UNL     1       2.138   3.638  27.239  0.00  0.00    -0.131 NA
ATOM     33  C   UNL     1       0.973   3.285  27.867  0.00  0.00    +0.120 A 
ATOM     34  C   UNL     1      -0.095   3.741  27.127  0.00  0.00    +0.137 A 
ATOM     35  N   UNL     1       0.487   4.278  26.016  0.00  0.00    -0.247 N 
ATOM     36  N   UNL     1       1.829   4.264  26.113  0.00  0.00    -0.065 NA
BRANCH  35  37
ATOM     37  C   UNL     1      -0.165   4.801  24.831  0.00  0.00    +0.180 C 
BRANCH  37  38
ATOM     38  C   UNL     1       0.433   4.215  23.573  0.00  0.00    -0.026 A 
ATOM     39  C   UNL     1       1.272   4.981  22.750  0.00  0.00    +0.007 A 
ATOM     40  C   UNL     1       1.825   4.430  21.589  0.00  0.00    +0.019 A 
ATOM     41  C   UNL     1       1.544   3.107  21.235  0.00  0.00    +0.052 A 
ATOM     42  C   UNL     1       0.691   2.344  22.037  0.00  0.00    +0.019 A 
ATOM     43  C   UNL     1       0.136   2.896  23.195  0.00  0.00    +0.007 A 
BRANCH  41  44
ATOM     44  C   UNL     1       2.130   2.536  20.055  0.00  0.00    +0.099 C 
ATOM     45  N   UNL     1       2.595   2.080  19.095  0.00  0.00    -0.191 NA
ENDBRANCH  41  44
ENDBRANCH  37  38
ENDBRANCH  35  37
ENDBRANCH  31  33
ENDBRANCH  30  31
ENDBRANCH  26  30
ENDBRANCH  25  28
ENDBRANCH   1  25
TORSDOF 16
