REMARK VINA RESULT:    -5.792      1.658      2.116
REMARK INTER + INTRA:         -12.962
REMARK INTER:                 -11.109
REMARK INTRA:                  -1.853
REMARK UNBOUND:                -2.936
REMARK  Name = lig_assembled_93.pdb
REMARK  16 active torsions:
REMARK  status: ('A' for Active; 'I' for Inactive)
REMARK    1  A    between atoms: _2  and  _9
REMARK    2  A    between atoms: _4  and  _18
REMARK    3  A    between atoms: _6  and  _7
REMARK    4  A    between atoms: _6  and  _18
REMARK    5  A    between atoms: _14  and  _34
REMARK    6  A    between atoms: _16  and  _22
REMARK    7  A    between atoms: _17  and  _21
REMARK    8  A    between atoms: _21  and  _22
REMARK    9  A    between atoms: _24  and  _25
REMARK   10  A    between atoms: _26  and  _27
REMARK   11  A    between atoms: _28  and  _30
REMARK   12  A    between atoms: _30  and  _31
REMARK   13  A    between atoms: _30  and  _32
REMARK   14  A    between atoms: _32  and  _33
REMARK   15  A    between atoms: _32  and  _34
REMARK   16  A    between atoms: _35  and  _37
REMARK                            x       y       z     vdW  Elec       q    Type
REMARK                         _______ _______ _______ _____ _____    ______ ____
ROOT
ATOM      1  C   UNL     1       1.292   2.605  33.156  0.00  0.00    +0.163 C 
ENDROOT
BRANCH   1   2
ATOM      2  O   UNL     1       1.103   1.244  32.735  0.00  0.00    -0.388 OA
ATOM      3  H   UNL     1       0.220   0.954  32.974  0.00  0.00    +0.210 HD
ENDBRANCH   1   2
BRANCH   1   4
ATOM      4  C   UNL     1       0.093   3.451  32.740  0.00  0.00    +0.141 C 
BRANCH   4   7
ATOM      5  C   UNL     1      -0.517   4.262  30.487  0.00  0.00    +0.401 C 
ATOM      6  O   UNL     1      -0.521   5.451  30.813  0.00  0.00    -0.226 OA
ATOM      7  N   UNL     1      -0.247   3.260  31.324  0.00  0.00    -0.279 N 
ATOM      8  H   UNL     1      -0.277   2.316  30.964  0.00  0.00    +0.152 HD
BRANCH   5   9
ATOM      9  O   UNL     1      -0.821   3.912  29.134  0.00  0.00    -0.444 OA
BRANCH   9  10
ATOM     10  C   UNL     1       0.031   2.843  28.714  0.00  0.00    +0.292 C 
BRANCH  10  12
ATOM     11  N   UNL     1       2.067   3.650  27.576  0.00  0.00    -0.131 NA
ATOM     12  C   UNL     1       0.777   3.229  27.501  0.00  0.00    +0.121 A 
ATOM     13  C   UNL     1       0.382   3.239  26.184  0.00  0.00    +0.143 A 
ATOM     14  N   UNL     1       1.488   3.665  25.467  0.00  0.00    -0.219 N 
ATOM     15  N   UNL     1       2.483   3.915  26.347  0.00  0.00    -0.060 NA
BRANCH  14  16
ATOM     16  C   UNL     1       1.618   3.817  24.050  0.00  0.00    +0.080 A 
ATOM     17  C   UNL     1       1.568   5.131  23.525  0.00  0.00    +0.029 A 
ATOM     18  C   UNL     1       1.667   5.379  22.154  0.00  0.00    +0.002 A 
ATOM     19  C   UNL     1       1.821   4.326  21.268  0.00  0.00    +0.001 A 
ATOM     20  C   UNL     1       1.881   3.023  21.757  0.00  0.00    +0.016 A 
ATOM     21  C   UNL     1       1.784   2.753  23.139  0.00  0.00    +0.039 A 
ATOM     22  I   UNL     1       1.914   0.684  23.566  0.00  0.00    -0.042 I 
ENDBRANCH  14  16
ENDBRANCH  10  12
ENDBRANCH   9  10
ENDBRANCH   5   9
ENDBRANCH   4   7
ENDBRANCH   1   4
BRANCH   1  23
ATOM     23  C   UNL     1       2.574   3.197  32.547  0.00  0.00    +0.175 C 
BRANCH  23  24
ATOM     24  C   UNL     1       3.690   3.357  33.590  0.00  0.00    +0.176 C 
ATOM     25  O   UNL     1       4.213   4.709  33.482  0.00  0.00    -0.332 OA
ATOM     26  C   UNL     1       5.222   5.080  34.479  0.00  0.00    +0.277 C 
ATOM     27  C   UNL     1       6.391   4.064  34.470  0.00  0.00    +0.110 C 
ATOM     28  C   UNL     1       5.881   2.610  34.551  0.00  0.00    +0.143 C 
ATOM     29  C   UNL     1       4.834   2.334  33.472  0.00  0.00    +0.133 C 
BRANCH  29  30
ATOM     30  N   UNL     1       4.294   0.973  33.614  0.00  0.00    -0.308 N 
ATOM     31  H   UNL     1       3.803   0.747  34.468  0.00  0.00    +0.149 HD
ATOM     32  C   UNL     1       4.410   0.016  32.689  0.00  0.00    +0.210 C 
ATOM     33  C   UNL     1       5.186   0.383  31.410  0.00  0.00    +0.109 C 
ATOM     34  O   UNL     1       3.934  -1.111  32.829  0.00  0.00    -0.276 OA
ENDBRANCH  29  30
BRANCH  26  35
ATOM     35  C   UNL     1       4.601   5.139  35.890  0.00  0.00    +0.414 C 
ATOM     36  O   UNL     1       3.518   5.695  36.068  0.00  0.00    -0.240 OA
ATOM     37  O   UNL     1       5.182   4.631  36.849  0.00  0.00    -0.240 OA
ENDBRANCH  26  35
BRANCH  28  38
ATOM     38  O   UNL     1       6.975   1.706  34.388  0.00  0.00    -0.390 OA
ATOM     39  H   UNL     1       6.739   0.849  34.749  0.00  0.00    +0.210 HD
ENDBRANCH  28  38
BRANCH  26  40
ATOM     40  O   UNL     1       5.748   6.384  34.122  0.00  0.00    -0.343 OA
ATOM     41  C   UNL     1       6.853   6.844  34.940  0.00  0.00    +0.198 C 
ENDBRANCH  26  40
ENDBRANCH  23  24
BRANCH  23  42
ATOM     42  O   UNL     1       2.289   4.467  31.926  0.00  0.00    -0.387 OA
ATOM     43  H   UNL     1       3.084   5.005  31.919  0.00  0.00    +0.210 HD
ENDBRANCH  23  42
ENDBRANCH   1  23
TORSDOF 14
