REMARK VINA RESULT:    -6.021     14.306     16.835
REMARK INTER + INTRA:         -13.070
REMARK INTER:                 -11.389
REMARK INTRA:                  -1.680
REMARK UNBOUND:                -2.296
REMARK  Name = lig_assembled_63.pdb
REMARK  17 active torsions:
REMARK  status: ('A' for Active; 'I' for Inactive)
REMARK    1  A    between atoms: _2  and  _11
REMARK    2  A    between atoms: _6  and  _20
REMARK    3  A    between atoms: _7  and  _15
REMARK    4  A    between atoms: _8  and  _9
REMARK    5  A    between atoms: _8  and  _20
REMARK    6  A    between atoms: _16  and  _36
REMARK    7  A    between atoms: _18  and  _24
REMARK    8  A    between atoms: _19  and  _23
REMARK    9  A    between atoms: _23  and  _24
REMARK   10  A    between atoms: _26  and  _27
REMARK   11  A    between atoms: _28  and  _29
REMARK   12  A    between atoms: _30  and  _32
REMARK   13  A    between atoms: _32  and  _33
REMARK   14  A    between atoms: _32  and  _34
REMARK   15  A    between atoms: _34  and  _35
REMARK   16  A    between atoms: _34  and  _36
REMARK   17  A    between atoms: _37  and  _39
REMARK                            x       y       z     vdW  Elec       q    Type
REMARK                         _______ _______ _______ _____ _____    ______ ____
ROOT
ATOM      1  C   UNL     1       3.138   2.958  32.944  0.00  0.00    +0.163 C 
ENDROOT
BRANCH   1   2
ATOM      2  O   UNL     1       3.735   2.378  31.773  0.00  0.00    -0.388 OA
ATOM      3  H   UNL     1       4.576   2.807  31.595  0.00  0.00    +0.210 HD
ENDBRANCH   1   2
BRANCH   1   4
ATOM      4  C   UNL     1       1.809   3.613  32.583  0.00  0.00    +0.141 C 
BRANCH   4   7
ATOM      5  C   UNL     1       0.823   3.561  30.318  0.00  0.00    +0.401 C 
ATOM      6  O   UNL     1      -0.082   2.783  30.627  0.00  0.00    -0.226 OA
ATOM      7  N   UNL     1       1.755   3.997  31.167  0.00  0.00    -0.279 N 
ATOM      8  H   UNL     1       2.463   4.626  30.817  0.00  0.00    +0.152 HD
BRANCH   5   9
ATOM      9  O   UNL     1       0.902   4.034  28.971  0.00  0.00    -0.444 OA
BRANCH   9  10
ATOM     10  C   UNL     1       0.636   2.957  28.069  0.00  0.00    +0.292 C 
BRANCH  10  12
ATOM     11  N   UNL     1       2.403   3.956  26.660  0.00  0.00    -0.131 NA
ATOM     12  C   UNL     1       1.259   3.216  26.759  0.00  0.00    +0.121 A 
ATOM     13  C   UNL     1       0.866   2.833  25.498  0.00  0.00    +0.145 A 
ATOM     14  N   UNL     1       1.792   3.401  24.647  0.00  0.00    -0.200 N 
ATOM     15  N   UNL     1       2.722   4.056  25.376  0.00  0.00    -0.059 NA
BRANCH  14  16
ATOM     16  C   UNL     1       1.763   3.372  23.221  0.00  0.00    +0.173 A 
ATOM     17  C   UNL     1       1.845   2.181  22.495  0.00  0.00    +0.096 A 
ATOM     18  C   UNL     1       1.906   2.275  21.094  0.00  0.00    +0.024 A 
ATOM     19  C   UNL     1       1.858   3.516  20.465  0.00  0.00    +0.021 A 
ATOM     20  C   UNL     1       1.737   4.639  21.257  0.00  0.00    +0.113 A 
ATOM     21  N   UNL     1       1.693   4.596  22.606  0.00  0.00    -0.235 NA
BRANCH  17  22
ATOM     22  C   UNL     1       1.853   0.863  23.057  0.00  0.00    +0.103 C 
ATOM     23  N   UNL     1       1.753  -0.202  23.511  0.00  0.00    -0.191 NA
ENDBRANCH  17  22
ENDBRANCH  14  16
ENDBRANCH  10  12
ENDBRANCH   9  10
ENDBRANCH   5   9
ENDBRANCH   4   7
ENDBRANCH   1   4
BRANCH   1  24
ATOM     24  C   UNL     1       4.072   4.005  33.576  0.00  0.00    +0.175 C 
BRANCH  24  25
ATOM     25  C   UNL     1       5.502   3.474  33.750  0.00  0.00    +0.176 C 
ATOM     26  O   UNL     1       5.416   2.107  34.236  0.00  0.00    -0.332 OA
ATOM     27  C   UNL     1       6.692   1.397  34.362  0.00  0.00    +0.277 C 
ATOM     28  C   UNL     1       7.676   2.204  35.244  0.00  0.00    +0.110 C 
ATOM     29  C   UNL     1       7.777   3.674  34.784  0.00  0.00    +0.143 C 
ATOM     30  C   UNL     1       6.392   4.315  34.685  0.00  0.00    +0.133 C 
BRANCH  30  31
ATOM     31  N   UNL     1       6.496   5.687  34.163  0.00  0.00    -0.308 N 
ATOM     32  H   UNL     1       6.736   5.804  33.189  0.00  0.00    +0.149 HD
ATOM     33  C   UNL     1       6.292   6.787  34.893  0.00  0.00    +0.210 C 
ATOM     34  C   UNL     1       5.953   6.574  36.380  0.00  0.00    +0.109 C 
ATOM     35  O   UNL     1       6.371   7.923  34.425  0.00  0.00    -0.276 OA
ENDBRANCH  30  31
BRANCH  27  36
ATOM     36  C   UNL     1       7.322   1.154  32.975  0.00  0.00    +0.414 C 
ATOM     37  O   UNL     1       8.542   1.218  32.828  0.00  0.00    -0.240 OA
ATOM     38  O   UNL     1       6.611   0.896  32.003  0.00  0.00    -0.240 OA
ENDBRANCH  27  36
BRANCH  27  39
ATOM     39  O   UNL     1       6.436   0.124  35.011  0.00  0.00    -0.343 OA
ATOM     40  C   UNL     1       7.524  -0.377  35.827  0.00  0.00    +0.198 C 
ENDBRANCH  27  39
BRANCH  29  41
ATOM     41  O   UNL     1       8.573   4.415  35.711  0.00  0.00    -0.390 OA
ATOM     42  H   UNL     1       9.317   3.878  35.995  0.00  0.00    +0.210 HD
ENDBRANCH  29  41
ENDBRANCH  24  25
BRANCH  24  43
ATOM     43  O   UNL     1       3.545   4.438  34.846  0.00  0.00    -0.387 OA
ATOM     44  H   UNL     1       2.715   3.987  35.019  0.00  0.00    +0.210 HD
ENDBRANCH  24  43
ENDBRANCH   1  24
TORSDOF 15
