REMARK VINA RESULT:    -6.894      4.051      7.058
REMARK INTER + INTRA:         -13.892
REMARK INTER:                 -11.890
REMARK INTRA:                  -2.002
REMARK UNBOUND:                -1.557
REMARK  Name = lig_assembled_28.pdb
REMARK  17 active torsions:
REMARK  status: ('A' for Active; 'I' for Inactive)
REMARK    1  A    between atoms: _2  and  _9
REMARK    2  A    between atoms: _4  and  _22
REMARK    3  A    between atoms: _6  and  _7
REMARK    4  A    between atoms: _6  and  _22
REMARK    5  A    between atoms: _9  and  _10
REMARK    6  A    between atoms: _18  and  _38
REMARK    7  A    between atoms: _20  and  _26
REMARK    8  A    between atoms: _21  and  _25
REMARK    9  A    between atoms: _25  and  _26
REMARK   10  A    between atoms: _28  and  _29
REMARK   11  A    between atoms: _30  and  _31
REMARK   12  A    between atoms: _32  and  _34
REMARK   13  A    between atoms: _34  and  _35
REMARK   14  A    between atoms: _34  and  _36
REMARK   15  A    between atoms: _36  and  _37
REMARK   16  A    between atoms: _36  and  _38
REMARK   17  A    between atoms: _39  and  _41
REMARK                            x       y       z     vdW  Elec       q    Type
REMARK                         _______ _______ _______ _____ _____    ______ ____
ROOT
ATOM      1  C   UNL     1      -1.137   3.404  31.490  0.00  0.00    +0.163 C 
ENDROOT
BRANCH   1   2
ATOM      2  O   UNL     1      -1.633   2.822  32.706  0.00  0.00    -0.388 OA
ATOM      3  H   UNL     1      -2.348   3.361  33.051  0.00  0.00    +0.210 HD
ENDBRANCH   1   2
BRANCH   1   4
ATOM      4  C   UNL     1       0.271   2.893  31.202  0.00  0.00    +0.141 C 
BRANCH   4   7
ATOM      5  C   UNL     1       1.910   3.057  29.361  0.00  0.00    +0.401 C 
ATOM      6  O   UNL     1       2.887   2.858  30.087  0.00  0.00    -0.226 OA
ATOM      7  N   UNL     1       0.651   3.096  29.799  0.00  0.00    -0.279 N 
ATOM      8  H   UNL     1      -0.083   3.275  29.127  0.00  0.00    +0.152 HD
BRANCH   5   9
ATOM      9  O   UNL     1       2.116   3.265  27.961  0.00  0.00    -0.444 OA
BRANCH   9  10
ATOM     10  C   UNL     1       0.894   3.027  27.258  0.00  0.00    +0.292 C 
BRANCH  10  12
ATOM     11  N   UNL     1      -0.012   4.917  25.934  0.00  0.00    -0.131 NA
ATOM     12  C   UNL     1       0.837   3.848  26.034  0.00  0.00    +0.120 A 
ATOM     13  C   UNL     1       1.572   3.748  24.874  0.00  0.00    +0.137 A 
ATOM     14  N   UNL     1       1.196   4.840  24.146  0.00  0.00    -0.247 N 
ATOM     15  N   UNL     1       0.207   5.511  24.768  0.00  0.00    -0.065 NA
BRANCH  14  16
ATOM     16  C   UNL     1       1.751   5.392  22.917  0.00  0.00    +0.180 C 
BRANCH  16  17
ATOM     17  C   UNL     1       1.195   4.761  21.662  0.00  0.00    -0.022 A 
ATOM     18  C   UNL     1      -0.115   5.055  21.245  0.00  0.00    +0.055 A 
ATOM     19  C   UNL     1      -0.537   4.548  20.035  0.00  0.00    +0.167 A 
ATOM     20  O   UNL     1      -1.749   4.779  19.458  0.00  0.00    -0.453 OA
ATOM     21  C   UNL     1      -1.571   4.120  18.188  0.00  0.00    +0.466 C 
ATOM     22  O   UNL     1      -0.329   3.388  18.091  0.00  0.00    -0.453 OA
ATOM     23  C   UNL     1       0.268   3.755  19.257  0.00  0.00    +0.166 A 
ATOM     24  C   UNL     1       1.546   3.416  19.649  0.00  0.00    +0.050 A 
ATOM     25  C   UNL     1       2.014   3.933  20.861  0.00  0.00    +0.009 A 
ENDBRANCH  16  17
ENDBRANCH  14  16
ENDBRANCH  10  12
ENDBRANCH   9  10
ENDBRANCH   5   9
ENDBRANCH   4   7
ENDBRANCH   1   4
BRANCH   1  26
ATOM     26  C   UNL     1      -1.117   4.940  31.584  0.00  0.00    +0.175 C 
BRANCH  26  27
ATOM     27  C   UNL     1      -2.528   5.529  31.724  0.00  0.00    +0.176 C 
ATOM     28  O   UNL     1      -2.939   5.380  33.110  0.00  0.00    -0.332 OA
ATOM     29  C   UNL     1      -4.228   5.985  33.458  0.00  0.00    +0.277 C 
ATOM     30  C   UNL     1      -5.343   5.458  32.521  0.00  0.00    +0.110 C 
ATOM     31  C   UNL     1      -4.939   5.567  31.036  0.00  0.00    +0.143 C 
ATOM     32  C   UNL     1      -3.581   4.907  30.788  0.00  0.00    +0.133 C 
BRANCH  32  33
ATOM     33  N   UNL     1      -3.167   5.093  29.389  0.00  0.00    -0.308 N 
ATOM     34  H   UNL     1      -2.911   6.024  29.092  0.00  0.00    +0.149 HD
ATOM     35  C   UNL     1      -3.107   4.112  28.485  0.00  0.00    +0.210 C 
ATOM     36  C   UNL     1      -3.528   2.709  28.961  0.00  0.00    +0.109 C 
ATOM     37  O   UNL     1      -2.741   4.294  27.323  0.00  0.00    -0.276 OA
ENDBRANCH  32  33
BRANCH  29  38
ATOM     38  C   UNL     1      -4.155   7.523  33.357  0.00  0.00    +0.414 C 
ATOM     39  O   UNL     1      -5.162   8.175  33.081  0.00  0.00    -0.240 OA
ATOM     40  O   UNL     1      -3.091   8.112  33.552  0.00  0.00    -0.240 OA
ENDBRANCH  29  38
BRANCH  29  41
ATOM     41  O   UNL     1      -4.553   5.600  34.818  0.00  0.00    -0.343 OA
ATOM     42  C   UNL     1      -3.581   4.736  35.458  0.00  0.00    +0.198 C 
ENDBRANCH  29  41
BRANCH  31  43
ATOM     43  O   UNL     1      -5.925   4.934  30.221  0.00  0.00    -0.390 OA
ATOM     44  H   UNL     1      -5.879   5.287  29.329  0.00  0.00    +0.210 HD
ENDBRANCH  31  43
ENDBRANCH  26  27
BRANCH  26  45
ATOM     45  O   UNL     1      -0.457   5.499  30.431  0.00  0.00    -0.387 OA
ATOM     46  H   UNL     1       0.494   5.401  30.526  0.00  0.00    +0.210 HD
ENDBRANCH  26  45
ENDBRANCH   1  26
TORSDOF 15
