REMARK VINA RESULT:    -6.403     14.591     16.244
REMARK INTER + INTRA:         -13.380
REMARK INTER:                 -10.977
REMARK INTRA:                  -2.403
REMARK UNBOUND:                -1.736
REMARK  Name = lig_assembled_59.pdb
REMARK  18 active torsions:
REMARK  status: ('A' for Active; 'I' for Inactive)
REMARK    1  A    between atoms: _2  and  _10
REMARK    2  A    between atoms: _5  and  _20
REMARK    3  A    between atoms: _7  and  _8
REMARK    4  A    between atoms: _7  and  _20
REMARK    5  A    between atoms: _13  and  _14
REMARK    6  A    between atoms: _14  and  _15
REMARK    7  A    between atoms: _16  and  _36
REMARK    8  A    between atoms: _18  and  _24
REMARK    9  A    between atoms: _19  and  _23
REMARK   10  A    between atoms: _23  and  _24
REMARK   11  A    between atoms: _26  and  _27
REMARK   12  A    between atoms: _28  and  _29
REMARK   13  A    between atoms: _30  and  _32
REMARK   14  A    between atoms: _32  and  _33
REMARK   15  A    between atoms: _32  and  _34
REMARK   16  A    between atoms: _34  and  _35
REMARK   17  A    between atoms: _34  and  _36
REMARK   18  A    between atoms: _37  and  _39
REMARK                            x       y       z     vdW  Elec       q    Type
REMARK                         _______ _______ _______ _____ _____    ______ ____
ROOT
ATOM      1  C   UNL     1      20.549   9.642  26.936  0.00  0.00    +0.163 C 
ENDROOT
BRANCH   1   2
ATOM      2  O   UNL     1      19.463  10.571  27.084  0.00  0.00    -0.388 OA
ATOM      3  H   UNL     1      19.030  10.697  26.236  0.00  0.00    +0.210 HD
ENDBRANCH   1   2
BRANCH   1   4
ATOM      4  C   UNL     1      20.169   8.259  27.494  0.00  0.00    +0.175 C 
BRANCH   4   5
ATOM      5  C   UNL     1      19.331   8.364  28.776  0.00  0.00    +0.176 C 
ATOM      6  O   UNL     1      19.915   9.404  29.608  0.00  0.00    -0.332 OA
ATOM      7  C   UNL     1      19.180   9.719  30.837  0.00  0.00    +0.277 C 
ATOM      8  C   UNL     1      18.958   8.439  31.679  0.00  0.00    +0.110 C 
ATOM      9  C   UNL     1      18.368   7.294  30.829  0.00  0.00    +0.143 C 
ATOM     10  C   UNL     1      19.209   7.052  29.574  0.00  0.00    +0.133 C 
BRANCH  10  11
ATOM     11  N   UNL     1      18.589   6.019  28.730  0.00  0.00    -0.308 N 
ATOM     12  H   UNL     1      17.717   6.245  28.272  0.00  0.00    +0.149 HD
ATOM     13  C   UNL     1      19.103   4.803  28.529  0.00  0.00    +0.210 C 
ATOM     14  C   UNL     1      20.419   4.481  29.262  0.00  0.00    +0.109 C 
ATOM     15  O   UNL     1      18.569   3.962  27.804  0.00  0.00    -0.276 OA
ENDBRANCH  10  11
BRANCH   7  16
ATOM     16  C   UNL     1      17.817  10.363  30.509  0.00  0.00    +0.414 C 
ATOM     17  O   UNL     1      16.966  10.495  31.388  0.00  0.00    -0.240 OA
ATOM     18  O   UNL     1      17.568  10.751  29.367  0.00  0.00    -0.240 OA
ENDBRANCH   7  16
BRANCH   7  19
ATOM     19  O   UNL     1      19.983  10.644  31.615  0.00  0.00    -0.343 OA
ATOM     20  C   UNL     1      20.764  11.584  30.834  0.00  0.00    +0.198 C 
ENDBRANCH   7  19
BRANCH   9  21
ATOM     21  O   UNL     1      18.322   6.094  31.602  0.00  0.00    -0.390 OA
ATOM     22  H   UNL     1      17.975   6.289  32.476  0.00  0.00    +0.210 HD
ENDBRANCH   9  21
ENDBRANCH   4   5
BRANCH   4  23
ATOM     23  O   UNL     1      21.357   7.480  27.738  0.00  0.00    -0.387 OA
ATOM     24  H   UNL     1      22.059   8.055  28.051  0.00  0.00    +0.210 HD
ENDBRANCH   4  23
ENDBRANCH   1   4
BRANCH   1  25
ATOM     25  C   UNL     1      20.927   9.511  25.464  0.00  0.00    +0.141 C 
BRANCH  25  28
ATOM     26  C   UNL     1      20.653   7.888  23.621  0.00  0.00    +0.401 C 
ATOM     27  O   UNL     1      21.362   8.520  22.834  0.00  0.00    -0.226 OA
ATOM     28  N   UNL     1      20.392   8.281  24.868  0.00  0.00    -0.279 N 
ATOM     29  H   UNL     1      19.791   7.699  25.435  0.00  0.00    +0.152 HD
BRANCH  26  30
ATOM     30  O   UNL     1      20.063   6.659  23.191  0.00  0.00    -0.444 OA
BRANCH  30  31
ATOM     31  C   UNL     1      18.676   6.648  23.539  0.00  0.00    +0.292 C 
BRANCH  31  33
ATOM     32  N   UNL     1      17.047   5.194  22.381  0.00  0.00    -0.131 NA
ATOM     33  C   UNL     1      18.089   5.325  23.256  0.00  0.00    +0.121 A 
ATOM     34  C   UNL     1      18.417   4.085  23.754  0.00  0.00    +0.145 A 
ATOM     35  N   UNL     1      17.539   3.217  23.145  0.00  0.00    -0.202 N 
ATOM     36  N   UNL     1      16.720   3.910  22.314  0.00  0.00    -0.059 NA
BRANCH  35  37
ATOM     37  C   UNL     1      17.448   1.811  23.329  0.00  0.00    +0.156 A 
ATOM     38  C   UNL     1      17.886   0.964  22.313  0.00  0.00    +0.048 A 
ATOM     39  C   UNL     1      17.754  -0.413  22.485  0.00  0.00    +0.011 A 
ATOM     40  C   UNL     1      17.198  -0.920  23.661  0.00  0.00    -0.004 A 
ATOM     41  C   UNL     1      16.789   0.002  24.620  0.00  0.00    +0.119 A 
ATOM     42  N   UNL     1      16.908   1.345  24.489  0.00  0.00    -0.236 NA
BRANCH  40  43
ATOM     43  C   UNL     1      16.962  -2.393  23.826  0.00  0.00    +0.192 C 
BRANCH  43  44
ATOM     44  O   UNL     1      17.485  -3.127  22.729  0.00  0.00    -0.390 OA
ATOM     45  H   UNL     1      18.098  -3.788  23.098  0.00  0.00    +0.210 HD
ENDBRANCH  43  44
ENDBRANCH  40  43
ENDBRANCH  35  37
ENDBRANCH  31  33
ENDBRANCH  30  31
ENDBRANCH  26  30
ENDBRANCH  25  28
ENDBRANCH   1  25
TORSDOF 16
