REMARK VINA RESULT:    -6.492      2.383      4.601
REMARK INTER + INTRA:         -15.033
REMARK INTER:                 -11.905
REMARK INTRA:                  -3.128
REMARK UNBOUND:                -2.090
REMARK  Name = lig_assembled_76.pdb
REMARK  21 active torsions:
REMARK  status: ('A' for Active; 'I' for Inactive)
REMARK    1  A    between atoms: _2  and  _9
REMARK    2  A    between atoms: _4  and  _23
REMARK    3  A    between atoms: _6  and  _7
REMARK    4  A    between atoms: _6  and  _23
REMARK    5  A    between atoms: _9  and  _10
REMARK    6  A    between atoms: _10  and  _11
REMARK    7  A    between atoms: _10  and  _18
REMARK    8  A    between atoms: _11  and  _12
REMARK    9  A    between atoms: _12  and  _13
REMARK   10  A    between atoms: _19  and  _39
REMARK   11  A    between atoms: _21  and  _27
REMARK   12  A    between atoms: _22  and  _26
REMARK   13  A    between atoms: _26  and  _27
REMARK   14  A    between atoms: _29  and  _30
REMARK   15  A    between atoms: _31  and  _32
REMARK   16  A    between atoms: _33  and  _35
REMARK   17  A    between atoms: _35  and  _36
REMARK   18  A    between atoms: _35  and  _37
REMARK   19  A    between atoms: _37  and  _38
REMARK   20  A    between atoms: _37  and  _39
REMARK   21  A    between atoms: _40  and  _42
REMARK                            x       y       z     vdW  Elec       q    Type
REMARK                         _______ _______ _______ _____ _____    ______ ____
ROOT
ATOM      1  C   UNL     1       3.083   2.787  37.540  0.00  0.00    +0.141 C 
ENDROOT
BRANCH   1   4
ATOM      2  C   UNL     1       2.199   3.942  35.542  0.00  0.00    +0.401 C 
ATOM      3  O   UNL     1       2.945   4.917  35.660  0.00  0.00    -0.226 OA
ATOM      4  N   UNL     1       2.192   2.904  36.379  0.00  0.00    -0.279 N 
ATOM      5  H   UNL     1       1.536   2.155  36.205  0.00  0.00    +0.152 HD
BRANCH   2   6
ATOM      6  O   UNL     1       1.274   3.902  34.452  0.00  0.00    -0.444 OA
BRANCH   6   7
ATOM      7  C   UNL     1       1.545   2.759  33.637  0.00  0.00    +0.292 C 
BRANCH   7   9
ATOM      8  N   UNL     1       1.189   4.376  31.792  0.00  0.00    -0.131 NA
ATOM      9  C   UNL     1       1.613   3.143  32.218  0.00  0.00    +0.120 A 
ATOM     10  C   UNL     1       2.056   2.419  31.133  0.00  0.00    +0.137 A 
ATOM     11  N   UNL     1       1.880   3.266  30.083  0.00  0.00    -0.249 N 
ATOM     12  N   UNL     1       1.351   4.436  30.476  0.00  0.00    -0.065 NA
BRANCH  11  13
ATOM     13  C   UNL     1       2.066   2.983  28.678  0.00  0.00    +0.176 C 
BRANCH  13  14
ATOM     14  C   UNL     1       0.747   2.923  27.901  0.00  0.00    +0.136 C 
BRANCH  14  15
ATOM     15  O   UNL     1      -0.011   4.122  28.120  0.00  0.00    -0.390 OA
ATOM     16  H   UNL     1      -0.950   3.943  27.941  0.00  0.00    +0.210 HD
ENDBRANCH  14  15
BRANCH  14  17
ATOM     17  C   UNL     1       0.963   2.786  26.385  0.00  0.00    +0.038 C 
BRANCH  17  18
ATOM     18  C   UNL     1       1.948   3.808  25.816  0.00  0.00    +0.038 C 
BRANCH  18  19
ATOM     19  C   UNL     1       1.883   3.882  24.313  0.00  0.00    -0.047 A 
ATOM     20  C   UNL     1       1.751   5.122  23.671  0.00  0.00    +0.003 A 
ATOM     21  C   UNL     1       1.709   5.196  22.278  0.00  0.00    +0.000 A 
ATOM     22  C   UNL     1       1.792   4.033  21.516  0.00  0.00    +0.000 A 
ATOM     23  C   UNL     1       1.912   2.795  22.146  0.00  0.00    +0.000 A 
ATOM     24  C   UNL     1       1.953   2.718  23.539  0.00  0.00    +0.003 A 
ENDBRANCH  18  19
ENDBRANCH  17  18
ENDBRANCH  14  17
ENDBRANCH  13  14
ENDBRANCH  11  13
ENDBRANCH   7   9
ENDBRANCH   6   7
ENDBRANCH   2   6
ENDBRANCH   1   4
BRANCH   1  25
ATOM     25  C   UNL     1       4.283   1.893  37.248  0.00  0.00    +0.163 C 
BRANCH  25  26
ATOM     26  O   UNL     1       3.937   0.917  36.251  0.00  0.00    -0.388 OA
ATOM     27  H   UNL     1       4.494   0.141  36.355  0.00  0.00    +0.210 HD
ENDBRANCH  25  26
BRANCH  25  28
ATOM     28  C   UNL     1       5.468   2.757  36.783  0.00  0.00    +0.175 C 
BRANCH  28  29
ATOM     29  C   UNL     1       5.740   2.604  35.280  0.00  0.00    +0.176 C 
ATOM     30  O   UNL     1       6.303   1.281  35.060  0.00  0.00    -0.332 OA
ATOM     31  C   UNL     1       6.531   0.914  33.659  0.00  0.00    +0.277 C 
ATOM     32  C   UNL     1       7.409   1.980  32.957  0.00  0.00    +0.110 C 
ATOM     33  C   UNL     1       6.868   3.406  33.189  0.00  0.00    +0.143 C 
ATOM     34  C   UNL     1       6.665   3.680  34.679  0.00  0.00    +0.133 C 
BRANCH  34  35
ATOM     35  N   UNL     1       6.068   5.009  34.882  0.00  0.00    -0.308 N 
ATOM     36  H   UNL     1       5.159   5.185  34.477  0.00  0.00    +0.149 HD
ATOM     37  C   UNL     1       6.648   5.999  35.566  0.00  0.00    +0.210 C 
ATOM     38  C   UNL     1       8.044   5.708  36.149  0.00  0.00    +0.109 C 
ATOM     39  O   UNL     1       6.118   7.098  35.733  0.00  0.00    -0.276 OA
ENDBRANCH  34  35
BRANCH  31  40
ATOM     40  C   UNL     1       5.192   0.771  32.906  0.00  0.00    +0.414 C 
ATOM     41  O   UNL     1       5.106   1.105  31.724  0.00  0.00    -0.240 OA
ATOM     42  O   UNL     1       4.198   0.323  33.479  0.00  0.00    -0.240 OA
ENDBRANCH  31  40
BRANCH  33  43
ATOM     43  O   UNL     1       7.785   4.362  32.655  0.00  0.00    -0.390 OA
ATOM     44  H   UNL     1       7.307   5.006  32.129  0.00  0.00    +0.210 HD
ENDBRANCH  33  43
BRANCH  31  45
ATOM     45  O   UNL     1       7.241  -0.351  33.636  0.00  0.00    -0.343 OA
ATOM     46  C   UNL     1       8.128  -0.535  32.504  0.00  0.00    +0.198 C 
ENDBRANCH  31  45
ENDBRANCH  28  29
BRANCH  28  47
ATOM     47  O   UNL     1       6.650   2.427  37.539  0.00  0.00    -0.387 OA
ATOM     48  H   UNL     1       7.182   3.216  37.662  0.00  0.00    +0.210 HD
ENDBRANCH  28  47
ENDBRANCH  25  28
ENDBRANCH   1  25
TORSDOF 19
