REMARK VINA RESULT:    -6.277      0.000      0.000
REMARK INTER + INTRA:         -13.676
REMARK INTER:                 -12.174
REMARK INTRA:                  -1.502
REMARK UNBOUND:                -2.078
REMARK  Name = lig_assembled_14.pdb
REMARK  18 active torsions:
REMARK  status: ('A' for Active; 'I' for Inactive)
REMARK    1  A    between atoms: _2  and  _10
REMARK    2  A    between atoms: _3  and  _11
REMARK    3  A    between atoms: _5  and  _19
REMARK    4  A    between atoms: _7  and  _8
REMARK    5  A    between atoms: _7  and  _19
REMARK    6  A    between atoms: _10  and  _11
REMARK    7  A    between atoms: _15  and  _35
REMARK    8  A    between atoms: _17  and  _23
REMARK    9  A    between atoms: _18  and  _22
REMARK   10  A    between atoms: _22  and  _23
REMARK   11  A    between atoms: _25  and  _26
REMARK   12  A    between atoms: _27  and  _28
REMARK   13  A    between atoms: _29  and  _31
REMARK   14  A    between atoms: _31  and  _32
REMARK   15  A    between atoms: _31  and  _33
REMARK   16  A    between atoms: _33  and  _34
REMARK   17  A    between atoms: _33  and  _35
REMARK   18  A    between atoms: _36  and  _38
REMARK                            x       y       z     vdW  Elec       q    Type
REMARK                         _______ _______ _______ _____ _____    ______ ____
ROOT
ATOM      1  C   UNL     1      17.318   2.015  26.136  0.00  0.00    +0.163 C 
ENDROOT
BRANCH   1   2
ATOM      2  O   UNL     1      16.342   2.776  26.867  0.00  0.00    -0.388 OA
ATOM      3  H   UNL     1      15.581   2.944  26.306  0.00  0.00    +0.210 HD
ENDBRANCH   1   2
BRANCH   1   4
ATOM      4  C   UNL     1      16.750   1.545  24.786  0.00  0.00    +0.175 C 
BRANCH   4   5
ATOM      5  C   UNL     1      17.794   0.786  23.953  0.00  0.00    +0.176 C 
ATOM      6  O   UNL     1      17.865   1.415  22.644  0.00  0.00    -0.332 OA
ATOM      7  C   UNL     1      18.892   0.886  21.741  0.00  0.00    +0.277 C 
ATOM      8  C   UNL     1      18.733  -0.645  21.578  0.00  0.00    +0.110 C 
ATOM      9  C   UNL     1      18.622  -1.355  22.945  0.00  0.00    +0.143 C 
ATOM     10  C   UNL     1      17.526  -0.723  23.803  0.00  0.00    +0.133 C 
BRANCH  10  11
ATOM     11  N   UNL     1      17.488  -1.350  25.134  0.00  0.00    -0.308 N 
ATOM     12  H   UNL     1      18.228  -1.123  25.783  0.00  0.00    +0.149 HD
ATOM     13  C   UNL     1      16.540  -2.199  25.539  0.00  0.00    +0.210 C 
ATOM     14  C   UNL     1      15.441  -2.544  24.517  0.00  0.00    +0.109 C 
ATOM     15  O   UNL     1      16.526  -2.697  26.665  0.00  0.00    -0.276 OA
ENDBRANCH  10  11
BRANCH   7  16
ATOM     16  C   UNL     1      20.304   1.204  22.274  0.00  0.00    +0.414 C 
ATOM     17  O   UNL     1      20.565   2.325  22.710  0.00  0.00    -0.240 OA
ATOM     18  O   UNL     1      21.183   0.341  22.267  0.00  0.00    -0.240 OA
ENDBRANCH   7  16
BRANCH   9  19
ATOM     19  O   UNL     1      18.326  -2.738  22.747  0.00  0.00    -0.390 OA
ATOM     20  H   UNL     1      17.497  -2.823  22.270  0.00  0.00    +0.210 HD
ENDBRANCH   9  19
BRANCH   7  21
ATOM     21  O   UNL     1      18.709   1.505  20.442  0.00  0.00    -0.343 OA
ATOM     22  C   UNL     1      17.329   1.720  20.054  0.00  0.00    +0.198 C 
ENDBRANCH   7  21
ENDBRANCH   4   5
BRANCH   4  23
ATOM     23  O   UNL     1      16.244   2.671  24.041  0.00  0.00    -0.387 OA
ATOM     24  H   UNL     1      16.885   2.928  23.374  0.00  0.00    +0.210 HD
ENDBRANCH   4  23
ENDBRANCH   1   4
BRANCH   1  25
ATOM     25  C   UNL     1      18.566   2.859  25.898  0.00  0.00    +0.141 C 
BRANCH  25  28
ATOM     26  C   UNL     1      18.908   5.243  25.344  0.00  0.00    +0.401 C 
ATOM     27  O   UNL     1      19.775   5.018  24.496  0.00  0.00    -0.226 OA
ATOM     28  N   UNL     1      18.294   4.294  26.052  0.00  0.00    -0.279 N 
ATOM     29  H   UNL     1      17.603   4.578  26.732  0.00  0.00    +0.152 HD
BRANCH  26  30
ATOM     30  O   UNL     1      18.525   6.595  25.604  0.00  0.00    -0.444 OA
BRANCH  30  31
ATOM     31  C   UNL     1      19.673   7.350  25.999  0.00  0.00    +0.292 C 
BRANCH  31  33
ATOM     32  N   UNL     1      19.208   9.647  26.793  0.00  0.00    -0.131 NA
ATOM     33  C   UNL     1      19.319   8.308  27.063  0.00  0.00    +0.120 A 
ATOM     34  C   UNL     1      19.066   8.095  28.400  0.00  0.00    +0.137 A 
ATOM     35  N   UNL     1      18.822   9.343  28.887  0.00  0.00    -0.250 N 
ATOM     36  N   UNL     1      18.899  10.272  27.919  0.00  0.00    -0.065 NA
BRANCH  35  37
ATOM     37  C   UNL     1      18.567   9.735  30.257  0.00  0.00    +0.160 C 
BRANCH  37  38
ATOM     38  C   UNL     1      18.038   8.567  31.096  0.00  0.00    +0.107 C 
BRANCH  38  39
ATOM     39  N   UNL     1      16.755   8.866  31.756  0.00  0.00    -0.301 NA
ATOM     40  C   UNL     1      16.301   7.794  32.646  0.00  0.00    +0.084 C 
ATOM     41  C   UNL     1      15.247   8.488  33.485  0.00  0.00    +0.017 C 
ATOM     42  C   UNL     1      15.817   9.877  33.706  0.00  0.00    +0.017 C 
ATOM     43  C   UNL     1      16.842  10.073  32.593  0.00  0.00    +0.084 C 
ENDBRANCH  38  39
ENDBRANCH  37  38
ENDBRANCH  35  37
ENDBRANCH  31  33
ENDBRANCH  30  31
ENDBRANCH  26  30
ENDBRANCH  25  28
ENDBRANCH   1  25
TORSDOF 16
