REMARK VINA RESULT:    -6.517     14.940     17.284
REMARK INTER + INTRA:         -15.084
REMARK INTER:                 -11.563
REMARK INTRA:                  -3.521
REMARK UNBOUND:                -2.090
REMARK  Name = lig_assembled_76.pdb
REMARK  21 active torsions:
REMARK  status: ('A' for Active; 'I' for Inactive)
REMARK    1  A    between atoms: _2  and  _9
REMARK    2  A    between atoms: _4  and  _23
REMARK    3  A    between atoms: _6  and  _7
REMARK    4  A    between atoms: _6  and  _23
REMARK    5  A    between atoms: _9  and  _10
REMARK    6  A    between atoms: _10  and  _11
REMARK    7  A    between atoms: _10  and  _18
REMARK    8  A    between atoms: _11  and  _12
REMARK    9  A    between atoms: _12  and  _13
REMARK   10  A    between atoms: _19  and  _39
REMARK   11  A    between atoms: _21  and  _27
REMARK   12  A    between atoms: _22  and  _26
REMARK   13  A    between atoms: _26  and  _27
REMARK   14  A    between atoms: _29  and  _30
REMARK   15  A    between atoms: _31  and  _32
REMARK   16  A    between atoms: _33  and  _35
REMARK   17  A    between atoms: _35  and  _36
REMARK   18  A    between atoms: _35  and  _37
REMARK   19  A    between atoms: _37  and  _38
REMARK   20  A    between atoms: _37  and  _39
REMARK   21  A    between atoms: _40  and  _42
REMARK                            x       y       z     vdW  Elec       q    Type
REMARK                         _______ _______ _______ _____ _____    ______ ____
ROOT
ATOM      1  C   UNL     1      18.309  -0.502  22.493  0.00  0.00    +0.141 C 
ENDROOT
BRANCH   1   4
ATOM      2  C   UNL     1      17.978   1.474  21.046  0.00  0.00    +0.401 C 
ATOM      3  O   UNL     1      19.074   1.368  20.490  0.00  0.00    -0.226 OA
ATOM      4  N   UNL     1      17.542   0.648  21.998  0.00  0.00    -0.279 N 
ATOM      5  H   UNL     1      16.632   0.823  22.401  0.00  0.00    +0.152 HD
BRANCH   2   6
ATOM      6  O   UNL     1      17.108   2.544  20.667  0.00  0.00    -0.444 OA
BRANCH   6   7
ATOM      7  C   UNL     1      16.410   3.023  21.820  0.00  0.00    +0.292 C 
BRANCH   7   9
ATOM      8  N   UNL     1      16.929   5.393  22.333  0.00  0.00    -0.131 NA
ATOM      9  C   UNL     1      17.200   4.060  22.505  0.00  0.00    +0.120 A 
ATOM     10  C   UNL     1      18.272   3.924  23.360  0.00  0.00    +0.137 A 
ATOM     11  N   UNL     1      18.601   5.206  23.674  0.00  0.00    -0.249 N 
ATOM     12  N   UNL     1      17.803   6.087  23.051  0.00  0.00    -0.065 NA
BRANCH  11  13
ATOM     13  C   UNL     1      19.735   5.663  24.446  0.00  0.00    +0.176 C 
BRANCH  13  14
ATOM     14  C   UNL     1      19.335   6.578  25.608  0.00  0.00    +0.136 C 
BRANCH  14  15
ATOM     15  O   UNL     1      18.258   5.991  26.352  0.00  0.00    -0.390 OA
ATOM     16  H   UNL     1      18.486   5.994  27.298  0.00  0.00    +0.210 HD
ENDBRANCH  14  15
BRANCH  14  17
ATOM     17  C   UNL     1      20.493   6.821  26.589  0.00  0.00    +0.038 C 
BRANCH  17  18
ATOM     18  C   UNL     1      20.927   8.285  26.668  0.00  0.00    +0.038 C 
BRANCH  18  19
ATOM     19  C   UNL     1      19.948   9.125  27.448  0.00  0.00    -0.047 A 
ATOM     20  C   UNL     1      19.450  10.318  26.904  0.00  0.00    +0.003 A 
ATOM     21  C   UNL     1      18.531  11.090  27.615  0.00  0.00    +0.000 A 
ATOM     22  C   UNL     1      18.105  10.680  28.876  0.00  0.00    +0.000 A 
ATOM     23  C   UNL     1      18.604   9.501  29.430  0.00  0.00    +0.000 A 
ATOM     24  C   UNL     1      19.525   8.729  28.721  0.00  0.00    +0.003 A 
ENDBRANCH  18  19
ENDBRANCH  17  18
ENDBRANCH  14  17
ENDBRANCH  13  14
ENDBRANCH  11  13
ENDBRANCH   7   9
ENDBRANCH   6   7
ENDBRANCH   2   6
ENDBRANCH   1   4
BRANCH   1  25
ATOM     25  C   UNL     1      18.724  -0.325  23.949  0.00  0.00    +0.163 C 
BRANCH  25  26
ATOM     26  O   UNL     1      19.950   0.422  24.024  0.00  0.00    -0.388 OA
ATOM     27  H   UNL     1      19.795   1.246  24.491  0.00  0.00    +0.210 HD
ENDBRANCH  25  26
BRANCH  25  28
ATOM     28  C   UNL     1      17.599   0.386  24.721  0.00  0.00    +0.175 C 
BRANCH  28  29
ATOM     29  C   UNL     1      18.011   0.725  26.161  0.00  0.00    +0.176 C 
ATOM     30  O   UNL     1      18.951   1.833  26.108  0.00  0.00    -0.332 OA
ATOM     31  C   UNL     1      19.377   2.367  27.406  0.00  0.00    +0.277 C 
ATOM     32  C   UNL     1      19.950   1.235  28.294  0.00  0.00    +0.110 C 
ATOM     33  C   UNL     1      18.999   0.022  28.355  0.00  0.00    +0.143 C 
ATOM     34  C   UNL     1      18.619  -0.449  26.951  0.00  0.00    +0.133 C 
BRANCH  34  35
ATOM     35  N   UNL     1      17.645  -1.549  27.022  0.00  0.00    -0.308 N 
ATOM     36  H   UNL     1      16.712  -1.333  27.344  0.00  0.00    +0.149 HD
ATOM     37  C   UNL     1      17.913  -2.815  26.690  0.00  0.00    +0.210 C 
ATOM     38  C   UNL     1      19.352  -3.116  26.229  0.00  0.00    +0.109 C 
ATOM     39  O   UNL     1      17.073  -3.714  26.746  0.00  0.00    -0.276 OA
ENDBRANCH  34  35
BRANCH  31  40
ATOM     40  C   UNL     1      18.196   3.044  28.132  0.00  0.00    +0.414 C 
ATOM     41  O   UNL     1      18.269   3.294  29.335  0.00  0.00    -0.240 OA
ATOM     42  O   UNL     1      17.171   3.340  27.516  0.00  0.00    -0.240 OA
ENDBRANCH  31  40
BRANCH  33  43
ATOM     43  O   UNL     1      19.631  -1.051  29.056  0.00  0.00    -0.390 OA
ATOM     44  H   UNL     1      19.476  -1.874  28.588  0.00  0.00    +0.210 HD
ENDBRANCH  33  43
BRANCH  31  45
ATOM     45  O   UNL     1      20.427   3.339  27.169  0.00  0.00    -0.343 OA
ATOM     46  C   UNL     1      21.564   3.242  28.064  0.00  0.00    +0.198 C 
ENDBRANCH  31  45
ENDBRANCH  28  29
BRANCH  28  47
ATOM     47  O   UNL     1      16.408  -0.426  24.723  0.00  0.00    -0.387 OA
ATOM     48  H   UNL     1      16.492  -1.116  25.385  0.00  0.00    +0.210 HD
ENDBRANCH  28  47
ENDBRANCH  25  28
ENDBRANCH   1  25
TORSDOF 19
