REMARK VINA RESULT:    -6.826     14.432     18.199
REMARK INTER + INTRA:         -15.312
REMARK INTER:                 -12.474
REMARK INTRA:                  -2.838
REMARK UNBOUND:                -2.499
REMARK  Name = lig_assembled_64.pdb
REMARK  19 active torsions:
REMARK  status: ('A' for Active; 'I' for Inactive)
REMARK    1  A    between atoms: _2  and  _10
REMARK    2  A    between atoms: _5  and  _27
REMARK    3  A    between atoms: _7  and  _8
REMARK    4  A    between atoms: _7  and  _27
REMARK    5  A    between atoms: _12  and  _13
REMARK    6  A    between atoms: _13  and  _21
REMARK    7  A    between atoms: _14  and  _15
REMARK    8  A    between atoms: _23  and  _43
REMARK    9  A    between atoms: _25  and  _31
REMARK   10  A    between atoms: _26  and  _30
REMARK   11  A    between atoms: _30  and  _31
REMARK   12  A    between atoms: _33  and  _34
REMARK   13  A    between atoms: _35  and  _36
REMARK   14  A    between atoms: _37  and  _39
REMARK   15  A    between atoms: _39  and  _40
REMARK   16  A    between atoms: _39  and  _41
REMARK   17  A    between atoms: _41  and  _42
REMARK   18  A    between atoms: _41  and  _43
REMARK   19  A    between atoms: _44  and  _46
REMARK                            x       y       z     vdW  Elec       q    Type
REMARK                         _______ _______ _______ _____ _____    ______ ____
ROOT
ATOM      1  C   UNL     1      17.841   5.505  23.335  0.00  0.00    +0.401 C 
ATOM      2  O   UNL     1      16.985   6.237  22.833  0.00  0.00    -0.226 OA
ATOM      3  N   UNL     1      17.918   4.191  23.119  0.00  0.00    -0.279 N 
ATOM      4  H   UNL     1      18.663   3.677  23.569  0.00  0.00    +0.152 HD
ENDROOT
BRANCH   3   5
ATOM      5  C   UNL     1      16.983   3.450  22.264  0.00  0.00    +0.141 C 
BRANCH   5   6
ATOM      6  C   UNL     1      16.946   1.966  22.615  0.00  0.00    +0.163 C 
BRANCH   6   7
ATOM      7  O   UNL     1      17.688   1.212  21.642  0.00  0.00    -0.388 OA
ATOM      8  H   UNL     1      17.955   0.372  22.024  0.00  0.00    +0.210 HD
ENDBRANCH   6   7
BRANCH   6   9
ATOM      9  C   UNL     1      17.520   1.757  24.027  0.00  0.00    +0.175 C 
BRANCH   9  10
ATOM     10  C   UNL     1      17.829   0.280  24.313  0.00  0.00    +0.176 C 
ATOM     11  O   UNL     1      16.653  -0.499  23.958  0.00  0.00    -0.332 OA
ATOM     12  C   UNL     1      16.801  -1.953  24.066  0.00  0.00    +0.277 C 
ATOM     13  C   UNL     1      17.279  -2.345  25.486  0.00  0.00    +0.110 C 
ATOM     14  C   UNL     1      18.508  -1.520  25.921  0.00  0.00    +0.143 C 
ATOM     15  C   UNL     1      18.246  -0.021  25.765  0.00  0.00    +0.133 C 
BRANCH  15  16
ATOM     16  N   UNL     1      19.454   0.750  26.099  0.00  0.00    -0.308 N 
ATOM     17  H   UNL     1      20.278   0.605  25.533  0.00  0.00    +0.149 HD
ATOM     18  C   UNL     1      19.531   1.630  27.101  0.00  0.00    +0.210 C 
ATOM     19  C   UNL     1      18.266   1.810  27.960  0.00  0.00    +0.109 C 
ATOM     20  O   UNL     1      20.552   2.273  27.349  0.00  0.00    -0.276 OA
ENDBRANCH  15  16
BRANCH  12  21
ATOM     21  C   UNL     1      17.805  -2.481  23.020  0.00  0.00    +0.414 C 
ATOM     22  O   UNL     1      17.965  -1.882  21.957  0.00  0.00    -0.240 OA
ATOM     23  O   UNL     1      18.455  -3.503  23.239  0.00  0.00    -0.240 OA
ENDBRANCH  12  21
BRANCH  12  24
ATOM     24  O   UNL     1      15.500  -2.554  23.840  0.00  0.00    -0.343 OA
ATOM     25  C   UNL     1      15.386  -3.941  24.249  0.00  0.00    +0.198 C 
ENDBRANCH  12  24
BRANCH  14  26
ATOM     26  O   UNL     1      18.821  -1.803  27.285  0.00  0.00    -0.390 OA
ATOM     27  H   UNL     1      18.922  -2.751  27.400  0.00  0.00    +0.210 HD
ENDBRANCH  14  26
ENDBRANCH   9  10
BRANCH   9  28
ATOM     28  O   UNL     1      16.608   2.275  25.016  0.00  0.00    -0.387 OA
ATOM     29  H   UNL     1      16.694   1.769  25.827  0.00  0.00    +0.210 HD
ENDBRANCH   9  28
ENDBRANCH   6   9
ENDBRANCH   5   6
ENDBRANCH   3   5
BRANCH   1  30
ATOM     30  O   UNL     1      18.823   6.079  24.202  0.00  0.00    -0.444 OA
BRANCH  30  31
ATOM     31  C   UNL     1      19.046   5.207  25.313  0.00  0.00    +0.292 C 
BRANCH  31  33
ATOM     32  N   UNL     1      19.009   5.345  27.790  0.00  0.00    -0.131 NA
ATOM     33  C   UNL     1      19.044   5.969  26.577  0.00  0.00    +0.121 A 
ATOM     34  C   UNL     1      19.073   7.330  26.773  0.00  0.00    +0.143 A 
ATOM     35  N   UNL     1      19.046   7.492  28.138  0.00  0.00    -0.220 N 
ATOM     36  N   UNL     1      19.013   6.277  28.735  0.00  0.00    -0.060 NA
BRANCH  35  37
ATOM     37  C   UNL     1      19.055   8.698  28.881  0.00  0.00    +0.071 A 
ATOM     38  C   UNL     1      19.796   9.789  28.441  0.00  0.00    +0.063 A 
ATOM     39  CA  UNL     1      19.763  10.935  29.211  0.00  0.00    +0.150 A 
ATOM     40  N   UNL     1      19.063  11.073  30.373  0.00  0.00    -0.240 NA
ATOM     41  C   UNL     1      18.352   9.996  30.805  0.00  0.00    +0.074 A 
ATOM     42  C   UNL     1      18.321   8.804  30.073  0.00  0.00    +0.056 A 
BRANCH  41  43
ATOM     43  C   UNL     1      17.647  10.170  32.098  0.00  0.00    +0.000 A 
ATOM     44  C   UNL     1      16.833   9.162  32.647  0.00  0.00    +0.010 A 
ATOM     45  C   UNL     1      16.203   9.324  33.888  0.00  0.00    +0.001 A 
ATOM     46  C   UNL     1      16.373  10.500  34.611  0.00  0.00    +0.000 A 
ATOM     47  C   UNL     1      17.165  11.517  34.090  0.00  0.00    +0.001 A 
ATOM     48  C   UNL     1      17.793  11.353  32.849  0.00  0.00    +0.010 A 
ENDBRANCH  41  43
BRANCH  39  49
ATOM     49  C   UNL     1      20.543  12.129  28.777  0.00  0.00    +0.355 C 
ATOM     50  OXT UNL     1      20.657  12.496  27.621  0.00  0.00    -0.243 OA
BRANCH  49  51
ATOM     51  O   UNL     1      21.108  12.745  29.840  0.00  0.00    -0.476 OA
ATOM     52  H   UNL     1      22.088  12.706  29.750  0.00  0.00    +0.295 HD
ENDBRANCH  49  51
ENDBRANCH  39  49
ENDBRANCH  35  37
ENDBRANCH  31  33
ENDBRANCH  30  31
ENDBRANCH   1  30
TORSDOF 17
