REMARK VINA RESULT:    -6.602     14.610     18.057
REMARK INTER + INTRA:         -13.274
REMARK INTER:                 -11.618
REMARK INTRA:                  -1.656
REMARK UNBOUND:                -1.847
REMARK  Name = lig_assembled_2.pdb
REMARK  16 active torsions:
REMARK  status: ('A' for Active; 'I' for Inactive)
REMARK    1  A    between atoms: _2  and  _9
REMARK    2  A    between atoms: _4  and  _18
REMARK    3  A    between atoms: _6  and  _7
REMARK    4  A    between atoms: _6  and  _18
REMARK    5  A    between atoms: _14  and  _34
REMARK    6  A    between atoms: _16  and  _22
REMARK    7  A    between atoms: _17  and  _21
REMARK    8  A    between atoms: _21  and  _22
REMARK    9  A    between atoms: _24  and  _25
REMARK   10  A    between atoms: _26  and  _27
REMARK   11  A    between atoms: _28  and  _30
REMARK   12  A    between atoms: _30  and  _31
REMARK   13  A    between atoms: _30  and  _32
REMARK   14  A    between atoms: _32  and  _33
REMARK   15  A    between atoms: _32  and  _34
REMARK   16  A    between atoms: _35  and  _37
REMARK                            x       y       z     vdW  Elec       q    Type
REMARK                         _______ _______ _______ _____ _____    ______ ____
ROOT
ATOM      1  C   UNL     1      17.094   1.949  26.216  0.00  0.00    +0.163 C 
ENDROOT
BRANCH   1   2
ATOM      2  O   UNL     1      16.163   2.833  26.863  0.00  0.00    -0.388 OA
ATOM      3  H   UNL     1      16.250   2.749  27.815  0.00  0.00    +0.210 HD
ENDBRANCH   1   2
BRANCH   1   4
ATOM      4  C   UNL     1      18.443   2.641  26.052  0.00  0.00    +0.141 C 
BRANCH   4   7
ATOM      5  C   UNL     1      19.285   4.956  25.853  0.00  0.00    +0.401 C 
ATOM      6  O   UNL     1      20.430   4.671  26.214  0.00  0.00    -0.226 OA
ATOM      7  N   UNL     1      18.292   4.071  25.755  0.00  0.00    -0.279 N 
ATOM      8  H   UNL     1      17.385   4.403  25.459  0.00  0.00    +0.152 HD
BRANCH   5   9
ATOM      9  O   UNL     1      18.981   6.312  25.518  0.00  0.00    -0.444 OA
BRANCH   9  10
ATOM     10  C   UNL     1      20.019   7.169  26.002  0.00  0.00    +0.292 C 
BRANCH  10  12
ATOM     11  N   UNL     1      19.173   9.333  26.853  0.00  0.00    -0.131 NA
ATOM     12  C   UNL     1      19.509   8.031  27.085  0.00  0.00    +0.121 A 
ATOM     13  C   UNL     1      19.278   7.736  28.409  0.00  0.00    +0.143 A 
ATOM     14  N   UNL     1      18.769   8.895  28.947  0.00  0.00    -0.220 N 
ATOM     15  N   UNL     1      18.731   9.853  27.989  0.00  0.00    -0.060 NA
BRANCH  14  16
ATOM     16  C   UNL     1      18.302   9.132  30.267  0.00  0.00    +0.067 A 
ATOM     17  C   UNL     1      17.888   8.072  31.086  0.00  0.00    +0.029 A 
ATOM     18  C   UNL     1      17.397   8.330  32.370  0.00  0.00    +0.022 A 
ATOM     19  C   UNL     1      17.321   9.640  32.839  0.00  0.00    +0.041 A 
ATOM     20 CL   UNL     1      16.694   9.949  34.410  0.00  0.00    -0.084 Cl
ATOM     21  C   UNL     1      17.743  10.699  32.039  0.00  0.00    +0.022 A 
ATOM     22  C   UNL     1      18.236  10.448  30.755  0.00  0.00    +0.029 A 
ENDBRANCH  14  16
ENDBRANCH  10  12
ENDBRANCH   9  10
ENDBRANCH   5   9
ENDBRANCH   4   7
ENDBRANCH   1   4
BRANCH   1  23
ATOM     23  C   UNL     1      16.570   1.511  24.838  0.00  0.00    +0.175 C 
BRANCH  23  24
ATOM     24  C   UNL     1      17.651   0.804  24.007  0.00  0.00    +0.176 C 
ATOM     25  O   UNL     1      17.717   1.457  22.710  0.00  0.00    -0.332 OA
ATOM     26  C   UNL     1      18.774   0.980  21.813  0.00  0.00    +0.277 C 
ATOM     27  C   UNL     1      18.671  -0.553  21.622  0.00  0.00    +0.110 C 
ATOM     28  C   UNL     1      18.566  -1.289  22.974  0.00  0.00    +0.143 C 
ATOM     29  C   UNL     1      17.437  -0.711  23.828  0.00  0.00    +0.133 C 
BRANCH  29  30
ATOM     30  N   UNL     1      17.403  -1.362  25.147  0.00  0.00    -0.308 N 
ATOM     31  H   UNL     1      18.135  -1.134  25.804  0.00  0.00    +0.149 HD
ATOM     32  C   UNL     1      16.468  -2.235  25.531  0.00  0.00    +0.210 C 
ATOM     33  C   UNL     1      15.381  -2.582  24.496  0.00  0.00    +0.109 C 
ATOM     34  O   UNL     1      16.456  -2.754  26.648  0.00  0.00    -0.276 OA
ENDBRANCH  29  30
BRANCH  26  35
ATOM     35  C   UNL     1      20.168   1.337  22.371  0.00  0.00    +0.414 C 
ATOM     36  O   UNL     1      21.082   0.515  22.330  0.00  0.00    -0.240 OA
ATOM     37  O   UNL     1      20.378   2.447  22.863  0.00  0.00    -0.240 OA
ENDBRANCH  26  35
BRANCH  28  38
ATOM     38  O   UNL     1      18.321  -2.678  22.748  0.00  0.00    -0.390 OA
ATOM     39  H   UNL     1      18.906  -2.999  22.058  0.00  0.00    +0.210 HD
ENDBRANCH  28  38
BRANCH  26  40
ATOM     40  O   UNL     1      18.588   1.616  20.522  0.00  0.00    -0.343 OA
ATOM     41  C   UNL     1      17.208   1.741  20.094  0.00  0.00    +0.198 C 
ENDBRANCH  26  40
ENDBRANCH  23  24
BRANCH  23  42
ATOM     42  O   UNL     1      16.056   2.649  24.118  0.00  0.00    -0.387 OA
ATOM     43  H   UNL     1      15.951   2.421  23.191  0.00  0.00    +0.210 HD
ENDBRANCH  23  42
ENDBRANCH   1  23
TORSDOF 14
