REMARK VINA RESULT:    -5.669      2.420      7.196
REMARK INTER + INTRA:         -13.114
REMARK INTER:                 -10.702
REMARK INTRA:                  -2.412
REMARK UNBOUND:                -2.805
REMARK  Name = lig_assembled_72.pdb
REMARK  20 active torsions:
REMARK  status: ('A' for Active; 'I' for Inactive)
REMARK    1  A    between atoms: _2  and  _9
REMARK    2  A    between atoms: _4  and  _17
REMARK    3  A    between atoms: _5  and  _9
REMARK    4  A    between atoms: _5  and  _12
REMARK    5  A    between atoms: _6  and  _7
REMARK    6  A    between atoms: _6  and  _17
REMARK    7  A    between atoms: _9  and  _10
REMARK    8  A    between atoms: _9  and  _11
REMARK    9  A    between atoms: _13  and  _33
REMARK   10  A    between atoms: _15  and  _21
REMARK   11  A    between atoms: _16  and  _20
REMARK   12  A    between atoms: _20  and  _21
REMARK   13  A    between atoms: _23  and  _24
REMARK   14  A    between atoms: _25  and  _26
REMARK   15  A    between atoms: _27  and  _29
REMARK   16  A    between atoms: _29  and  _30
REMARK   17  A    between atoms: _29  and  _31
REMARK   18  A    between atoms: _31  and  _32
REMARK   19  A    between atoms: _31  and  _33
REMARK   20  A    between atoms: _34  and  _36
REMARK                            x       y       z     vdW  Elec       q    Type
REMARK                         _______ _______ _______ _____ _____    ______ ____
ROOT
ATOM      1  C   UNL     1      19.409  -0.682  22.697  0.00  0.00    +0.163 C 
ENDROOT
BRANCH   1   2
ATOM      2  O   UNL     1      19.590   0.527  23.451  0.00  0.00    -0.388 OA
ATOM      3  H   UNL     1      18.858   1.125  23.278  0.00  0.00    +0.210 HD
ENDBRANCH   1   2
BRANCH   1   4
ATOM      4  C   UNL     1      18.834  -1.802  23.582  0.00  0.00    +0.175 C 
BRANCH   4   5
ATOM      5  C   UNL     1      18.065  -1.246  24.789  0.00  0.00    +0.176 C 
ATOM      6  O   UNL     1      19.031  -0.938  25.832  0.00  0.00    -0.332 OA
ATOM      7  C   UNL     1      18.486  -0.294  27.031  0.00  0.00    +0.277 C 
ATOM      8  C   UNL     1      17.331  -1.140  27.621  0.00  0.00    +0.110 C 
ATOM      9  C   UNL     1      16.294  -1.520  26.543  0.00  0.00    +0.143 C 
ATOM     10  C   UNL     1      16.970  -2.179  25.340  0.00  0.00    +0.133 C 
BRANCH  10  11
ATOM     11  N   UNL     1      15.984  -2.457  24.284  0.00  0.00    -0.308 N 
ATOM     12  H   UNL     1      15.446  -1.681  23.924  0.00  0.00    +0.149 HD
ATOM     13  C   UNL     1      15.754  -3.668  23.769  0.00  0.00    +0.210 C 
ATOM     14  C   UNL     1      16.571  -4.834  24.356  0.00  0.00    +0.109 C 
ATOM     15  O   UNL     1      14.932  -3.868  22.874  0.00  0.00    -0.276 OA
ENDBRANCH  10  11
BRANCH   7  16
ATOM     16  C   UNL     1      17.972   1.123  26.705  0.00  0.00    +0.414 C 
ATOM     17  O   UNL     1      18.050   1.563  25.558  0.00  0.00    -0.240 OA
ATOM     18  O   UNL     1      17.481   1.827  27.588  0.00  0.00    -0.240 OA
ENDBRANCH   7  16
BRANCH   9  19
ATOM     19  O   UNL     1      15.333  -2.421  27.095  0.00  0.00    -0.390 OA
ATOM     20  H   UNL     1      15.226  -2.240  28.032  0.00  0.00    +0.210 HD
ENDBRANCH   9  19
BRANCH   7  21
ATOM     21  O   UNL     1      19.546  -0.215  28.018  0.00  0.00    -0.343 OA
ATOM     22  C   UNL     1      19.696  -1.392  28.851  0.00  0.00    +0.198 C 
ENDBRANCH   7  21
ENDBRANCH   4   5
BRANCH   4  23
ATOM     23  O   UNL     1      19.891  -2.676  24.025  0.00  0.00    -0.387 OA
ATOM     24  H   UNL     1      20.742  -2.278  23.823  0.00  0.00    +0.210 HD
ENDBRANCH   4  23
ENDBRANCH   1   4
BRANCH   1  25
ATOM     25  C   UNL     1      18.470  -0.429  21.522  0.00  0.00    +0.141 C 
BRANCH  25  28
ATOM     26  C   UNL     1      17.641   1.794  20.830  0.00  0.00    +0.401 C 
ATOM     27  O   UNL     1      18.279   1.807  19.775  0.00  0.00    -0.226 OA
ATOM     28  N   UNL     1      17.676   0.792  21.709  0.00  0.00    -0.279 N 
ATOM     29  H   UNL     1      17.124   0.877  22.552  0.00  0.00    +0.152 HD
BRANCH  26  30
ATOM     30  O   UNL     1      16.810   2.912  21.154  0.00  0.00    -0.444 OA
BRANCH  30  31
ATOM     31  C   UNL     1      16.748   3.066  22.574  0.00  0.00    +0.292 C 
BRANCH  31  33
ATOM     32  N   UNL     1      17.147   5.506  22.616  0.00  0.00    -0.131 NA
ATOM     33  C   UNL     1      17.523   4.247  22.996  0.00  0.00    +0.120 A 
ATOM     34  C   UNL     1      18.658   4.333  23.772  0.00  0.00    +0.137 A 
ATOM     35  N   UNL     1      18.927   5.673  23.831  0.00  0.00    -0.244 N 
ATOM     36  N   UNL     1      18.010   6.369  23.129  0.00  0.00    -0.065 NA
BRANCH  35  37
ATOM     37  C   UNL     1      20.026   6.351  24.534  0.00  0.00    +0.083 C 
ATOM     38  C   UNL     1      20.860   5.305  25.297  0.00  0.00    +0.038 C 
ATOM     39  C   UNL     1      19.449   7.375  25.531  0.00  0.00    +0.038 C 
BRANCH  37  40
ATOM     40  C   UNL     1      20.974   7.083  23.544  0.00  0.00    +0.185 C 
BRANCH  40  41
ATOM     41  O   UNL     1      20.470   8.354  23.138  0.00  0.00    -0.393 OA
ATOM     42  H   UNL     1      20.684   8.975  23.867  0.00  0.00    +0.209 HD
ENDBRANCH  40  41
ENDBRANCH  37  40
ENDBRANCH  35  37
ENDBRANCH  31  33
ENDBRANCH  30  31
ENDBRANCH  26  30
ENDBRANCH  25  28
ENDBRANCH   1  25
TORSDOF 16
