REMARK VINA RESULT:    -5.704      2.137      4.827
REMARK INTER + INTRA:         -14.270
REMARK INTER:                 -11.811
REMARK INTRA:                  -2.459
REMARK UNBOUND:                -2.564
REMARK  Name = lig_assembled_74.pdb
REMARK  24 active torsions:
REMARK  status: ('A' for Active; 'I' for Inactive)
REMARK    1  A    between atoms: _2  and  _9
REMARK    2  A    between atoms: _4  and  _22
REMARK    3  A    between atoms: _5  and  _14
REMARK    4  A    between atoms: _6  and  _7
REMARK    5  A    between atoms: _6  and  _22
REMARK    6  A    between atoms: _9  and  _10
REMARK    7  A    between atoms: _10  and  _11
REMARK    8  A    between atoms: _10  and  _13
REMARK    9  A    between atoms: _11  and  _12
REMARK   10  A    between atoms: _12  and  _16
REMARK   11  A    between atoms: _13  and  _14
REMARK   12  A    between atoms: _14  and  _15
REMARK   13  A    between atoms: _18  and  _38
REMARK   14  A    between atoms: _20  and  _26
REMARK   15  A    between atoms: _21  and  _25
REMARK   16  A    between atoms: _25  and  _26
REMARK   17  A    between atoms: _28  and  _29
REMARK   18  A    between atoms: _30  and  _31
REMARK   19  A    between atoms: _32  and  _34
REMARK   20  A    between atoms: _34  and  _35
REMARK   21  A    between atoms: _34  and  _36
REMARK   22  A    between atoms: _36  and  _37
REMARK   23  A    between atoms: _36  and  _38
REMARK   24  A    between atoms: _39  and  _41
REMARK                            x       y       z     vdW  Elec       q    Type
REMARK                         _______ _______ _______ _____ _____    ______ ____
ROOT
ATOM      1  C   UNL     1      20.963   6.195  28.524  0.00  0.00    +0.163 C 
ENDROOT
BRANCH   1   2
ATOM      2  O   UNL     1      21.409   5.482  27.359  0.00  0.00    -0.388 OA
ATOM      3  H   UNL     1      22.311   5.182  27.492  0.00  0.00    +0.210 HD
ENDBRANCH   1   2
BRANCH   1   4
ATOM      4  C   UNL     1      19.545   6.755  28.317  0.00  0.00    +0.175 C 
BRANCH   4   5
ATOM      5  C   UNL     1      19.525   8.291  28.314  0.00  0.00    +0.176 C 
ATOM      6  O   UNL     1      18.642   8.729  29.383  0.00  0.00    -0.332 OA
ATOM      7  C   UNL     1      18.580  10.177  29.600  0.00  0.00    +0.277 C 
ATOM      8  C   UNL     1      18.211  10.907  28.285  0.00  0.00    +0.110 C 
ATOM      9  C   UNL     1      19.103  10.450  27.112  0.00  0.00    +0.143 C 
ATOM     10  C   UNL     1      19.097   8.927  26.978  0.00  0.00    +0.133 C 
BRANCH  10  11
ATOM     11  N   UNL     1      20.018   8.499  25.913  0.00  0.00    -0.308 N 
ATOM     12  H   UNL     1      20.930   8.931  25.877  0.00  0.00    +0.149 HD
ATOM     13  C   UNL     1      19.726   7.578  24.991  0.00  0.00    +0.210 C 
ATOM     14  C   UNL     1      18.318   6.957  25.057  0.00  0.00    +0.109 C 
ATOM     15  O   UNL     1      20.523   7.229  24.119  0.00  0.00    -0.276 OA
ENDBRANCH  10  11
BRANCH   7  16
ATOM     16  C   UNL     1      19.929  10.710  30.125  0.00  0.00    +0.414 C 
ATOM     17  O   UNL     1      20.740   9.942  30.643  0.00  0.00    -0.240 OA
ATOM     18  O   UNL     1      20.208  11.906  30.030  0.00  0.00    -0.240 OA
ENDBRANCH   7  16
BRANCH   9  19
ATOM     19  O   UNL     1      18.633  11.031  25.895  0.00  0.00    -0.390 OA
ATOM     20  H   UNL     1      17.925  11.650  26.088  0.00  0.00    +0.210 HD
ENDBRANCH   9  19
BRANCH   7  21
ATOM     21  O   UNL     1      17.539  10.440  30.576  0.00  0.00    -0.343 OA
ATOM     22  C   UNL     1      17.546   9.563  31.731  0.00  0.00    +0.198 C 
ENDBRANCH   7  21
ENDBRANCH   4   5
BRANCH   4  23
ATOM     23  O   UNL     1      18.658   6.249  29.334  0.00  0.00    -0.387 OA
ATOM     24  H   UNL     1      19.170   5.974  30.098  0.00  0.00    +0.210 HD
ENDBRANCH   4  23
ENDBRANCH   1   4
BRANCH   1  25
ATOM     25  C   UNL     1      20.974   5.271  29.737  0.00  0.00    +0.141 C 
BRANCH  25  28
ATOM     26  C   UNL     1      19.864   3.064  29.653  0.00  0.00    +0.401 C 
ATOM     27  O   UNL     1      18.881   3.429  30.301  0.00  0.00    -0.226 OA
ATOM     28  N   UNL     1      20.892   3.857  29.349  0.00  0.00    -0.279 N 
ATOM     29  H   UNL     1      21.659   3.463  28.821  0.00  0.00    +0.152 HD
BRANCH  26  30
ATOM     30  O   UNL     1      19.930   1.712  29.194  0.00  0.00    -0.444 OA
BRANCH  30  31
ATOM     31  C   UNL     1      20.844   1.624  28.097  0.00  0.00    +0.292 C 
BRANCH  31  33
ATOM     32  N   UNL     1      19.857   3.010  26.288  0.00  0.00    -0.131 NA
ATOM     33  C   UNL     1      20.133   1.774  26.812  0.00  0.00    +0.120 A 
ATOM     34  C   UNL     1      19.723   0.807  25.920  0.00  0.00    +0.137 A 
ATOM     35  N   UNL     1      19.381   1.522  24.807  0.00  0.00    -0.251 N 
ATOM     36  N   UNL     1      19.371   2.842  25.066  0.00  0.00    -0.065 NA
BRANCH  35  37
ATOM     37  C   UNL     1      19.375   1.049  23.436  0.00  0.00    +0.149 C 
BRANCH  37  38
ATOM     38  C   UNL     1      17.987   0.708  22.854  0.00  0.00    +0.021 C 
BRANCH  38  39
ATOM     39  C   UNL     1      17.268   1.922  22.230  0.00  0.00    +0.125 C 
BRANCH  39  40
ATOM     40  C   UNL     1      17.434   2.056  20.731  0.00  0.00    +0.305 C 
ATOM     41  O   UNL     1      18.447   1.771  20.111  0.00  0.00    -0.251 OA
BRANCH  40  42
ATOM     42  O   UNL     1      16.313   2.469  20.112  0.00  0.00    -0.481 OA
ATOM     43  H   UNL     1      15.477   2.176  20.518  0.00  0.00    +0.295 HD
ENDBRANCH  40  42
ENDBRANCH  39  40
ENDBRANCH  38  39
BRANCH  38  44
ATOM     44  C   UNL     1      17.138  -0.007  23.946  0.00  0.00    +0.009 C 
BRANCH  44  45
ATOM     45  C   UNL     1      17.060  -1.545  23.840  0.00  0.00    -0.017 C 
ATOM     46  C   UNL     1      18.106  -2.239  24.714  0.00  0.00    +0.007 C 
ATOM     47  C   UNL     1      15.666  -2.042  24.239  0.00  0.00    +0.007 C 
ENDBRANCH  44  45
ENDBRANCH  38  44
ENDBRANCH  37  38
ENDBRANCH  35  37
ENDBRANCH  31  33
ENDBRANCH  30  31
ENDBRANCH  26  30
ENDBRANCH  25  28
ENDBRANCH   1  25
TORSDOF 20
