REMARK VINA RESULT:    -5.607     15.035     17.849
REMARK INTER + INTRA:         -13.380
REMARK INTER:                 -11.036
REMARK INTRA:                  -2.344
REMARK UNBOUND:                -2.036
REMARK  Name = lig_assembled_45.pdb
REMARK  24 active torsions:
REMARK  status: ('A' for Active; 'I' for Inactive)
REMARK    1  A    between atoms: _2  and  _10
REMARK    2  A    between atoms: _3  and  _12
REMARK    3  A    between atoms: _3  and  _13
REMARK    4  A    between atoms: _3  and  _14
REMARK    5  A    between atoms: _3  and  _16
REMARK    6  A    between atoms: _5  and  _21
REMARK    7  A    between atoms: _6  and  _16
REMARK    8  A    between atoms: _7  and  _8
REMARK    9  A    between atoms: _7  and  _21
REMARK   10  A    between atoms: _10  and  _11
REMARK   11  A    between atoms: _11  and  _12
REMARK   12  A    between atoms: _14  and  _15
REMARK   13  A    between atoms: _17  and  _37
REMARK   14  A    between atoms: _19  and  _25
REMARK   15  A    between atoms: _20  and  _24
REMARK   16  A    between atoms: _24  and  _25
REMARK   17  A    between atoms: _27  and  _28
REMARK   18  A    between atoms: _29  and  _30
REMARK   19  A    between atoms: _31  and  _33
REMARK   20  A    between atoms: _33  and  _34
REMARK   21  A    between atoms: _33  and  _35
REMARK   22  A    between atoms: _35  and  _36
REMARK   23  A    between atoms: _35  and  _37
REMARK   24  A    between atoms: _38  and  _40
REMARK                            x       y       z     vdW  Elec       q    Type
REMARK                         _______ _______ _______ _____ _____    ______ ____
ROOT
ATOM      1  C   UNL     1      17.528  -2.449  22.815  0.00  0.00    +0.163 C 
ENDROOT
BRANCH   1   2
ATOM      2  O   UNL     1      18.446  -3.513  23.116  0.00  0.00    -0.388 OA
ATOM      3  H   UNL     1      18.909  -3.773  22.316  0.00  0.00    +0.210 HD
ENDBRANCH   1   2
BRANCH   1   4
ATOM      4  C   UNL     1      16.674  -2.095  24.045  0.00  0.00    +0.175 C 
BRANCH   4   5
ATOM      5  C   UNL     1      17.179  -2.788  25.318  0.00  0.00    +0.176 C 
ATOM      6  O   UNL     1      16.365  -3.974  25.535  0.00  0.00    -0.332 OA
ATOM      7  C   UNL     1      16.773  -4.826  26.656  0.00  0.00    +0.277 C 
ATOM      8  C   UNL     1      16.852  -4.000  27.963  0.00  0.00    +0.110 C 
ATOM      9  C   UNL     1      17.681  -2.712  27.773  0.00  0.00    +0.143 C 
ATOM     10  C   UNL     1      17.174  -1.904  26.579  0.00  0.00    +0.133 C 
BRANCH  10  11
ATOM     11  N   UNL     1      18.025  -0.725  26.355  0.00  0.00    -0.308 N 
ATOM     12  H   UNL     1      19.023  -0.870  26.284  0.00  0.00    +0.149 HD
ATOM     13  C   UNL     1      17.566   0.524  26.240  0.00  0.00    +0.210 C 
ATOM     14  C   UNL     1      16.044   0.715  26.378  0.00  0.00    +0.109 C 
ATOM     15  O   UNL     1      18.302   1.491  26.038  0.00  0.00    -0.276 OA
ENDBRANCH  10  11
BRANCH   7  16
ATOM     16  C   UNL     1      18.142  -5.481  26.376  0.00  0.00    +0.414 C 
ATOM     17  O   UNL     1      18.877  -5.803  27.309  0.00  0.00    -0.240 OA
ATOM     18  O   UNL     1      18.510  -5.687  25.219  0.00  0.00    -0.240 OA
ENDBRANCH   7  16
BRANCH   9  19
ATOM     19  O   UNL     1      17.602  -1.910  28.952  0.00  0.00    -0.390 OA
ATOM     20  H   UNL     1      18.382  -2.056  29.493  0.00  0.00    +0.210 HD
ENDBRANCH   9  19
BRANCH   7  21
ATOM     21  O   UNL     1      15.765  -5.856  26.827  0.00  0.00    -0.343 OA
ATOM     22  C   UNL     1      14.873  -6.032  25.698  0.00  0.00    +0.198 C 
ENDBRANCH   7  21
ENDBRANCH   4   5
BRANCH   4  23
ATOM     23  O   UNL     1      15.294  -2.439  23.806  0.00  0.00    -0.387 OA
ATOM     24  H   UNL     1      14.768  -1.637  23.754  0.00  0.00    +0.210 HD
ENDBRANCH   4  23
ENDBRANCH   1   4
BRANCH   1  25
ATOM     25  C   UNL     1      18.294  -1.214  22.354  0.00  0.00    +0.141 C 
BRANCH  25  28
ATOM     26  C   UNL     1      17.474   1.117  22.290  0.00  0.00    +0.401 C 
ATOM     27  O   UNL     1      17.604   1.228  21.069  0.00  0.00    -0.226 OA
ATOM     28  N   UNL     1      17.778   0.013  22.974  0.00  0.00    -0.279 N 
ATOM     29  H   UNL     1      17.646   0.022  23.976  0.00  0.00    +0.152 HD
BRANCH  26  30
ATOM     30  O   UNL     1      16.973   2.227  23.039  0.00  0.00    -0.444 OA
BRANCH  30  31
ATOM     31  C   UNL     1      16.941   3.389  22.207  0.00  0.00    +0.292 C 
BRANCH  31  33
ATOM     32  N   UNL     1      17.154   5.814  22.680  0.00  0.00    -0.131 NA
ATOM     33  C   UNL     1      17.574   4.529  22.896  0.00  0.00    +0.120 A 
ATOM     34  C   UNL     1      18.612   4.541  23.800  0.00  0.00    +0.137 A 
ATOM     35  N   UNL     1      18.764   5.862  24.090  0.00  0.00    -0.251 N 
ATOM     36  N   UNL     1      17.899   6.627  23.419  0.00  0.00    -0.065 NA
BRANCH  35  37
ATOM     37  C   UNL     1      19.736   6.458  24.983  0.00  0.00    +0.150 C 
BRANCH  37  38
ATOM     38  C   UNL     1      19.115   6.978  26.273  0.00  0.00    +0.074 C 
BRANCH  38  39
ATOM     39  C   UNL     1      18.915   8.496  26.381  0.00  0.00    +0.134 C 
BRANCH  39  40
ATOM     40  N   UNL     1      20.021   9.332  27.105  0.00  0.00    +0.241 N 
ATOM     41  C   UNL     1      20.276   8.719  28.492  0.00  0.00    +0.192 C 
BRANCH  40  42
ATOM     42  C   UNL     1      19.423  10.765  27.299  0.00  0.00    +0.129 C 
ATOM     43  C   UNL     1      18.100  10.787  28.057  0.00  0.00    +0.060 C 
ENDBRANCH  40  42
BRANCH  40  44
ATOM     44  C   UNL     1      21.359   9.427  26.348  0.00  0.00    +0.129 C 
ATOM     45  C   UNL     1      21.245  10.015  24.951  0.00  0.00    +0.060 C 
ENDBRANCH  40  44
ENDBRANCH  39  40
ENDBRANCH  38  39
ENDBRANCH  37  38
ENDBRANCH  35  37
ENDBRANCH  31  33
ENDBRANCH  30  31
ENDBRANCH  26  30
ENDBRANCH  25  28
ENDBRANCH   1  25
TORSDOF 19
