REMARK VINA RESULT:    -5.937     14.977     18.954
REMARK INTER + INTRA:         -12.646
REMARK INTER:                 -11.062
REMARK INTRA:                  -1.584
REMARK UNBOUND:                -2.370
REMARK  Name = lig_assembled_87.pdb
REMARK  17 active torsions:
REMARK  status: ('A' for Active; 'I' for Inactive)
REMARK    1  A    between atoms: _2  and  _10
REMARK    2  A    between atoms: _3  and  _13
REMARK    3  A    between atoms: _5  and  _21
REMARK    4  A    between atoms: _7  and  _8
REMARK    5  A    between atoms: _7  and  _21
REMARK    6  A    between atoms: _17  and  _37
REMARK    7  A    between atoms: _19  and  _25
REMARK    8  A    between atoms: _20  and  _24
REMARK    9  A    between atoms: _24  and  _25
REMARK   10  A    between atoms: _27  and  _28
REMARK   11  A    between atoms: _29  and  _30
REMARK   12  A    between atoms: _31  and  _33
REMARK   13  A    between atoms: _33  and  _34
REMARK   14  A    between atoms: _33  and  _35
REMARK   15  A    between atoms: _35  and  _36
REMARK   16  A    between atoms: _35  and  _37
REMARK   17  A    between atoms: _38  and  _40
REMARK                            x       y       z     vdW  Elec       q    Type
REMARK                         _______ _______ _______ _____ _____    ______ ____
ROOT
ATOM      1  C   UNL     1      16.553   1.031  26.161  0.00  0.00    +0.163 C 
ENDROOT
BRANCH   1   2
ATOM      2  O   UNL     1      15.429   0.460  26.850  0.00  0.00    -0.388 OA
ATOM      3  H   UNL     1      14.626   0.633  26.352  0.00  0.00    +0.210 HD
ENDBRANCH   1   2
BRANCH   1   4
ATOM      4  C   UNL     1      16.840   2.429  26.698  0.00  0.00    +0.141 C 
BRANCH   4   7
ATOM      5  C   UNL     1      18.662   4.093  26.563  0.00  0.00    +0.401 C 
ATOM      6  O   UNL     1      18.295   4.714  27.563  0.00  0.00    -0.226 OA
ATOM      7  N   UNL     1      18.037   3.017  26.084  0.00  0.00    -0.279 N 
ATOM      8  H   UNL     1      18.408   2.581  25.251  0.00  0.00    +0.152 HD
BRANCH   5   9
ATOM      9  O   UNL     1      19.822   4.538  25.856  0.00  0.00    -0.444 OA
BRANCH   9  10
ATOM     10  C   UNL     1      19.426   5.394  24.780  0.00  0.00    +0.292 C 
BRANCH  10  12
ATOM     11  N   UNL     1      20.714   7.365  24.032  0.00  0.00    -0.131 NA
ATOM     12  C   UNL     1      19.959   6.752  24.992  0.00  0.00    +0.120 A 
ATOM     13  C   UNL     1      19.814   7.604  26.064  0.00  0.00    +0.137 A 
ATOM     14  N   UNL     1      20.399   8.771  25.650  0.00  0.00    -0.248 N 
ATOM     15  N   UNL     1      21.034   8.568  24.476  0.00  0.00    -0.065 NA
BRANCH  14  16
ATOM     16  C   UNL     1      20.437  10.109  26.270  0.00  0.00    +0.112 C 
ATOM     17  C   UNL     1      21.864  10.666  26.530  0.00  0.00    +0.045 C 
ATOM     18  C   UNL     1      22.197  10.986  27.997  0.00  0.00    +0.059 C 
ATOM     19  C   UNL     1      21.584  12.318  28.450  0.00  0.00    +0.020 C 
ATOM     20  C   UNL     1      20.274  11.928  29.134  0.00  0.00    +0.020 C 
ATOM     21  C   UNL     1      20.150  10.428  28.863  0.00  0.00    +0.059 C 
ATOM     22  N   UNL     1      21.562  10.064  28.930  0.00  0.00    -0.299 NA
ATOM     23  C   UNL     1      21.900   8.661  28.821  0.00  0.00    +0.105 C 
ATOM     24  C   UNL     1      19.489  10.181  27.505  0.00  0.00    +0.045 C 
ENDBRANCH  14  16
ENDBRANCH  10  12
ENDBRANCH   9  10
ENDBRANCH   5   9
ENDBRANCH   4   7
ENDBRANCH   1   4
BRANCH   1  25
ATOM     25  C   UNL     1      16.290   1.106  24.647  0.00  0.00    +0.175 C 
BRANCH  25  26
ATOM     26  C   UNL     1      17.481   0.589  23.827  0.00  0.00    +0.176 C 
ATOM     27  O   UNL     1      17.511   1.321  22.571  0.00  0.00    -0.332 OA
ATOM     28  C   UNL     1      18.652   1.034  21.696  0.00  0.00    +0.277 C 
ATOM     29  C   UNL     1      18.751  -0.486  21.418  0.00  0.00    +0.110 C 
ATOM     30  C   UNL     1      18.692  -1.308  22.722  0.00  0.00    +0.143 C 
ATOM     31  C   UNL     1      17.468  -0.927  23.556  0.00  0.00    +0.133 C 
BRANCH  31  32
ATOM     32  N   UNL     1      17.470  -1.654  24.835  0.00  0.00    -0.308 N 
ATOM     33  H   UNL     1      18.186  -1.422  25.509  0.00  0.00    +0.149 HD
ATOM     34  C   UNL     1      16.587  -2.601  25.164  0.00  0.00    +0.210 C 
ATOM     35  C   UNL     1      15.524  -2.950  24.105  0.00  0.00    +0.109 C 
ATOM     36  O   UNL     1      16.603  -3.183  26.249  0.00  0.00    -0.276 OA
ENDBRANCH  31  32
BRANCH  28  37
ATOM     37  C   UNL     1      19.967   1.529  22.333  0.00  0.00    +0.414 C 
ATOM     38  O   UNL     1      19.946   2.164  23.386  0.00  0.00    -0.240 OA
ATOM     39  O   UNL     1      21.049   1.293  21.793  0.00  0.00    -0.240 OA
ENDBRANCH  28  37
BRANCH  30  40
ATOM     40  O   UNL     1      18.634  -2.701  22.411  0.00  0.00    -0.390 OA
ATOM     41  H   UNL     1      19.120  -3.198  23.073  0.00  0.00    +0.210 HD
ENDBRANCH  30  40
BRANCH  28  42
ATOM     42  O   UNL     1      18.433   1.717  20.435  0.00  0.00    -0.343 OA
ATOM     43  C   UNL     1      17.057   1.737  19.980  0.00  0.00    +0.198 C 
ENDBRANCH  28  42
ENDBRANCH  25  26
BRANCH  25  44
ATOM     44  O   UNL     1      15.974   2.459  24.264  0.00  0.00    -0.387 OA
ATOM     45  H   UNL     1      15.723   2.962  25.043  0.00  0.00    +0.210 HD
ENDBRANCH  25  44
ENDBRANCH   1  25
TORSDOF 14
