REMARK VINA RESULT:    -6.303     14.874     16.859
REMARK INTER + INTRA:         -13.026
REMARK INTER:                  -9.827
REMARK INTRA:                  -3.199
REMARK UNBOUND:                -2.118
REMARK  Name = lig_assembled_7.pdb
REMARK  19 active torsions:
REMARK  status: ('A' for Active; 'I' for Inactive)
REMARK    1  A    between atoms: _2  and  _9
REMARK    2  A    between atoms: _4  and  _21
REMARK    3  A    between atoms: _5  and  _16
REMARK    4  A    between atoms: _6  and  _7
REMARK    5  A    between atoms: _6  and  _21
REMARK    6  A    between atoms: _10  and  _11
REMARK    7  A    between atoms: _13  and  _14
REMARK    8  A    between atoms: _17  and  _37
REMARK    9  A    between atoms: _19  and  _25
REMARK   10  A    between atoms: _20  and  _24
REMARK   11  A    between atoms: _24  and  _25
REMARK   12  A    between atoms: _27  and  _28
REMARK   13  A    between atoms: _29  and  _30
REMARK   14  A    between atoms: _31  and  _33
REMARK   15  A    between atoms: _33  and  _34
REMARK   16  A    between atoms: _33  and  _35
REMARK   17  A    between atoms: _35  and  _36
REMARK   18  A    between atoms: _35  and  _37
REMARK   19  A    between atoms: _38  and  _40
REMARK                            x       y       z     vdW  Elec       q    Type
REMARK                         _______ _______ _______ _____ _____    ______ ____
ROOT
ATOM      1  C   UNL     1      20.416   6.619  30.489  0.00  0.00    +0.163 C 
ENDROOT
BRANCH   1   2
ATOM      2  O   UNL     1      21.097   7.715  31.121  0.00  0.00    -0.388 OA
ATOM      3  H   UNL     1      21.508   8.266  30.450  0.00  0.00    +0.210 HD
ENDBRANCH   1   2
BRANCH   1   4
ATOM      4  C   UNL     1      21.289   5.369  30.528  0.00  0.00    +0.141 C 
BRANCH   4   7
ATOM      5  C   UNL     1      21.614   3.606  28.827  0.00  0.00    +0.401 C 
ATOM      6  O   UNL     1      21.338   2.682  29.597  0.00  0.00    -0.226 OA
ATOM      7  N   UNL     1      21.622   4.892  29.180  0.00  0.00    -0.279 N 
ATOM      8  H   UNL     1      21.871   5.577  28.480  0.00  0.00    +0.152 HD
BRANCH   5   9
ATOM      9  O   UNL     1      21.953   3.303  27.472  0.00  0.00    -0.444 OA
BRANCH   9  10
ATOM     10  C   UNL     1      21.501   4.359  26.619  0.00  0.00    +0.292 C 
BRANCH  10  12
ATOM     11  N   UNL     1      19.145   3.681  26.361  0.00  0.00    -0.131 NA
ATOM     12  C   UNL     1      20.364   3.903  25.799  0.00  0.00    +0.121 A 
ATOM     13  C   UNL     1      20.284   3.640  24.446  0.00  0.00    +0.143 A 
ATOM     14  N   UNL     1      18.991   3.208  24.233  0.00  0.00    -0.219 N 
ATOM     15  N   UNL     1      18.317   3.291  25.407  0.00  0.00    -0.060 NA
BRANCH  14  16
ATOM     16  C   UNL     1      18.369   2.748  23.027  0.00  0.00    +0.073 A 
ATOM     17  C   UNL     1      17.519   3.633  22.296  0.00  0.00    -0.024 A 
ATOM     18  C   UNL     1      16.903   3.189  21.107  0.00  0.00    +0.008 A 
ATOM     19  C   UNL     1      17.109   1.902  20.615  0.00  0.00    -0.050 A 
ATOM     20  C   UNL     1      16.440   1.464  19.347  0.00  0.00    +0.044 C 
ATOM     21  C   UNL     1      17.940   1.043  21.330  0.00  0.00    +0.008 A 
ATOM     22  C   UNL     1      17.253   5.074  22.674  0.00  0.00    +0.046 C 
ATOM     23  C   UNL     1      18.561   1.429  22.541  0.00  0.00    -0.024 A 
ATOM     24  C   UNL     1      19.314   0.311  23.217  0.00  0.00    +0.046 C 
ENDBRANCH  14  16
ENDBRANCH  10  12
ENDBRANCH   9  10
ENDBRANCH   5   9
ENDBRANCH   4   7
ENDBRANCH   1   4
BRANCH   1  25
ATOM     25  C   UNL     1      20.065   6.956  29.030  0.00  0.00    +0.175 C 
BRANCH  25  26
ATOM     26  C   UNL     1      19.756   8.448  28.840  0.00  0.00    +0.176 C 
ATOM     27  O   UNL     1      18.853   8.856  29.904  0.00  0.00    -0.332 OA
ATOM     28  C   UNL     1      18.528  10.285  29.946  0.00  0.00    +0.277 C 
ATOM     29  C   UNL     1      17.972  10.754  28.580  0.00  0.00    +0.110 C 
ATOM     30  C   UNL     1      18.882  10.316  27.413  0.00  0.00    +0.143 C 
ATOM     31  C   UNL     1      19.158   8.813  27.468  0.00  0.00    +0.133 C 
BRANCH  31  32
ATOM     32  N   UNL     1      20.096   8.422  26.404  0.00  0.00    -0.308 N 
ATOM     33  H   UNL     1      21.032   8.800  26.438  0.00  0.00    +0.149 HD
ATOM     34  C   UNL     1      19.790   7.600  25.396  0.00  0.00    +0.210 C 
ATOM     35  C   UNL     1      18.348   7.062  25.358  0.00  0.00    +0.109 C 
ATOM     36  O   UNL     1      20.601   7.278  24.526  0.00  0.00    -0.276 OA
ENDBRANCH  31  32
BRANCH  28  37
ATOM     37  C   UNL     1      19.774  11.119  30.310  0.00  0.00    +0.414 C 
ATOM     38  O   UNL     1      20.089  12.093  29.627  0.00  0.00    -0.240 OA
ATOM     39  O   UNL     1      20.464  10.818  31.285  0.00  0.00    -0.240 OA
ENDBRANCH  28  37
BRANCH  30  40
ATOM     40  O   UNL     1      18.258  10.635  26.169  0.00  0.00    -0.390 OA
ATOM     41  H   UNL     1      17.458  11.140  26.331  0.00  0.00    +0.210 HD
ENDBRANCH  30  40
BRANCH  28  42
ATOM     42  O   UNL     1      17.499  10.482  30.951  0.00  0.00    -0.343 OA
ATOM     43  C   UNL     1      17.374   9.409  31.917  0.00  0.00    +0.198 C 
ENDBRANCH  28  42
ENDBRANCH  25  26
BRANCH  25  44
ATOM     44  O   UNL     1      18.949   6.157  28.590  0.00  0.00    -0.387 OA
ATOM     45  H   UNL     1      19.010   6.015  27.642  0.00  0.00    +0.210 HD
ENDBRANCH  25  44
ENDBRANCH   1  25
TORSDOF 14
