REMARK VINA RESULT:    -6.779      0.000      0.000
REMARK INTER + INTRA:         -15.442
REMARK INTER:                 -13.487
REMARK INTRA:                  -1.955
REMARK UNBOUND:                -3.313
REMARK  Name = lig_assembled_71.pdb
REMARK  17 active torsions:
REMARK  status: ('A' for Active; 'I' for Inactive)
REMARK    1  A    between atoms: _2  and  _12
REMARK    2  A    between atoms: _7  and  _22
REMARK    3  A    between atoms: _9  and  _10
REMARK    4  A    between atoms: _9  and  _22
REMARK    5  A    between atoms: _12  and  _13
REMARK    6  A    between atoms: _18  and  _38
REMARK    7  A    between atoms: _20  and  _26
REMARK    8  A    between atoms: _21  and  _25
REMARK    9  A    between atoms: _25  and  _26
REMARK   10  A    between atoms: _28  and  _29
REMARK   11  A    between atoms: _30  and  _31
REMARK   12  A    between atoms: _32  and  _34
REMARK   13  A    between atoms: _34  and  _35
REMARK   14  A    between atoms: _34  and  _36
REMARK   15  A    between atoms: _36  and  _37
REMARK   16  A    between atoms: _36  and  _38
REMARK   17  A    between atoms: _39  and  _41
REMARK                            x       y       z     vdW  Elec       q    Type
REMARK                         _______ _______ _______ _____ _____    ______ ____
ROOT
ATOM      1  C   UNL     1       6.349   2.838  32.762  0.00  0.00    +0.163 C 
ENDROOT
BRANCH   1   2
ATOM      2  O   UNL     1       6.106   3.205  31.394  0.00  0.00    -0.388 OA
ATOM      3  H   UNL     1       6.878   2.995  30.864  0.00  0.00    +0.210 HD
ENDBRANCH   1   2
BRANCH   1   4
ATOM      4  C   UNL     1       5.103   3.097  33.602  0.00  0.00    +0.141 C 
BRANCH   4   7
ATOM      5  C   UNL     1       2.885   3.490  32.586  0.00  0.00    +0.401 C 
ATOM      6  O   UNL     1       2.449   2.374  32.878  0.00  0.00    -0.226 OA
ATOM      7  N   UNL     1       4.116   3.910  32.880  0.00  0.00    -0.279 N 
ATOM      8  H   UNL     1       4.385   4.840  32.590  0.00  0.00    +0.152 HD
BRANCH   5   9
ATOM      9  O   UNL     1       2.038   4.405  31.886  0.00  0.00    -0.444 OA
BRANCH   9  10
ATOM     10  C   UNL     1       0.763   3.798  31.659  0.00  0.00    +0.292 C 
BRANCH  10  12
ATOM     11  N   UNL     1       1.342   3.701  29.246  0.00  0.00    -0.131 NA
ATOM     12  C   UNL     1       0.404   3.878  30.231  0.00  0.00    +0.120 A 
ATOM     13  C   UNL     1      -0.817   4.116  29.645  0.00  0.00    +0.137 A 
ATOM     14  N   UNL     1      -0.558   4.088  28.306  0.00  0.00    -0.242 N 
ATOM     15  N   UNL     1       0.740   3.824  28.070  0.00  0.00    -0.065 NA
BRANCH  14  16
ATOM     16  C   UNL     1      -1.491   4.186  27.201  0.00  0.00    +0.241 C 
BRANCH  16  17
ATOM     17  C   UNL     1      -0.824   4.695  25.950  0.00  0.00    +0.241 C 
ATOM     18  O   UNL     1      -0.974   5.866  25.605  0.00  0.00    -0.273 OA
ATOM     19  N   UNL     1      -0.135   3.736  25.238  0.00  0.00    -0.253 N 
ATOM     20  H   UNL     1      -0.208   2.753  25.450  0.00  0.00    +0.158 HD
ATOM     21  C   UNL     1       0.571   3.998  24.069  0.00  0.00    +0.221 A 
ATOM     22  N   UNL     1       0.930   2.916  23.361  0.00  0.00    -0.223 NA
ATOM     23  C   UNL     1       1.550   3.154  22.185  0.00  0.00    +0.116 A 
ATOM     24  C   UNL     1       1.844   4.412  21.717  0.00  0.00    +0.039 A 
ATOM     25  C   UNL     1       1.476   5.443  22.540  0.00  0.00    +0.116 A 
ATOM     26  N   UNL     1       0.844   5.255  23.709  0.00  0.00    -0.223 NA
ENDBRANCH  16  17
ENDBRANCH  14  16
ENDBRANCH  10  12
ENDBRANCH   9  10
ENDBRANCH   5   9
ENDBRANCH   4   7
ENDBRANCH   1   4
BRANCH   1  27
ATOM     27  C   UNL     1       7.534   3.631  33.342  0.00  0.00    +0.175 C 
BRANCH  27  28
ATOM     28  C   UNL     1       7.232   4.177  34.745  0.00  0.00    +0.176 C 
ATOM     29  O   UNL     1       7.328   5.627  34.691  0.00  0.00    -0.332 OA
ATOM     30  C   UNL     1       6.966   6.332  35.924  0.00  0.00    +0.277 C 
ATOM     31  C   UNL     1       7.796   5.797  37.117  0.00  0.00    +0.110 C 
ATOM     32  C   UNL     1       7.750   4.257  37.197  0.00  0.00    +0.143 C 
ATOM     33  C   UNL     1       8.141   3.626  35.860  0.00  0.00    +0.133 C 
BRANCH  33  34
ATOM     34  N   UNL     1       8.010   2.162  35.923  0.00  0.00    -0.308 N 
ATOM     35  H   UNL     1       7.117   1.780  36.201  0.00  0.00    +0.149 HD
ATOM     36  C   UNL     1       8.993   1.305  35.635  0.00  0.00    +0.210 C 
ATOM     37  C   UNL     1      10.349   1.919  35.239  0.00  0.00    +0.109 C 
ATOM     38  O   UNL     1       8.850   0.083  35.683  0.00  0.00    -0.276 OA
ENDBRANCH  33  34
BRANCH  30  39
ATOM     39  C   UNL     1       5.463   6.168  36.227  0.00  0.00    +0.414 C 
ATOM     40  O   UNL     1       5.048   6.271  37.381  0.00  0.00    -0.240 OA
ATOM     41  O   UNL     1       4.665   5.934  35.319  0.00  0.00    -0.240 OA
ENDBRANCH  30  39
BRANCH  30  42
ATOM     42  O   UNL     1       7.278   7.738  35.744  0.00  0.00    -0.343 OA
ATOM     43  C   UNL     1       8.435   8.208  36.481  0.00  0.00    +0.198 C 
ENDBRANCH  30  42
BRANCH  32  44
ATOM     44  O   UNL     1       8.645   3.800  38.212  0.00  0.00    -0.390 OA
ATOM     45  H   UNL     1       8.143   3.408  38.930  0.00  0.00    +0.210 HD
ENDBRANCH  32  44
ENDBRANCH  27  28
BRANCH  27  46
ATOM     46  O   UNL     1       7.890   4.710  32.455  0.00  0.00    -0.387 OA
ATOM     47  H   UNL     1       8.474   4.380  31.768  0.00  0.00    +0.210 HD
ENDBRANCH  27  46
ENDBRANCH   1  27
TORSDOF 15
