REMARK VINA RESULT:    -6.263     12.604     16.243
REMARK INTER + INTRA:         -12.475
REMARK INTER:                 -10.356
REMARK INTRA:                  -2.119
REMARK UNBOUND:                -1.636
REMARK  Name = lig_assembled_52.pdb
REMARK  16 active torsions:
REMARK  status: ('A' for Active; 'I' for Inactive)
REMARK    1  A    between atoms: _2  and  _10
REMARK    2  A    between atoms: _5  and  _18
REMARK    3  A    between atoms: _7  and  _8
REMARK    4  A    between atoms: _7  and  _18
REMARK    5  A    between atoms: _14  and  _34
REMARK    6  A    between atoms: _16  and  _22
REMARK    7  A    between atoms: _17  and  _21
REMARK    8  A    between atoms: _21  and  _22
REMARK    9  A    between atoms: _24  and  _25
REMARK   10  A    between atoms: _26  and  _27
REMARK   11  A    between atoms: _28  and  _30
REMARK   12  A    between atoms: _30  and  _31
REMARK   13  A    between atoms: _30  and  _32
REMARK   14  A    between atoms: _32  and  _33
REMARK   15  A    between atoms: _32  and  _34
REMARK   16  A    between atoms: _35  and  _37
REMARK                            x       y       z     vdW  Elec       q    Type
REMARK                         _______ _______ _______ _____ _____    ______ ____
ROOT
ATOM      1  C   UNL     1      19.098   6.317  24.680  0.00  0.00    +0.163 C 
ENDROOT
BRANCH   1   2
ATOM      2  O   UNL     1      18.159   6.716  23.667  0.00  0.00    -0.388 OA
ATOM      3  H   UNL     1      17.269   6.496  23.951  0.00  0.00    +0.210 HD
ENDBRANCH   1   2
BRANCH   1   4
ATOM      4  C   UNL     1      20.031   7.477  25.013  0.00  0.00    +0.141 C 
BRANCH   4   7
ATOM      5  C   UNL     1      19.507   8.538  27.182  0.00  0.00    +0.401 C 
ATOM      6  O   UNL     1      18.672   9.313  26.708  0.00  0.00    -0.226 OA
ATOM      7  N   UNL     1      20.194   7.651  26.461  0.00  0.00    -0.279 N 
ATOM      8  H   UNL     1      20.864   7.064  26.939  0.00  0.00    +0.152 HD
BRANCH   5   9
ATOM      9  O   UNL     1      19.773   8.578  28.586  0.00  0.00    -0.444 OA
BRANCH   9  10
ATOM     10  C   UNL     1      19.144   9.727  29.159  0.00  0.00    +0.292 C 
BRANCH  10  12
ATOM     11  N   UNL     1      17.491  10.237  30.927  0.00  0.00    -0.131 NA
ATOM     12  C   UNL     1      18.298   9.332  30.301  0.00  0.00    +0.121 A 
ATOM     13  C   UNL     1      18.152   8.106  30.909  0.00  0.00    +0.143 A 
ATOM     14  N   UNL     1      17.220   8.308  31.900  0.00  0.00    -0.218 N 
ATOM     15  N   UNL     1      16.842   9.609  31.899  0.00  0.00    -0.060 NA
BRANCH  14  16
ATOM     16  C   UNL     1      16.675   7.371  32.803  0.00  0.00    +0.085 A 
ATOM     17  C   UNL     1      17.262   6.121  33.017  0.00  0.00    +0.031 A 
ATOM     18  C   UNL     1      16.663   5.231  33.907  0.00  0.00    +0.022 A 
ATOM     19  C   UNL     1      15.502   5.622  34.552  0.00  0.00    +0.111 A 
ATOM     20  N   UNL     1      14.916   6.825  34.372  0.00  0.00    -0.261 NA
ATOM     21  C   UNL     1      15.512   7.676  33.502  0.00  0.00    +0.138 A 
ENDBRANCH  14  16
ENDBRANCH  10  12
ENDBRANCH   9  10
ENDBRANCH   5   9
ENDBRANCH   4   7
ENDBRANCH   1   4
BRANCH   1  22
ATOM     22  C   UNL     1      19.927   5.108  24.216  0.00  0.00    +0.175 C 
BRANCH  22  23
ATOM     23  C   UNL     1      19.174   3.783  24.409  0.00  0.00    +0.176 C 
ATOM     24  O   UNL     1      18.052   3.767  23.484  0.00  0.00    -0.332 OA
ATOM     25  C   UNL     1      17.274   2.525  23.452  0.00  0.00    +0.277 C 
ATOM     26  C   UNL     1      16.786   2.155  24.874  0.00  0.00    +0.110 C 
ATOM     27  C   UNL     1      17.939   2.190  25.899  0.00  0.00    +0.143 C 
ATOM     28  C   UNL     1      18.681   3.525  25.845  0.00  0.00    +0.133 C 
BRANCH  28  29
ATOM     29  N   UNL     1      19.831   3.513  26.764  0.00  0.00    -0.308 N 
ATOM     30  H   UNL     1      20.622   2.933  26.523  0.00  0.00    +0.149 HD
ATOM     31  C   UNL     1      19.896   4.219  27.896  0.00  0.00    +0.210 C 
ATOM     32  C   UNL     1      18.664   5.073  28.249  0.00  0.00    +0.109 C 
ATOM     33  O   UNL     1      20.878   4.201  28.640  0.00  0.00    -0.276 OA
ENDBRANCH  28  29
BRANCH  25  34
ATOM     34  C   UNL     1      18.118   1.366  22.880  0.00  0.00    +0.414 C 
ATOM     35  O   UNL     1      19.164   1.600  22.276  0.00  0.00    -0.240 OA
ATOM     36  O   UNL     1      17.752   0.199  23.021  0.00  0.00    -0.240 OA
ENDBRANCH  25  34
BRANCH  27  37
ATOM     37  O   UNL     1      17.420   1.993  27.215  0.00  0.00    -0.390 OA
ATOM     38  H   UNL     1      17.239   2.845  27.619  0.00  0.00    +0.210 HD
ENDBRANCH  27  37
BRANCH  25  39
ATOM     39  O   UNL     1      16.112   2.744  22.612  0.00  0.00    -0.343 OA
ATOM     40  C   UNL     1      16.406   3.195  21.266  0.00  0.00    +0.198 C 
ENDBRANCH  25  39
ENDBRANCH  22  23
BRANCH  22  41
ATOM     41  O   UNL     1      21.186   5.070  24.917  0.00  0.00    -0.387 OA
ATOM     42  H   UNL     1      21.030   5.155  25.860  0.00  0.00    +0.210 HD
ENDBRANCH  22  41
ENDBRANCH   1  22
TORSDOF 14
