REMARK VINA RESULT:    -6.937     17.035     20.274
REMARK INTER + INTRA:         -13.999
REMARK INTER:                 -10.550
REMARK INTRA:                  -3.449
REMARK UNBOUND:                -1.992
REMARK  Name = lig_assembled_25.pdb
REMARK  16 active torsions:
REMARK  status: ('A' for Active; 'I' for Inactive)
REMARK    1  A    between atoms: _2  and  _9
REMARK    2  A    between atoms: _4  and  _25
REMARK    3  A    between atoms: _6  and  _7
REMARK    4  A    between atoms: _6  and  _25
REMARK    5  A    between atoms: _21  and  _41
REMARK    6  A    between atoms: _23  and  _29
REMARK    7  A    between atoms: _24  and  _28
REMARK    8  A    between atoms: _28  and  _29
REMARK    9  A    between atoms: _31  and  _32
REMARK   10  A    between atoms: _33  and  _34
REMARK   11  A    between atoms: _35  and  _37
REMARK   12  A    between atoms: _37  and  _38
REMARK   13  A    between atoms: _37  and  _39
REMARK   14  A    between atoms: _39  and  _40
REMARK   15  A    between atoms: _39  and  _41
REMARK   16  A    between atoms: _42  and  _44
REMARK                            x       y       z     vdW  Elec       q    Type
REMARK                         _______ _______ _______ _____ _____    ______ ____
ROOT
ATOM      1  C   UNL     1       2.172  23.661  38.323  0.00  0.00    +0.141 C 
ENDROOT
BRANCH   1   4
ATOM      2  C   UNL     1       0.947  23.208  40.420  0.00  0.00    +0.401 C 
ATOM      3  O   UNL     1       1.554  24.063  41.070  0.00  0.00    -0.226 OA
ATOM      4  N   UNL     1       1.176  22.949  39.132  0.00  0.00    -0.279 N 
ATOM      5  H   UNL     1       0.632  22.222  38.688  0.00  0.00    +0.152 HD
BRANCH   2   6
ATOM      6  O   UNL     1      -0.065  22.433  41.068  0.00  0.00    -0.444 OA
BRANCH   6   7
ATOM      7  C   UNL     1       0.546  21.509  41.972  0.00  0.00    +0.292 C 
BRANCH   7   9
ATOM      8  N   UNL     1       2.567  20.439  41.038  0.00  0.00    -0.131 NA
ATOM      9  C   UNL     1       1.212  20.423  41.226  0.00  0.00    +0.120 A 
ATOM     10  C   UNL     1       0.685  19.308  40.614  0.00  0.00    +0.138 A 
ATOM     11  N   UNL     1       1.767  18.691  40.052  0.00  0.00    -0.240 N 
ATOM     12  N   UNL     1       2.900  19.375  40.322  0.00  0.00    -0.064 NA
BRANCH  11  13
ATOM     13  C   UNL     1       1.832  17.523  39.189  0.00  0.00    +0.170 C 
ATOM     14  C   UNL     1       0.937  17.655  37.964  0.00  0.00    -0.011 A 
ATOM     15  C   UNL     1       0.044  16.562  37.900  0.00  0.00    -0.012 A 
ATOM     16  C   UNL     1       0.276  15.697  39.040  0.00  0.00    -0.012 A 
ATOM     17  C   UNL     1      -0.319  14.496  39.389  0.00  0.00    +0.009 A 
ATOM     18  C   UNL     1       0.125  13.845  40.544  0.00  0.00    +0.001 A 
ATOM     19  C   UNL     1       1.148  14.397  41.334  0.00  0.00    +0.000 A 
ATOM     20  C   UNL     1       1.750  15.609  40.984  0.00  0.00    +0.006 A 
ATOM     21  C   UNL     1      -0.856  16.452  36.854  0.00  0.00    +0.009 A 
ATOM     22  C   UNL     1      -0.857  17.445  35.869  0.00  0.00    +0.001 A 
ATOM     23  C   UNL     1       0.035  18.527  35.935  0.00  0.00    +0.000 A 
ATOM     24  C   UNL     1       0.946  18.640  36.987  0.00  0.00    +0.006 A 
ATOM     25  C   UNL     1       1.305  16.250  39.837  0.00  0.00    -0.011 A 
ENDBRANCH  11  13
ENDBRANCH   7   9
ENDBRANCH   6   7
ENDBRANCH   2   6
ENDBRANCH   1   4
BRANCH   1  26
ATOM     26  C   UNL     1       3.523  22.953  38.332  0.00  0.00    +0.163 C 
BRANCH  26  27
ATOM     27  O   UNL     1       3.332  21.529  38.326  0.00  0.00    -0.388 OA
ATOM     28  H   UNL     1       4.177  21.091  38.448  0.00  0.00    +0.210 HD
ENDBRANCH  26  27
BRANCH  26  29
ATOM     29  C   UNL     1       4.347  23.402  37.113  0.00  0.00    +0.175 C 
BRANCH  29  30
ATOM     30  C   UNL     1       5.338  22.322  36.655  0.00  0.00    +0.176 C 
ATOM     31  O   UNL     1       5.980  21.774  37.840  0.00  0.00    -0.332 OA
ATOM     32  C   UNL     1       6.889  20.648  37.604  0.00  0.00    +0.277 C 
ATOM     33  C   UNL     1       7.963  21.030  36.556  0.00  0.00    +0.110 C 
ATOM     34  C   UNL     1       7.330  21.647  35.291  0.00  0.00    +0.143 C 
ATOM     35  C   UNL     1       6.402  22.807  35.652  0.00  0.00    +0.133 C 
BRANCH  35  36
ATOM     36  N   UNL     1       5.739  23.330  34.447  0.00  0.00    -0.308 N 
ATOM     37  H   UNL     1       5.059  22.739  33.989  0.00  0.00    +0.149 HD
ATOM     38  C   UNL     1       5.975  24.534  33.921  0.00  0.00    +0.210 C 
ATOM     39  C   UNL     1       7.035  25.400  34.628  0.00  0.00    +0.109 C 
ATOM     40  O   UNL     1       5.394  24.952  32.919  0.00  0.00    -0.276 OA
ENDBRANCH  35  36
BRANCH  32  41
ATOM     41  C   UNL     1       6.110  19.409  37.116  0.00  0.00    +0.414 C 
ATOM     42  O   UNL     1       6.712  18.437  36.663  0.00  0.00    -0.240 OA
ATOM     43  O   UNL     1       4.880  19.381  37.176  0.00  0.00    -0.240 OA
ENDBRANCH  32  41
BRANCH  34  44
ATOM     44  O   UNL     1       8.359  22.121  34.421  0.00  0.00    -0.390 OA
ATOM     45  H   UNL     1       8.634  21.412  33.834  0.00  0.00    +0.210 HD
ENDBRANCH  34  44
BRANCH  32  46
ATOM     46  O   UNL     1       7.558  20.342  38.855  0.00  0.00    -0.343 OA
ATOM     47  C   UNL     1       8.836  21.002  39.042  0.00  0.00    +0.198 C 
ENDBRANCH  32  46
ENDBRANCH  29  30
BRANCH  29  48
ATOM     48  O   UNL     1       5.048  24.626  37.411  0.00  0.00    -0.387 OA
ATOM     49  H   UNL     1       4.417  25.345  37.491  0.00  0.00    +0.210 HD
ENDBRANCH  29  48
ENDBRANCH  26  29
ENDBRANCH   1  26
TORSDOF 14
