REMARK VINA RESULT:    -5.806      5.300      9.787
REMARK INTER + INTRA:         -12.641
REMARK INTER:                 -10.285
REMARK INTRA:                  -2.356
REMARK UNBOUND:                -2.083
REMARK  Name = lig_assembled_35.pdb
REMARK  19 active torsions:
REMARK  status: ('A' for Active; 'I' for Inactive)
REMARK    1  A    between atoms: _2  and  _9
REMARK    2  A    between atoms: _4  and  _17
REMARK    3  A    between atoms: _5  and  _9
REMARK    4  A    between atoms: _5  and  _11
REMARK    5  A    between atoms: _6  and  _7
REMARK    6  A    between atoms: _6  and  _17
REMARK    7  A    between atoms: _9  and  _10
REMARK    8  A    between atoms: _13  and  _33
REMARK    9  A    between atoms: _15  and  _21
REMARK   10  A    between atoms: _16  and  _20
REMARK   11  A    between atoms: _20  and  _21
REMARK   12  A    between atoms: _23  and  _24
REMARK   13  A    between atoms: _25  and  _26
REMARK   14  A    between atoms: _27  and  _29
REMARK   15  A    between atoms: _29  and  _30
REMARK   16  A    between atoms: _29  and  _31
REMARK   17  A    between atoms: _31  and  _32
REMARK   18  A    between atoms: _31  and  _33
REMARK   19  A    between atoms: _34  and  _36
REMARK                            x       y       z     vdW  Elec       q    Type
REMARK                         _______ _______ _______ _____ _____    ______ ____
ROOT
ATOM      1  C   UNL     1      19.455   4.811  25.159  0.00  0.00    +0.163 C 
ENDROOT
BRANCH   1   2
ATOM      2  O   UNL     1      18.275   4.861  25.979  0.00  0.00    -0.388 OA
ATOM      3  H   UNL     1      18.428   5.445  26.726  0.00  0.00    +0.210 HD
ENDBRANCH   1   2
BRANCH   1   4
ATOM      4  C   UNL     1      19.319   3.738  24.065  0.00  0.00    +0.175 C 
BRANCH   4   5
ATOM      5  C   UNL     1      18.424   2.572  24.507  0.00  0.00    +0.176 C 
ATOM      6  O   UNL     1      18.817   2.192  25.854  0.00  0.00    -0.332 OA
ATOM      7  C   UNL     1      17.995   1.155  26.486  0.00  0.00    +0.277 C 
ATOM      8  C   UNL     1      17.927  -0.103  25.586  0.00  0.00    +0.110 C 
ATOM      9  C   UNL     1      17.544   0.254  24.135  0.00  0.00    +0.143 C 
ATOM     10  C   UNL     1      18.460   1.344  23.578  0.00  0.00    +0.133 C 
BRANCH  10  11
ATOM     11  N   UNL     1      18.031   1.737  22.227  0.00  0.00    -0.308 N 
ATOM     12  H   UNL     1      17.151   2.225  22.135  0.00  0.00    +0.149 HD
ATOM     13  C   UNL     1      18.728   1.492  21.114  0.00  0.00    +0.210 C 
ATOM     14  C   UNL     1      20.052   0.724  21.285  0.00  0.00    +0.109 C 
ATOM     15  O   UNL     1      18.351   1.846  19.997  0.00  0.00    -0.276 OA
ENDBRANCH  10  11
BRANCH   7  16
ATOM     16  C   UNL     1      16.567   1.676  26.753  0.00  0.00    +0.414 C 
ATOM     17  O   UNL     1      15.593   0.959  26.526  0.00  0.00    -0.240 OA
ATOM     18  O   UNL     1      16.390   2.811  27.196  0.00  0.00    -0.240 OA
ENDBRANCH   7  16
BRANCH   7  19
ATOM     19  O   UNL     1      18.623   0.787  27.741  0.00  0.00    -0.343 OA
ATOM     20  C   UNL     1      19.694   1.665  28.170  0.00  0.00    +0.198 C 
ENDBRANCH   7  19
BRANCH   9  21
ATOM     21  O   UNL     1      17.640  -0.909  23.311  0.00  0.00    -0.390 OA
ATOM     22  H   UNL     1      18.468  -1.360  23.490  0.00  0.00    +0.210 HD
ENDBRANCH   9  21
ENDBRANCH   4   5
BRANCH   4  23
ATOM     23  O   UNL     1      20.621   3.249  23.685  0.00  0.00    -0.387 OA
ATOM     24  H   UNL     1      21.298   3.736  24.162  0.00  0.00    +0.210 HD
ENDBRANCH   4  23
ENDBRANCH   1   4
BRANCH   1  25
ATOM     25  C   UNL     1      19.698   6.171  24.513  0.00  0.00    +0.141 C 
BRANCH  25  28
ATOM     26  C   UNL     1      19.341   7.967  26.171  0.00  0.00    +0.401 C 
ATOM     27  O   UNL     1      18.114   7.966  26.049  0.00  0.00    -0.226 OA
ATOM     28  N   UNL     1      20.160   7.166  25.488  0.00  0.00    -0.279 N 
ATOM     29  H   UNL     1      21.153   7.249  25.651  0.00  0.00    +0.152 HD
BRANCH  26  30
ATOM     30  O   UNL     1      19.946   8.878  27.093  0.00  0.00    -0.444 OA
BRANCH  30  31
ATOM     31  C   UNL     1      20.025   8.269  28.384  0.00  0.00    +0.292 C 
BRANCH  31  33
ATOM     32  N   UNL     1      18.372  10.025  28.937  0.00  0.00    -0.131 NA
ATOM     33  C   UNL     1      19.075   8.912  29.313  0.00  0.00    +0.120 A 
ATOM     34  C   UNL     1      18.733   8.579  30.604  0.00  0.00    +0.138 A 
ATOM     35  N   UNL     1      17.806   9.517  30.953  0.00  0.00    -0.238 N 
ATOM     36  N   UNL     1      17.609  10.396  29.956  0.00  0.00    -0.065 NA
BRANCH  35  37
ATOM     37  C   UNL     1      17.082   9.686  32.198  0.00  0.00    +0.214 C 
ATOM     38  C   UNL     1      17.881   9.132  33.374  0.00  0.00    +0.045 C 
BRANCH  37  39
ATOM     39  C   UNL     1      16.677  11.130  32.412  0.00  0.00    +0.329 C 
ATOM     40  O   UNL     1      17.320  11.939  33.068  0.00  0.00    -0.249 OA
BRANCH  39  41
ATOM     41  O   UNL     1      15.500  11.473  31.832  0.00  0.00    -0.479 OA
ATOM     42  H   UNL     1      15.017  12.213  32.255  0.00  0.00    +0.295 HD
ENDBRANCH  39  41
ENDBRANCH  37  39
ENDBRANCH  35  37
ENDBRANCH  31  33
ENDBRANCH  30  31
ENDBRANCH  26  30
ENDBRANCH  25  28
ENDBRANCH   1  25
TORSDOF 16
