REMARK VINA RESULT:    -5.635      3.195      4.891
REMARK INTER + INTRA:         -13.485
REMARK INTER:                 -11.452
REMARK INTRA:                  -2.033
REMARK UNBOUND:                -3.239
REMARK  Name = lig_assembled_88.pdb
REMARK  18 active torsions:
REMARK  status: ('A' for Active; 'I' for Inactive)
REMARK    1  A    between atoms: _2  and  _9
REMARK    2  A    between atoms: _4  and  _20
REMARK    3  A    between atoms: _5  and  _15
REMARK    4  A    between atoms: _6  and  _7
REMARK    5  A    between atoms: _6  and  _20
REMARK    6  A    between atoms: _9  and  _10
REMARK    7  A    between atoms: _16  and  _36
REMARK    8  A    between atoms: _18  and  _24
REMARK    9  A    between atoms: _19  and  _23
REMARK   10  A    between atoms: _23  and  _24
REMARK   11  A    between atoms: _26  and  _27
REMARK   12  A    between atoms: _28  and  _29
REMARK   13  A    between atoms: _30  and  _32
REMARK   14  A    between atoms: _32  and  _33
REMARK   15  A    between atoms: _32  and  _34
REMARK   16  A    between atoms: _34  and  _35
REMARK   17  A    between atoms: _34  and  _36
REMARK   18  A    between atoms: _37  and  _39
REMARK                            x       y       z     vdW  Elec       q    Type
REMARK                         _______ _______ _______ _____ _____    ______ ____
ROOT
ATOM      1  C   UNL     1       8.128   1.985  34.015  0.00  0.00    +0.163 C 
ENDROOT
BRANCH   1   2
ATOM      2  O   UNL     1       8.436   1.498  32.699  0.00  0.00    -0.388 OA
ATOM      3  H   UNL     1       9.335   1.159  32.685  0.00  0.00    +0.210 HD
ENDBRANCH   1   2
BRANCH   1   4
ATOM      4  C   UNL     1       8.535   3.461  34.165  0.00  0.00    +0.175 C 
BRANCH   4   5
ATOM      5  C   UNL     1       7.954   4.094  35.438  0.00  0.00    +0.176 C 
ATOM      6  O   UNL     1       7.376   5.378  35.075  0.00  0.00    -0.332 OA
ATOM      7  C   UNL     1       6.676   6.085  36.151  0.00  0.00    +0.277 C 
ATOM      8  C   UNL     1       7.604   6.258  37.378  0.00  0.00    +0.110 C 
ATOM      9  C   UNL     1       8.267   4.924  37.783  0.00  0.00    +0.143 C 
ATOM     10  C   UNL     1       8.964   4.273  36.587  0.00  0.00    +0.133 C 
BRANCH  10  11
ATOM     11  N   UNL     1       9.516   2.962  36.964  0.00  0.00    -0.308 N 
ATOM     12  H   UNL     1       8.866   2.227  37.203  0.00  0.00    +0.149 HD
ATOM     13  C   UNL     1      10.821   2.681  37.011  0.00  0.00    +0.210 C 
ATOM     14  C   UNL     1      11.787   3.830  36.666  0.00  0.00    +0.109 C 
ATOM     15  O   UNL     1      11.255   1.570  37.316  0.00  0.00    -0.276 OA
ENDBRANCH  10  11
BRANCH   7  16
ATOM     16  C   UNL     1       5.403   5.321  36.570  0.00  0.00    +0.414 C 
ATOM     17  O   UNL     1       4.891   5.526  37.670  0.00  0.00    -0.240 OA
ATOM     18  O   UNL     1       4.890   4.500  35.810  0.00  0.00    -0.240 OA
ENDBRANCH   7  16
BRANCH   7  19
ATOM     19  O   UNL     1       6.316   7.403  35.662  0.00  0.00    -0.343 OA
ATOM     20  C   UNL     1       6.105   7.488  34.230  0.00  0.00    +0.198 C 
ENDBRANCH   7  19
BRANCH   9  21
ATOM     21  O   UNL     1       9.225   5.156  38.816  0.00  0.00    -0.390 OA
ATOM     22  H   UNL     1       8.823   4.984  39.671  0.00  0.00    +0.210 HD
ENDBRANCH   9  21
ENDBRANCH   4   5
BRANCH   4  23
ATOM     23  O   UNL     1       8.123   4.210  33.005  0.00  0.00    -0.387 OA
ATOM     24  H   UNL     1       8.262   3.681  32.216  0.00  0.00    +0.210 HD
ENDBRANCH   4  23
ENDBRANCH   1   4
BRANCH   1  25
ATOM     25  C   UNL     1       6.635   1.838  34.289  0.00  0.00    +0.141 C 
BRANCH  25  28
ATOM     26  C   UNL     1       5.376   2.118  32.181  0.00  0.00    +0.401 C 
ATOM     27  O   UNL     1       5.602   0.972  31.784  0.00  0.00    -0.226 OA
ATOM     28  N   UNL     1       5.825   2.609  33.337  0.00  0.00    -0.279 N 
ATOM     29  H   UNL     1       5.596   3.564  33.570  0.00  0.00    +0.152 HD
BRANCH  26  30
ATOM     30  O   UNL     1       4.591   2.993  31.366  0.00  0.00    -0.444 OA
BRANCH  30  31
ATOM     31  C   UNL     1       3.327   3.224  31.994  0.00  0.00    +0.292 C 
BRANCH  31  33
ATOM     32  N   UNL     1       1.401   4.495  31.096  0.00  0.00    -0.131 NA
ATOM     33  C   UNL     1       2.281   3.451  30.979  0.00  0.00    +0.120 A 
ATOM     34  C   UNL     1       1.982   2.735  29.841  0.00  0.00    +0.137 A 
ATOM     35  N   UNL     1       0.866   3.350  29.353  0.00  0.00    -0.247 N 
ATOM     36  N   UNL     1       0.550   4.437  30.081  0.00  0.00    -0.065 NA
BRANCH  35  37
ATOM     37  C   UNL     1       0.015   2.923  28.253  0.00  0.00    +0.184 C 
BRANCH  37  38
ATOM     38  C   UNL     1       0.764   2.770  26.944  0.00  0.00    +0.017 A 
ATOM     39  C   UNL     1       1.423   1.578  26.585  0.00  0.00    +0.024 A 
ATOM     40  C   UNL     1       2.104   1.472  25.369  0.00  0.00    +0.019 A 
ATOM     41 BR   UNL     1       3.019  -0.128  24.945  0.00  0.00    -0.050 Br
ATOM     42  C   UNL     1       2.120   2.532  24.468  0.00  0.00    +0.034 A 
ATOM     43  C   UNL     1       1.434   3.700  24.787  0.00  0.00    +0.061 A 
ATOM     44 BR   UNL     1       1.428   5.127  23.540  0.00  0.00    -0.046 Br
ATOM     45  C   UNL     1       0.759   3.816  26.010  0.00  0.00    +0.136 A 
BRANCH  45  46
ATOM     46  O   UNL     1       0.067   4.955  26.328  0.00  0.00    -0.505 OA
ATOM     47  H   UNL     1      -0.063   4.961  27.295  0.00  0.00    +0.292 HD
ENDBRANCH  45  46
ENDBRANCH  37  38
ENDBRANCH  35  37
ENDBRANCH  31  33
ENDBRANCH  30  31
ENDBRANCH  26  30
ENDBRANCH  25  28
ENDBRANCH   1  25
TORSDOF 16
