REMARK VINA RESULT:    -5.737     11.613     14.617
REMARK INTER + INTRA:         -13.093
REMARK INTER:                 -11.540
REMARK INTRA:                  -1.553
REMARK UNBOUND:                -2.326
REMARK  Name = lig_assembled_32.pdb
REMARK  19 active torsions:
REMARK  status: ('A' for Active; 'I' for Inactive)
REMARK    1  A    between atoms: _2  and  _9
REMARK    2  A    between atoms: _4  and  _17
REMARK    3  A    between atoms: _5  and  _10
REMARK    4  A    between atoms: _5  and  _11
REMARK    5  A    between atoms: _6  and  _7
REMARK    6  A    between atoms: _6  and  _17
REMARK    7  A    between atoms: _9  and  _10
REMARK    8  A    between atoms: _13  and  _33
REMARK    9  A    between atoms: _15  and  _21
REMARK   10  A    between atoms: _16  and  _20
REMARK   11  A    between atoms: _20  and  _21
REMARK   12  A    between atoms: _23  and  _24
REMARK   13  A    between atoms: _25  and  _26
REMARK   14  A    between atoms: _27  and  _29
REMARK   15  A    between atoms: _29  and  _30
REMARK   16  A    between atoms: _29  and  _31
REMARK   17  A    between atoms: _31  and  _32
REMARK   18  A    between atoms: _31  and  _33
REMARK   19  A    between atoms: _34  and  _36
REMARK                            x       y       z     vdW  Elec       q    Type
REMARK                         _______ _______ _______ _____ _____    ______ ____
ROOT
ATOM      1  C   UNL     1      16.570   1.100  26.213  0.00  0.00    +0.163 C 
ENDROOT
BRANCH   1   2
ATOM      2  O   UNL     1      15.620   0.236  26.860  0.00  0.00    -0.388 OA
ATOM      3  H   UNL     1      15.523   0.498  27.779  0.00  0.00    +0.210 HD
ENDBRANCH   1   2
BRANCH   1   4
ATOM      4  C   UNL     1      16.298   1.182  24.701  0.00  0.00    +0.175 C 
BRANCH   4   5
ATOM      5  C   UNL     1      17.469   0.635  23.873  0.00  0.00    +0.176 C 
ATOM      6  O   UNL     1      17.505   1.362  22.614  0.00  0.00    -0.332 OA
ATOM      7  C   UNL     1      18.631   1.045  21.730  0.00  0.00    +0.277 C 
ATOM      8  C   UNL     1      18.693  -0.477  21.457  0.00  0.00    +0.110 C 
ATOM      9  C   UNL     1      18.627  -1.294  22.765  0.00  0.00    +0.143 C 
ATOM     10  C   UNL     1      17.420  -0.881  23.609  0.00  0.00    +0.133 C 
BRANCH  10  11
ATOM     11  N   UNL     1      17.416  -1.604  24.890  0.00  0.00    -0.308 N 
ATOM     12  H   UNL     1      18.116  -1.354  25.575  0.00  0.00    +0.149 HD
ATOM     13  C   UNL     1      16.548  -2.568  25.208  0.00  0.00    +0.210 C 
ATOM     14  C   UNL     1      15.511  -2.944  24.134  0.00  0.00    +0.109 C 
ATOM     15  O   UNL     1      16.560  -3.146  26.296  0.00  0.00    -0.276 OA
ENDBRANCH  10  11
BRANCH   7  16
ATOM     16  C   UNL     1      19.963   1.512  22.354  0.00  0.00    +0.414 C 
ATOM     17  O   UNL     1      21.029   1.282  21.784  0.00  0.00    -0.240 OA
ATOM     18  O   UNL     1      19.972   2.120  23.425  0.00  0.00    -0.240 OA
ENDBRANCH   7  16
BRANCH   7  19
ATOM     19  O   UNL     1      18.417   1.728  20.468  0.00  0.00    -0.343 OA
ATOM     20  C   UNL     1      17.038   1.767  20.019  0.00  0.00    +0.198 C 
ENDBRANCH   7  19
BRANCH   9  21
ATOM     21  O   UNL     1      18.534  -2.686  22.460  0.00  0.00    -0.390 OA
ATOM     22  H   UNL     1      19.335  -2.970  22.014  0.00  0.00    +0.210 HD
ENDBRANCH   9  21
ENDBRANCH   4   5
BRANCH   4  23
ATOM     23  O   UNL     1      16.013   2.543  24.321  0.00  0.00    -0.387 OA
ATOM     24  H   UNL     1      16.472   3.143  24.913  0.00  0.00    +0.210 HD
ENDBRANCH   4  23
ENDBRANCH   1   4
BRANCH   1  25
ATOM     25  C   UNL     1      16.501   2.497  26.820  0.00  0.00    +0.141 C 
BRANCH  25  28
ATOM     26  C   UNL     1      18.549   3.515  27.755  0.00  0.00    +0.401 C 
ATOM     27  O   UNL     1      18.259   3.251  28.925  0.00  0.00    -0.226 OA
ATOM     28  N   UNL     1      17.782   3.205  26.709  0.00  0.00    -0.279 N 
ATOM     29  H   UNL     1      18.100   3.473  25.788  0.00  0.00    +0.152 HD
BRANCH  26  30
ATOM     30  O   UNL     1      19.774   4.199  27.481  0.00  0.00    -0.444 OA
BRANCH  30  31
ATOM     31  C   UNL     1      19.625   4.992  26.300  0.00  0.00    +0.292 C 
BRANCH  31  33
ATOM     32  N   UNL     1      20.391   6.793  27.814  0.00  0.00    -0.131 NA
ATOM     33  C   UNL     1      19.884   6.412  26.600  0.00  0.00    +0.120 A 
ATOM     34  C   UNL     1      19.691   7.532  25.821  0.00  0.00    +0.137 A 
ATOM     35  N   UNL     1      20.087   8.558  26.623  0.00  0.00    -0.251 N 
ATOM     36  N   UNL     1      20.509   8.113  27.819  0.00  0.00    -0.065 NA
BRANCH  35  37
ATOM     37  C   UNL     1      20.101   9.973  26.327  0.00  0.00    +0.156 C 
BRANCH  37  38
ATOM     38  C   UNL     1      19.649  10.810  27.516  0.00  0.00    +0.143 C 
BRANCH  38  39
ATOM     39  C   UNL     1      18.157  10.731  27.668  0.00  0.00    +0.306 C 
ATOM     40  O   UNL     1      17.564  10.724  28.735  0.00  0.00    -0.251 OA
BRANCH  39  41
ATOM     41  O   UNL     1      17.515  10.654  26.481  0.00  0.00    -0.481 OA
ATOM     42  H   UNL     1      17.854  11.267  25.800  0.00  0.00    +0.295 HD
ENDBRANCH  39  41
ENDBRANCH  38  39
ENDBRANCH  37  38
ENDBRANCH  35  37
ENDBRANCH  31  33
ENDBRANCH  30  31
ENDBRANCH  26  30
ENDBRANCH  25  28
ENDBRANCH   1  25
TORSDOF 17
