REMARK VINA RESULT:    -5.536     14.306     17.798
REMARK INTER + INTRA:         -12.646
REMARK INTER:                 -10.475
REMARK INTRA:                  -2.172
REMARK UNBOUND:                -2.094
REMARK  Name = lig_assembled_19.pdb
REMARK  20 active torsions:
REMARK  status: ('A' for Active; 'I' for Inactive)
REMARK    1  A    between atoms: _2  and  _9
REMARK    2  A    between atoms: _4  and  _18
REMARK    3  A    between atoms: _5  and  _11
REMARK    4  A    between atoms: _6  and  _7
REMARK    5  A    between atoms: _6  and  _18
REMARK    6  A    between atoms: _9  and  _10
REMARK    7  A    between atoms: _10  and  _13
REMARK    8  A    between atoms: _11  and  _13
REMARK    9  A    between atoms: _14  and  _34
REMARK   10  A    between atoms: _16  and  _22
REMARK   11  A    between atoms: _17  and  _21
REMARK   12  A    between atoms: _21  and  _22
REMARK   13  A    between atoms: _24  and  _25
REMARK   14  A    between atoms: _26  and  _27
REMARK   15  A    between atoms: _28  and  _30
REMARK   16  A    between atoms: _30  and  _31
REMARK   17  A    between atoms: _30  and  _32
REMARK   18  A    between atoms: _32  and  _33
REMARK   19  A    between atoms: _32  and  _34
REMARK   20  A    between atoms: _35  and  _37
REMARK                            x       y       z     vdW  Elec       q    Type
REMARK                         _______ _______ _______ _____ _____    ______ ____
ROOT
ATOM      1  C   UNL     1      17.047   1.757  27.232  0.00  0.00    +0.163 C 
ENDROOT
BRANCH   1   2
ATOM      2  O   UNL     1      16.481   2.983  26.742  0.00  0.00    -0.388 OA
ATOM      3  H   UNL     1      15.962   2.804  25.954  0.00  0.00    +0.210 HD
ENDBRANCH   1   2
BRANCH   1   4
ATOM      4  C   UNL     1      16.667   0.574  26.324  0.00  0.00    +0.175 C 
BRANCH   4   5
ATOM      5  C   UNL     1      17.425   0.603  24.989  0.00  0.00    +0.176 C 
ATOM      6  O   UNL     1      16.893   1.700  24.197  0.00  0.00    -0.332 OA
ATOM      7  C   UNL     1      17.573   1.950  22.922  0.00  0.00    +0.277 C 
ATOM      8  C   UNL     1      17.612   0.658  22.068  0.00  0.00    +0.110 C 
ATOM      9  C   UNL     1      18.141  -0.544  22.878  0.00  0.00    +0.143 C 
ATOM     10  C   UNL     1      17.366  -0.709  24.185  0.00  0.00    +0.133 C 
BRANCH  10  11
ATOM     11  N   UNL     1      17.935  -1.803  24.988  0.00  0.00    -0.308 N 
ATOM     12  H   UNL     1      18.898  -1.719  25.284  0.00  0.00    +0.149 HD
ATOM     13  C   UNL     1      17.264  -2.899  25.350  0.00  0.00    +0.210 C 
ATOM     14  C   UNL     1      15.808  -3.010  24.860  0.00  0.00    +0.109 C 
ATOM     15  O   UNL     1      17.763  -3.793  26.035  0.00  0.00    -0.276 OA
ENDBRANCH  10  11
BRANCH   7  16
ATOM     16  C   UNL     1      19.011   2.455  23.158  0.00  0.00    +0.414 C 
ATOM     17  O   UNL     1      19.229   3.341  23.984  0.00  0.00    -0.240 OA
ATOM     18  O   UNL     1      19.953   1.977  22.525  0.00  0.00    -0.240 OA
ENDBRANCH   7  16
BRANCH   9  19
ATOM     19  O   UNL     1      18.019  -1.738  22.104  0.00  0.00    -0.390 OA
ATOM     20  H   UNL     1      17.729  -1.516  21.216  0.00  0.00    +0.210 HD
ENDBRANCH   9  19
BRANCH   7  21
ATOM     21  O   UNL     1      16.816   2.953  22.198  0.00  0.00    -0.343 OA
ATOM     22  C   UNL     1      16.501   2.611  20.825  0.00  0.00    +0.198 C 
ENDBRANCH   7  21
ENDBRANCH   4   5
BRANCH   4  23
ATOM     23  O   UNL     1      15.245   0.567  26.088  0.00  0.00    -0.387 OA
ATOM     24  H   UNL     1      14.991  -0.269  25.690  0.00  0.00    +0.210 HD
ENDBRANCH   4  23
ENDBRANCH   1   4
BRANCH   1  25
ATOM     25  C   UNL     1      18.566   1.876  27.304  0.00  0.00    +0.141 C 
BRANCH  25  28
ATOM     26  C   UNL     1      19.971   3.907  27.376  0.00  0.00    +0.401 C 
ATOM     27  O   UNL     1      20.524   3.602  28.435  0.00  0.00    -0.226 OA
ATOM     28  N   UNL     1      19.040   3.163  26.779  0.00  0.00    -0.279 N 
ATOM     29  H   UNL     1      18.637   3.503  25.917  0.00  0.00    +0.152 HD
BRANCH  26  30
ATOM     30  O   UNL     1      20.331   5.133  26.733  0.00  0.00    -0.444 OA
BRANCH  30  31
ATOM     31  C   UNL     1      19.159   5.925  26.522  0.00  0.00    +0.292 C 
BRANCH  31  33
ATOM     32  N   UNL     1      19.243   8.370  26.918  0.00  0.00    -0.131 NA
ATOM     33  C   UNL     1      19.161   7.095  27.418  0.00  0.00    +0.120 A 
ATOM     34  C   UNL     1      19.087   7.156  28.791  0.00  0.00    +0.137 A 
ATOM     35  N   UNL     1      19.142   8.490  29.062  0.00  0.00    -0.248 N 
ATOM     36  N   UNL     1      19.230   9.218  27.938  0.00  0.00    -0.065 NA
BRANCH  35  37
ATOM     37  C   UNL     1      19.101   9.136  30.356  0.00  0.00    +0.186 C 
BRANCH  37  38
ATOM     38  C   UNL     1      18.025  10.215  30.418  0.00  0.00    +0.255 C 
BRANCH  38  39
ATOM     39  O   UNL     1      18.123  11.014  31.613  0.00  0.00    -0.463 OA
BRANCH  39  40
ATOM     40  C   UNL     1      17.070  10.937  32.470  0.00  0.00    +0.304 C 
ATOM     41  O   UNL     1      16.101  10.206  32.321  0.00  0.00    -0.251 OA
ATOM     42  C   UNL     1      17.268  11.844  33.645  0.00  0.00    +0.136 C 
ENDBRANCH  39  40
ENDBRANCH  38  39
ENDBRANCH  37  38
ENDBRANCH  35  37
ENDBRANCH  31  33
ENDBRANCH  30  31
ENDBRANCH  26  30
ENDBRANCH  25  28
ENDBRANCH   1  25
TORSDOF 17
