REMARK VINA RESULT:    -5.177      3.304      6.074
REMARK INTER + INTRA:         -12.719
REMARK INTER:                 -10.939
REMARK INTRA:                  -1.780
REMARK UNBOUND:                -3.154
REMARK  Name = lig_assembled_67.pdb
REMARK  18 active torsions:
REMARK  status: ('A' for Active; 'I' for Inactive)
REMARK    1  A    between atoms: _2  and  _9
REMARK    2  A    between atoms: _4  and  _19
REMARK    3  A    between atoms: _6  and  _7
REMARK    4  A    between atoms: _6  and  _19
REMARK    5  A    between atoms: _9  and  _10
REMARK    6  A    between atoms: _10  and  _11
REMARK    7  A    between atoms: _15  and  _35
REMARK    8  A    between atoms: _17  and  _23
REMARK    9  A    between atoms: _18  and  _22
REMARK   10  A    between atoms: _22  and  _23
REMARK   11  A    between atoms: _25  and  _26
REMARK   12  A    between atoms: _27  and  _28
REMARK   13  A    between atoms: _29  and  _31
REMARK   14  A    between atoms: _31  and  _32
REMARK   15  A    between atoms: _31  and  _33
REMARK   16  A    between atoms: _33  and  _34
REMARK   17  A    between atoms: _33  and  _35
REMARK   18  A    between atoms: _36  and  _38
REMARK                            x       y       z     vdW  Elec       q    Type
REMARK                         _______ _______ _______ _____ _____    ______ ____
ROOT
ATOM      1  C   UNL     1       7.431   2.464  34.420  0.00  0.00    +0.163 C 
ENDROOT
BRANCH   1   2
ATOM      2  O   UNL     1       7.828   2.397  35.799  0.00  0.00    -0.388 OA
ATOM      3  H   UNL     1       8.759   2.618  35.877  0.00  0.00    +0.210 HD
ENDBRANCH   1   2
BRANCH   1   4
ATOM      4  C   UNL     1       7.811   3.822  33.804  0.00  0.00    +0.175 C 
BRANCH   4   5
ATOM      5  C   UNL     1       7.184   4.998  34.567  0.00  0.00    +0.176 C 
ATOM      6  O   UNL     1       7.898   5.148  35.825  0.00  0.00    -0.332 OA
ATOM      7  C   UNL     1       7.503   6.296  36.646  0.00  0.00    +0.277 C 
ATOM      8  C   UNL     1       5.977   6.274  36.909  0.00  0.00    +0.110 C 
ATOM      9  C   UNL     1       5.176   6.085  35.603  0.00  0.00    +0.143 C 
ATOM     10  C   UNL     1       5.672   4.864  34.828  0.00  0.00    +0.133 C 
BRANCH  10  11
ATOM     11  N   UNL     1       4.961   4.745  33.545  0.00  0.00    -0.308 N 
ATOM     12  H   UNL     1       5.164   5.427  32.828  0.00  0.00    +0.149 HD
ATOM     13  C   UNL     1       4.064   3.795  33.267  0.00  0.00    +0.210 C 
ATOM     14  C   UNL     1       3.757   2.786  34.390  0.00  0.00    +0.109 C 
ATOM     15  O   UNL     1       3.494   3.711  32.178  0.00  0.00    -0.276 OA
ENDBRANCH  10  11
BRANCH   7  16
ATOM     16  C   UNL     1       7.887   7.621  35.954  0.00  0.00    +0.414 C 
ATOM     17  O   UNL     1       8.218   8.597  36.625  0.00  0.00    -0.240 OA
ATOM     18  O   UNL     1       7.866   7.712  34.726  0.00  0.00    -0.240 OA
ENDBRANCH   7  16
BRANCH   9  19
ATOM     19  O   UNL     1       3.791   5.918  35.908  0.00  0.00    -0.390 OA
ATOM     20  H   UNL     1       3.648   6.068  36.845  0.00  0.00    +0.210 HD
ENDBRANCH   9  19
BRANCH   7  21
ATOM     21  O   UNL     1       8.188   6.194  37.920  0.00  0.00    -0.343 OA
ATOM     22  C   UNL     1       9.294   5.257  37.947  0.00  0.00    +0.198 C 
ENDBRANCH   7  21
ENDBRANCH   4   5
BRANCH   4  23
ATOM     23  O   UNL     1       7.422   3.865  32.417  0.00  0.00    -0.387 OA
ATOM     24  H   UNL     1       6.511   3.573  32.331  0.00  0.00    +0.210 HD
ENDBRANCH   4  23
ENDBRANCH   1   4
BRANCH   1  25
ATOM     25  C   UNL     1       8.097   1.342  33.630  0.00  0.00    +0.141 C 
BRANCH  25  28
ATOM     26  C   UNL     1       6.174   0.455  32.358  0.00  0.00    +0.401 C 
ATOM     27  O   UNL     1       5.971   1.508  31.748  0.00  0.00    -0.226 OA
ATOM     28  N   UNL     1       7.142   0.291  33.260  0.00  0.00    -0.279 N 
ATOM     29  H   UNL     1       7.222  -0.607  33.715  0.00  0.00    +0.152 HD
BRANCH  26  30
ATOM     30  O   UNL     1       5.329  -0.669  32.102  0.00  0.00    -0.444 OA
BRANCH  30  31
ATOM     31  C   UNL     1       5.606  -1.188  30.798  0.00  0.00    +0.292 C 
BRANCH  31  33
ATOM     32  N   UNL     1       4.524  -1.294  28.575  0.00  0.00    -0.131 NA
ATOM     33  C   UNL     1       4.549  -0.789  29.850  0.00  0.00    +0.120 A 
ATOM     34  C   UNL     1       3.488   0.072  30.012  0.00  0.00    +0.137 A 
ATOM     35  N   UNL     1       2.859   0.050  28.804  0.00  0.00    -0.251 N 
ATOM     36  N   UNL     1       3.483  -0.769  27.943  0.00  0.00    -0.065 NA
BRANCH  35  37
ATOM     37  C   UNL     1       1.666   0.763  28.403  0.00  0.00    +0.150 C 
BRANCH  37  38
ATOM     38  C   UNL     1       1.572   2.172  28.982  0.00  0.00    +0.084 C 
BRANCH  38  39
ATOM     39  C   UNL     1       1.673   3.249  27.912  0.00  0.00    +0.252 C 
ATOM     40  O   UNL     1       1.974   2.658  26.643  0.00  0.00    -0.349 OA
ATOM     41  C   UNL     1       1.372   3.557  25.714  0.00  0.00    +0.191 C 
ATOM     42  C   UNL     1       0.117   3.999  26.422  0.00  0.00    +0.191 C 
ATOM     43  O   UNL     1       0.442   3.973  27.813  0.00  0.00    -0.349 OA
ENDBRANCH  38  39
ENDBRANCH  37  38
ENDBRANCH  35  37
ENDBRANCH  31  33
ENDBRANCH  30  31
ENDBRANCH  26  30
ENDBRANCH  25  28
ENDBRANCH   1  25
TORSDOF 16
