REMARK VINA RESULT:    -6.198     17.422     20.496
REMARK INTER + INTRA:         -13.023
REMARK INTER:                 -10.356
REMARK INTRA:                  -2.667
REMARK UNBOUND:                -1.933
REMARK  Name = lig_assembled_39.pdb
REMARK  17 active torsions:
REMARK  status: ('A' for Active; 'I' for Inactive)
REMARK    1  A    between atoms: _2  and  _9
REMARK    2  A    between atoms: _4  and  _19
REMARK    3  A    between atoms: _6  and  _7
REMARK    4  A    between atoms: _6  and  _19
REMARK    5  A    between atoms: _9  and  _10
REMARK    6  A    between atoms: _15  and  _35
REMARK    7  A    between atoms: _17  and  _23
REMARK    8  A    between atoms: _18  and  _22
REMARK    9  A    between atoms: _22  and  _23
REMARK   10  A    between atoms: _25  and  _26
REMARK   11  A    between atoms: _27  and  _28
REMARK   12  A    between atoms: _29  and  _31
REMARK   13  A    between atoms: _31  and  _32
REMARK   14  A    between atoms: _31  and  _33
REMARK   15  A    between atoms: _33  and  _34
REMARK   16  A    between atoms: _33  and  _35
REMARK   17  A    between atoms: _36  and  _38
REMARK                            x       y       z     vdW  Elec       q    Type
REMARK                         _______ _______ _______ _____ _____    ______ ____
ROOT
ATOM      1  C   UNL     1      -1.994   3.513  22.786  0.00  0.00    +0.163 C 
ENDROOT
BRANCH   1   2
ATOM      2  O   UNL     1      -2.955   2.666  22.136  0.00  0.00    -0.388 OA
ATOM      3  H   UNL     1      -3.379   2.103  22.788  0.00  0.00    +0.210 HD
ENDBRANCH   1   2
BRANCH   1   4
ATOM      4  C   UNL     1      -2.617   4.159  24.020  0.00  0.00    +0.141 C 
BRANCH   4   7
ATOM      5  C   UNL     1      -1.055   4.878  25.794  0.00  0.00    +0.401 C 
ATOM      6  O   UNL     1      -0.952   6.030  25.367  0.00  0.00    -0.226 OA
ATOM      7  N   UNL     1      -1.806   3.935  25.223  0.00  0.00    -0.279 N 
ATOM      8  H   UNL     1      -1.818   3.016  25.642  0.00  0.00    +0.152 HD
BRANCH   5   9
ATOM      9  O   UNL     1      -0.329   4.505  26.969  0.00  0.00    -0.444 OA
BRANCH   9  10
ATOM     10  C   UNL     1      -0.564   3.124  27.257  0.00  0.00    +0.292 C 
BRANCH  10  12
ATOM     11  N   UNL     1       1.565   3.374  28.496  0.00  0.00    -0.131 NA
ATOM     12  C   UNL     1       0.543   2.571  28.059  0.00  0.00    +0.120 A 
ATOM     13  C   UNL     1       0.754   1.287  28.508  0.00  0.00    +0.137 A 
ATOM     14  N   UNL     1       1.873   1.392  29.280  0.00  0.00    -0.247 N 
ATOM     15  N   UNL     1       2.392   2.633  29.221  0.00  0.00    -0.065 NA
BRANCH  14  16
ATOM     16  C   UNL     1       2.460   0.382  30.149  0.00  0.00    +0.181 C 
BRANCH  16  17
ATOM     17  C   UNL     1       3.640  -0.337  29.520  0.00  0.00    -0.012 A 
ATOM     18  C   UNL     1       3.601  -0.760  28.176  0.00  0.00    +0.006 A 
ATOM     19  C   UNL     1       4.678  -1.427  27.587  0.00  0.00    +0.000 A 
ATOM     20  C   UNL     1       5.813  -1.709  28.334  0.00  0.00    +0.001 A 
ATOM     21  C   UNL     1       5.864  -1.341  29.677  0.00  0.00    +0.015 A 
ATOM     22  C   UNL     1       4.784  -0.672  30.270  0.00  0.00    +0.023 A 
ATOM     23 BR   UNL     1       4.943  -0.273  32.123  0.00  0.00    -0.050 Br
ENDBRANCH  16  17
ENDBRANCH  14  16
ENDBRANCH  10  12
ENDBRANCH   9  10
ENDBRANCH   5   9
ENDBRANCH   4   7
ENDBRANCH   1   4
BRANCH   1  24
ATOM     24  C   UNL     1      -1.491   4.610  21.831  0.00  0.00    +0.175 C 
BRANCH  24  25
ATOM     25  C   UNL     1      -0.479   4.068  20.811  0.00  0.00    +0.176 C 
ATOM     26  O   UNL     1      -1.217   3.332  19.797  0.00  0.00    -0.332 OA
ATOM     27  C   UNL     1      -0.420   2.827  18.674  0.00  0.00    +0.277 C 
ATOM     28  C   UNL     1       0.759   1.967  19.191  0.00  0.00    +0.110 C 
ATOM     29  C   UNL     1       1.555   2.696  20.295  0.00  0.00    +0.143 C 
ATOM     30  C   UNL     1       0.628   3.181  21.410  0.00  0.00    +0.133 C 
BRANCH  30  31
ATOM     31  N   UNL     1       1.385   3.949  22.411  0.00  0.00    -0.308 N 
ATOM     32  H   UNL     1       1.727   4.862  22.145  0.00  0.00    +0.149 HD
ATOM     33  C   UNL     1       1.649   3.519  23.648  0.00  0.00    +0.210 C 
ATOM     34  C   UNL     1       1.136   2.114  24.013  0.00  0.00    +0.109 C 
ATOM     35  O   UNL     1       2.273   4.190  24.470  0.00  0.00    -0.276 OA
ENDBRANCH  30  31
BRANCH  27  36
ATOM     36  C   UNL     1       0.126   3.992  17.823  0.00  0.00    +0.414 C 
ATOM     37  O   UNL     1       1.176   3.864  17.197  0.00  0.00    -0.240 OA
ATOM     38  O   UNL     1      -0.484   5.061  17.764  0.00  0.00    -0.240 OA
ENDBRANCH  27  36
BRANCH  27  39
ATOM     39  O   UNL     1      -1.276   1.986  17.859  0.00  0.00    -0.343 OA
ATOM     40  C   UNL     1      -2.295   1.258  18.590  0.00  0.00    +0.198 C 
ENDBRANCH  27  39
BRANCH  29  41
ATOM     41  O   UNL     1       2.533   1.814  20.846  0.00  0.00    -0.390 OA
ATOM     42  H   UNL     1       3.399   2.037  20.496  0.00  0.00    +0.210 HD
ENDBRANCH  29  41
ENDBRANCH  24  25
BRANCH  24  43
ATOM     43  O   UNL     1      -0.908   5.693  22.582  0.00  0.00    -0.387 OA
ATOM     44  H   UNL     1      -0.033   5.439  22.885  0.00  0.00    +0.210 HD
ENDBRANCH  24  43
ENDBRANCH   1  24
TORSDOF 15
