REMARK VINA RESULT:    -7.070     11.831     19.719
REMARK INTER + INTRA:         -15.769
REMARK INTER:                 -13.082
REMARK INTRA:                  -2.687
REMARK UNBOUND:                -2.499
REMARK  Name = lig_assembled_64.pdb
REMARK  19 active torsions:
REMARK  status: ('A' for Active; 'I' for Inactive)
REMARK    1  A    between atoms: _2  and  _10
REMARK    2  A    between atoms: _5  and  _27
REMARK    3  A    between atoms: _7  and  _8
REMARK    4  A    between atoms: _7  and  _27
REMARK    5  A    between atoms: _12  and  _13
REMARK    6  A    between atoms: _13  and  _21
REMARK    7  A    between atoms: _14  and  _15
REMARK    8  A    between atoms: _23  and  _43
REMARK    9  A    between atoms: _25  and  _31
REMARK   10  A    between atoms: _26  and  _30
REMARK   11  A    between atoms: _30  and  _31
REMARK   12  A    between atoms: _33  and  _34
REMARK   13  A    between atoms: _35  and  _36
REMARK   14  A    between atoms: _37  and  _39
REMARK   15  A    between atoms: _39  and  _40
REMARK   16  A    between atoms: _39  and  _41
REMARK   17  A    between atoms: _41  and  _42
REMARK   18  A    between atoms: _41  and  _43
REMARK   19  A    between atoms: _44  and  _46
REMARK                            x       y       z     vdW  Elec       q    Type
REMARK                         _______ _______ _______ _____ _____    ______ ____
ROOT
ATOM      1  C   UNL     1      -4.800   8.234  15.724  0.00  0.00    +0.401 C 
ATOM      2  O   UNL     1      -5.982   8.082  16.042  0.00  0.00    -0.226 OA
ATOM      3  N   UNL     1      -4.150   9.395  15.805  0.00  0.00    -0.279 N 
ATOM      4  H   UNL     1      -3.178   9.418  15.529  0.00  0.00    +0.152 HD
ENDROOT
BRANCH   3   5
ATOM      5  C   UNL     1      -4.767  10.643  16.272  0.00  0.00    +0.141 C 
BRANCH   5   6
ATOM      6  C   UNL     1      -4.888  11.671  15.152  0.00  0.00    +0.163 C 
BRANCH   6   7
ATOM      7  O   UNL     1      -5.970  12.575  15.430  0.00  0.00    -0.388 OA
ATOM      8  H   UNL     1      -5.829  12.991  16.283  0.00  0.00    +0.210 HD
ENDBRANCH   6   7
BRANCH   6   9
ATOM      9  C   UNL     1      -3.559  12.432  15.006  0.00  0.00    +0.175 C 
BRANCH   9  10
ATOM     10  C   UNL     1      -3.430  13.111  13.635  0.00  0.00    +0.176 C 
ATOM     11  O   UNL     1      -4.358  14.230  13.601  0.00  0.00    -0.332 OA
ATOM     12  C   UNL     1      -4.299  15.067  12.399  0.00  0.00    +0.277 C 
ATOM     13  C   UNL     1      -4.476  14.201  11.127  0.00  0.00    +0.110 C 
ATOM     14  C   UNL     1      -3.531  12.981  11.133  0.00  0.00    +0.143 C 
ATOM     15  C   UNL     1      -3.673  12.184  12.430  0.00  0.00    +0.133 C 
BRANCH  15  16
ATOM     16  N   UNL     1      -2.707  11.074  12.461  0.00  0.00    -0.308 N 
ATOM     17  H   UNL     1      -1.729  11.303  12.576  0.00  0.00    +0.149 HD
ATOM     18  C   UNL     1      -3.037   9.785  12.347  0.00  0.00    +0.210 C 
ATOM     19  C   UNL     1      -4.531   9.471  12.146  0.00  0.00    +0.109 C 
ATOM     20  O   UNL     1      -2.207   8.876  12.391  0.00  0.00    -0.276 OA
ENDBRANCH  15  16
BRANCH  12  21
ATOM     21  C   UNL     1      -2.956  15.823  12.325  0.00  0.00    +0.414 C 
ATOM     22  O   UNL     1      -2.372  16.152  13.357  0.00  0.00    -0.240 OA
ATOM     23  O   UNL     1      -2.458  16.105  11.234  0.00  0.00    -0.240 OA
ENDBRANCH  12  21
BRANCH  12  24
ATOM     24  O   UNL     1      -5.393  16.019  12.460  0.00  0.00    -0.343 OA
ATOM     25  C   UNL     1      -6.595  15.528  13.105  0.00  0.00    +0.198 C 
ENDBRANCH  12  24
BRANCH  14  26
ATOM     26  O   UNL     1      -3.832  12.134  10.024  0.00  0.00    -0.390 OA
ATOM     27  H   UNL     1      -4.286  11.347  10.335  0.00  0.00    +0.210 HD
ENDBRANCH  14  26
ENDBRANCH   9  10
BRANCH   9  28
ATOM     28  O   UNL     1      -2.449  11.538  15.224  0.00  0.00    -0.387 OA
ATOM     29  H   UNL     1      -1.747  11.741  14.600  0.00  0.00    +0.210 HD
ENDBRANCH   9  28
ENDBRANCH   6   9
ENDBRANCH   5   6
ENDBRANCH   3   5
BRANCH   1  30
ATOM     30  O   UNL     1      -4.062   7.109  15.240  0.00  0.00    -0.444 OA
BRANCH  30  31
ATOM     31  C   UNL     1      -2.665   7.324  15.460  0.00  0.00    +0.292 C 
BRANCH  31  33
ATOM     32  N   UNL     1      -2.969   5.709  17.318  0.00  0.00    -0.131 NA
ATOM     33  C   UNL     1      -2.143   6.365  16.451  0.00  0.00    +0.121 A 
ATOM     34  C   UNL     1      -0.846   5.970  16.683  0.00  0.00    +0.143 A 
ATOM     35  N   UNL     1      -0.928   5.069  17.718  0.00  0.00    -0.220 N 
ATOM     36  N   UNL     1      -2.223   4.921  18.084  0.00  0.00    -0.060 NA
BRANCH  35  37
ATOM     37  C   UNL     1       0.121   4.361  18.353  0.00  0.00    +0.071 A 
ATOM     38  C   UNL     1       0.931   3.499  17.621  0.00  0.00    +0.063 A 
ATOM     39  CA  UNL     1       1.936   2.839  18.300  0.00  0.00    +0.150 A 
ATOM     40  N   UNL     1       2.188   2.964  19.635  0.00  0.00    -0.240 NA
ATOM     41  C   UNL     1       1.382   3.798  20.346  0.00  0.00    +0.074 A 
ATOM     42  C   UNL     1       0.352   4.516  19.729  0.00  0.00    +0.056 A 
BRANCH  41  43
ATOM     43  C   UNL     1       1.656   3.866  21.802  0.00  0.00    +0.000 A 
ATOM     44  C   UNL     1       1.608   5.079  22.516  0.00  0.00    +0.010 A 
ATOM     45  C   UNL     1       1.831   5.125  23.898  0.00  0.00    +0.001 A 
ATOM     46  C   UNL     1       2.109   3.957  24.601  0.00  0.00    +0.000 A 
ATOM     47  C   UNL     1       2.172   2.745  23.921  0.00  0.00    +0.001 A 
ATOM     48  C   UNL     1       1.948   2.702  22.540  0.00  0.00    +0.010 A 
ENDBRANCH  41  43
BRANCH  39  49
ATOM     49  C   UNL     1       2.828   1.905  17.556  0.00  0.00    +0.355 C 
ATOM     50  OXT UNL     1       2.454   0.886  17.003  0.00  0.00    -0.243 OA
BRANCH  49  51
ATOM     51  O   UNL     1       4.108   2.342  17.581  0.00  0.00    -0.476 OA
ATOM     52  H   UNL     1       4.703   1.609  17.301  0.00  0.00    +0.295 HD
ENDBRANCH  49  51
ENDBRANCH  39  49
ENDBRANCH  35  37
ENDBRANCH  31  33
ENDBRANCH  30  31
ENDBRANCH   1  30
TORSDOF 17
