REMARK VINA RESULT:    -6.300      4.798      7.134
REMARK INTER + INTRA:         -13.192
REMARK INTER:                 -10.468
REMARK INTRA:                  -2.723
REMARK UNBOUND:                -1.736
REMARK  Name = lig_assembled_59.pdb
REMARK  18 active torsions:
REMARK  status: ('A' for Active; 'I' for Inactive)
REMARK    1  A    between atoms: _2  and  _10
REMARK    2  A    between atoms: _5  and  _20
REMARK    3  A    between atoms: _7  and  _8
REMARK    4  A    between atoms: _7  and  _20
REMARK    5  A    between atoms: _13  and  _14
REMARK    6  A    between atoms: _14  and  _15
REMARK    7  A    between atoms: _16  and  _36
REMARK    8  A    between atoms: _18  and  _24
REMARK    9  A    between atoms: _19  and  _23
REMARK   10  A    between atoms: _23  and  _24
REMARK   11  A    between atoms: _26  and  _27
REMARK   12  A    between atoms: _28  and  _29
REMARK   13  A    between atoms: _30  and  _32
REMARK   14  A    between atoms: _32  and  _33
REMARK   15  A    between atoms: _32  and  _34
REMARK   16  A    between atoms: _34  and  _35
REMARK   17  A    between atoms: _34  and  _36
REMARK   18  A    between atoms: _37  and  _39
REMARK                            x       y       z     vdW  Elec       q    Type
REMARK                         _______ _______ _______ _____ _____    ______ ____
ROOT
ATOM      1  C   UNL     1       0.358   3.316  29.941  0.00  0.00    +0.163 C 
ENDROOT
BRANCH   1   2
ATOM      2  O   UNL     1       0.085   2.161  30.751  0.00  0.00    -0.388 OA
ATOM      3  H   UNL     1      -0.771   2.262  31.176  0.00  0.00    +0.210 HD
ENDBRANCH   1   2
BRANCH   1   4
ATOM      4  C   UNL     1       1.095   2.921  28.650  0.00  0.00    +0.175 C 
BRANCH   4   5
ATOM      5  C   UNL     1       1.613   1.476  28.700  0.00  0.00    +0.176 C 
ATOM      6  O   UNL     1       2.668   1.413  29.698  0.00  0.00    -0.332 OA
ATOM      7  C   UNL     1       3.214   0.078  29.960  0.00  0.00    +0.277 C 
ATOM      8  C   UNL     1       3.700  -0.577  28.643  0.00  0.00    +0.110 C 
ATOM      9  C   UNL     1       2.622  -0.506  27.541  0.00  0.00    +0.143 C 
ATOM     10  C   UNL     1       2.122   0.927  27.354  0.00  0.00    +0.133 C 
BRANCH  10  11
ATOM     11  N   UNL     1       1.035   0.968  26.363  0.00  0.00    -0.308 N 
ATOM     12  H   UNL     1       0.165   0.511  26.598  0.00  0.00    +0.149 HD
ATOM     13  C   UNL     1       1.122   1.570  25.174  0.00  0.00    +0.210 C 
ATOM     14  C   UNL     1       2.469   2.236  24.835  0.00  0.00    +0.109 C 
ATOM     15  O   UNL     1       0.190   1.601  24.370  0.00  0.00    -0.276 OA
ENDBRANCH  10  11
BRANCH   7  16
ATOM     16  C   UNL     1       2.155  -0.825  30.625  0.00  0.00    +0.414 C 
ATOM     17  O   UNL     1       1.330  -0.345  31.402  0.00  0.00    -0.240 OA
ATOM     18  O   UNL     1       2.125  -2.033  30.385  0.00  0.00    -0.240 OA
ENDBRANCH   7  16
BRANCH   7  19
ATOM     19  O   UNL     1       4.355   0.226  30.845  0.00  0.00    -0.343 OA
ATOM     20  C   UNL     1       4.323   1.400  31.694  0.00  0.00    +0.198 C 
ENDBRANCH   7  19
BRANCH   9  21
ATOM     21  O   UNL     1       3.162  -0.981  26.308  0.00  0.00    -0.390 OA
ATOM     22  H   UNL     1       2.507  -1.519  25.857  0.00  0.00    +0.210 HD
ENDBRANCH   9  21
ENDBRANCH   4   5
BRANCH   4  23
ATOM     23  O   UNL     1       2.185   3.831  28.402  0.00  0.00    -0.387 OA
ATOM     24  H   UNL     1       2.995   3.332  28.274  0.00  0.00    +0.210 HD
ENDBRANCH   4  23
ENDBRANCH   1   4
BRANCH   1  25
ATOM     25  C   UNL     1      -0.945   4.025  29.587  0.00  0.00    +0.141 C 
BRANCH  25  28
ATOM     26  C   UNL     1      -2.160   4.030  27.435  0.00  0.00    +0.401 C 
ATOM     27  O   UNL     1      -3.195   3.557  27.911  0.00  0.00    -0.226 OA
ATOM     28  N   UNL     1      -1.058   4.275  28.145  0.00  0.00    -0.279 N 
ATOM     29  H   UNL     1      -0.255   4.655  27.663  0.00  0.00    +0.152 HD
BRANCH  26  30
ATOM     30  O   UNL     1      -2.115   4.337  26.040  0.00  0.00    -0.444 OA
BRANCH  30  31
ATOM     31  C   UNL     1      -1.205   5.418  25.818  0.00  0.00    +0.292 C 
BRANCH  31  33
ATOM     32  N   UNL     1       0.912   5.491  24.543  0.00  0.00    -0.131 NA
ATOM     33  C   UNL     1      -0.419   5.181  24.592  0.00  0.00    +0.121 A 
ATOM     34  C   UNL     1      -0.806   4.665  23.377  0.00  0.00    +0.145 A 
ATOM     35  N   UNL     1       0.336   4.677  22.609  0.00  0.00    -0.202 N 
ATOM     36  N   UNL     1       1.366   5.178  23.337  0.00  0.00    -0.059 NA
BRANCH  35  37
ATOM     37  C   UNL     1       0.472   4.258  21.258  0.00  0.00    +0.156 A 
ATOM     38  C   UNL     1       1.727   3.869  20.792  0.00  0.00    +0.048 A 
ATOM     39  C   UNL     1       1.860   3.499  19.455  0.00  0.00    +0.011 A 
ATOM     40  C   UNL     1       0.748   3.518  18.611  0.00  0.00    -0.004 A 
ATOM     41  C   UNL     1      -0.464   3.921  19.165  0.00  0.00    +0.119 A 
ATOM     42  N   UNL     1      -0.631   4.279  20.460  0.00  0.00    -0.236 NA
BRANCH  40  43
ATOM     43  C   UNL     1       0.889   3.215  17.148  0.00  0.00    +0.192 C 
BRANCH  43  44
ATOM     44  O   UNL     1       0.929   4.404  16.374  0.00  0.00    -0.390 OA
ATOM     45  H   UNL     1       0.125   4.909  16.590  0.00  0.00    +0.210 HD
ENDBRANCH  43  44
ENDBRANCH  40  43
ENDBRANCH  35  37
ENDBRANCH  31  33
ENDBRANCH  30  31
ENDBRANCH  26  30
ENDBRANCH  25  28
ENDBRANCH   1  25
TORSDOF 16
