REMARK VINA RESULT:    -5.578     14.410     17.242
REMARK INTER + INTRA:         -13.319
REMARK INTER:                 -10.294
REMARK INTRA:                  -3.025
REMARK UNBOUND:                -2.036
REMARK  Name = lig_assembled_45.pdb
REMARK  24 active torsions:
REMARK  status: ('A' for Active; 'I' for Inactive)
REMARK    1  A    between atoms: _2  and  _10
REMARK    2  A    between atoms: _3  and  _12
REMARK    3  A    between atoms: _3  and  _13
REMARK    4  A    between atoms: _3  and  _14
REMARK    5  A    between atoms: _3  and  _16
REMARK    6  A    between atoms: _5  and  _21
REMARK    7  A    between atoms: _6  and  _16
REMARK    8  A    between atoms: _7  and  _8
REMARK    9  A    between atoms: _7  and  _21
REMARK   10  A    between atoms: _10  and  _11
REMARK   11  A    between atoms: _11  and  _12
REMARK   12  A    between atoms: _14  and  _15
REMARK   13  A    between atoms: _17  and  _37
REMARK   14  A    between atoms: _19  and  _25
REMARK   15  A    between atoms: _20  and  _24
REMARK   16  A    between atoms: _24  and  _25
REMARK   17  A    between atoms: _27  and  _28
REMARK   18  A    between atoms: _29  and  _30
REMARK   19  A    between atoms: _31  and  _33
REMARK   20  A    between atoms: _33  and  _34
REMARK   21  A    between atoms: _33  and  _35
REMARK   22  A    between atoms: _35  and  _36
REMARK   23  A    between atoms: _35  and  _37
REMARK   24  A    between atoms: _38  and  _40
REMARK                            x       y       z     vdW  Elec       q    Type
REMARK                         _______ _______ _______ _____ _____    ______ ____
ROOT
ATOM      1  C   UNL     1      15.989   1.708  25.592  0.00  0.00    +0.163 C 
ENDROOT
BRANCH   1   2
ATOM      2  O   UNL     1      16.393   2.635  26.613  0.00  0.00    -0.388 OA
ATOM      3  H   UNL     1      15.642   2.838  27.177  0.00  0.00    +0.210 HD
ENDBRANCH   1   2
BRANCH   1   4
ATOM      4  C   UNL     1      16.726   1.990  24.271  0.00  0.00    +0.175 C 
BRANCH   4   5
ATOM      5  C   UNL     1      18.225   2.245  24.489  0.00  0.00    +0.176 C 
ATOM      6  O   UNL     1      18.382   3.611  24.959  0.00  0.00    -0.332 OA
ATOM      7  C   UNL     1      19.747   4.003  25.324  0.00  0.00    +0.277 C 
ATOM      8  C   UNL     1      20.718   3.740  24.147  0.00  0.00    +0.110 C 
ATOM      9  C   UNL     1      20.565   2.308  23.592  0.00  0.00    +0.143 C 
ATOM     10  C   UNL     1      19.106   2.006  23.249  0.00  0.00    +0.133 C 
BRANCH  10  11
ATOM     11  N   UNL     1      18.960   0.611  22.803  0.00  0.00    -0.308 N 
ATOM     12  H   UNL     1      19.298  -0.118  23.416  0.00  0.00    +0.149 HD
ATOM     13  C   UNL     1      18.410   0.245  21.642  0.00  0.00    +0.210 C 
ATOM     14  C   UNL     1      17.928   1.381  20.719  0.00  0.00    +0.109 C 
ATOM     15  O   UNL     1      18.287  -0.932  21.301  0.00  0.00    -0.276 OA
ENDBRANCH  10  11
BRANCH   7  16
ATOM     16  C   UNL     1      20.224   3.228  26.570  0.00  0.00    +0.414 C 
ATOM     17  O   UNL     1      21.424   3.031  26.755  0.00  0.00    -0.240 OA
ATOM     18  O   UNL     1      19.410   2.801  27.389  0.00  0.00    -0.240 OA
ENDBRANCH   7  16
BRANCH   9  19
ATOM     19  O   UNL     1      21.365   2.159  22.419  0.00  0.00    -0.390 OA
ATOM     20  H   UNL     1      20.804   2.201  21.640  0.00  0.00    +0.210 HD
ENDBRANCH   9  19
BRANCH   7  21
ATOM     21  O   UNL     1      19.745   5.427  25.606  0.00  0.00    -0.343 OA
ATOM     22  C   UNL     1      19.021   6.240  24.647  0.00  0.00    +0.198 C 
ENDBRANCH   7  21
ENDBRANCH   4   5
BRANCH   4  23
ATOM     23  O   UNL     1      16.124   3.112  23.596  0.00  0.00    -0.387 OA
ATOM     24  H   UNL     1      15.169   3.067  23.687  0.00  0.00    +0.210 HD
ENDBRANCH   4  23
ENDBRANCH   1   4
BRANCH   1  25
ATOM     25  C   UNL     1      16.275   0.279  26.041  0.00  0.00    +0.141 C 
BRANCH  25  28
ATOM     26  C   UNL     1      16.316  -1.598  24.434  0.00  0.00    +0.401 C 
ATOM     27  O   UNL     1      17.547  -1.677  24.414  0.00  0.00    -0.226 OA
ATOM     28  N   UNL     1      15.638  -0.709  25.161  0.00  0.00    -0.279 N 
ATOM     29  H   UNL     1      14.629  -0.716  25.104  0.00  0.00    +0.152 HD
BRANCH  26  30
ATOM     30  O   UNL     1      15.549  -2.501  23.634  0.00  0.00    -0.444 OA
BRANCH  30  31
ATOM     31  C   UNL     1      16.421  -3.450  23.015  0.00  0.00    +0.292 C 
BRANCH  31  33
ATOM     32  N   UNL     1      17.202  -5.518  24.142  0.00  0.00    -0.131 NA
ATOM     33  C   UNL     1      16.187  -4.796  23.570  0.00  0.00    +0.120 A 
ATOM     34  C   UNL     1      15.027  -5.535  23.622  0.00  0.00    +0.137 A 
ATOM     35  N   UNL     1      15.412  -6.686  24.238  0.00  0.00    -0.251 N 
ATOM     36  N   UNL     1      16.711  -6.683  24.545  0.00  0.00    -0.065 NA
BRANCH  35  37
ATOM     37  C   UNL     1      14.586  -7.838  24.539  0.00  0.00    +0.150 C 
BRANCH  37  38
ATOM     38  C   UNL     1      14.195  -7.919  26.008  0.00  0.00    +0.074 C 
BRANCH  38  39
ATOM     39  C   UNL     1      13.395  -6.739  26.576  0.00  0.00    +0.134 C 
BRANCH  39  40
ATOM     40  N   UNL     1      13.924  -6.056  27.881  0.00  0.00    +0.241 N 
ATOM     41  C   UNL     1      15.381  -6.492  28.112  0.00  0.00    +0.192 C 
BRANCH  40  42
ATOM     42  C   UNL     1      13.047  -6.617  29.049  0.00  0.00    +0.129 C 
ATOM     43  C   UNL     1      12.646  -5.569  30.082  0.00  0.00    +0.060 C 
ENDBRANCH  40  42
BRANCH  40  44
ATOM     44  C   UNL     1      13.859  -4.517  27.876  0.00  0.00    +0.129 C 
ATOM     45  C   UNL     1      14.859  -3.854  26.943  0.00  0.00    +0.060 C 
ENDBRANCH  40  44
ENDBRANCH  39  40
ENDBRANCH  38  39
ENDBRANCH  37  38
ENDBRANCH  35  37
ENDBRANCH  31  33
ENDBRANCH  30  31
ENDBRANCH  26  30
ENDBRANCH  25  28
ENDBRANCH   1  25
TORSDOF 19
