REMARK VINA RESULT:    -5.793      7.104     12.480
REMARK INTER + INTRA:         -14.231
REMARK INTER:                 -12.682
REMARK INTRA:                  -1.549
REMARK UNBOUND:                -2.172
REMARK  Name = lig_assembled_54.pdb
REMARK  24 active torsions:
REMARK  status: ('A' for Active; 'I' for Inactive)
REMARK    1  A    between atoms: _2  and  _9
REMARK    2  A    between atoms: _4  and  _21
REMARK    3  A    between atoms: _5  and  _14
REMARK    4  A    between atoms: _6  and  _7
REMARK    5  A    between atoms: _6  and  _21
REMARK    6  A    between atoms: _9  and  _10
REMARK    7  A    between atoms: _10  and  _11
REMARK    8  A    between atoms: _11  and  _15
REMARK    9  A    between atoms: _11  and  _16
REMARK   10  A    between atoms: _12  and  _13
REMARK   11  A    between atoms: _12  and  _16
REMARK   12  A    between atoms: _14  and  _15
REMARK   13  A    between atoms: _17  and  _37
REMARK   14  A    between atoms: _19  and  _25
REMARK   15  A    between atoms: _20  and  _24
REMARK   16  A    between atoms: _24  and  _25
REMARK   17  A    between atoms: _27  and  _28
REMARK   18  A    between atoms: _29  and  _30
REMARK   19  A    between atoms: _31  and  _33
REMARK   20  A    between atoms: _33  and  _34
REMARK   21  A    between atoms: _33  and  _35
REMARK   22  A    between atoms: _35  and  _36
REMARK   23  A    between atoms: _35  and  _37
REMARK   24  A    between atoms: _38  and  _40
REMARK                            x       y       z     vdW  Elec       q    Type
REMARK                         _______ _______ _______ _____ _____    ______ ____
ROOT
ATOM      1  C   UNL     1       7.460   2.311  34.382  0.00  0.00    +0.163 C 
ENDROOT
BRANCH   1   2
ATOM      2  O   UNL     1       6.996   2.546  35.721  0.00  0.00    -0.388 OA
ATOM      3  H   UNL     1       7.732   2.826  36.271  0.00  0.00    +0.210 HD
ENDBRANCH   1   2
BRANCH   1   4
ATOM      4  C   UNL     1       7.794   3.635  33.675  0.00  0.00    +0.175 C 
BRANCH   4   5
ATOM      5  C   UNL     1       7.136   4.840  34.363  0.00  0.00    +0.176 C 
ATOM      6  O   UNL     1       7.846   5.087  35.608  0.00  0.00    -0.332 OA
ATOM      7  C   UNL     1       7.421   6.274  36.355  0.00  0.00    +0.277 C 
ATOM      8  C   UNL     1       5.897   6.228  36.623  0.00  0.00    +0.110 C 
ATOM      9  C   UNL     1       5.101   5.936  35.333  0.00  0.00    +0.143 C 
ATOM     10  C   UNL     1       5.629   4.682  34.635  0.00  0.00    +0.133 C 
BRANCH  10  11
ATOM     11  N   UNL     1       4.920   4.464  33.364  0.00  0.00    -0.308 N 
ATOM     12  H   UNL     1       5.107   5.104  32.604  0.00  0.00    +0.149 HD
ATOM     13  C   UNL     1       4.047   3.477  33.149  0.00  0.00    +0.210 C 
ATOM     14  C   UNL     1       3.765   2.535  34.334  0.00  0.00    +0.109 C 
ATOM     15  O   UNL     1       3.479   3.309  32.069  0.00  0.00    -0.276 OA
ENDBRANCH  10  11
BRANCH   7  16
ATOM     16  C   UNL     1       7.770   7.562  35.581  0.00  0.00    +0.414 C 
ATOM     17  O   UNL     1       6.916   8.125  34.897  0.00  0.00    -0.240 OA
ATOM     18  O   UNL     1       8.904   8.038  35.640  0.00  0.00    -0.240 OA
ENDBRANCH   7  16
BRANCH   9  19
ATOM     19  O   UNL     1       3.721   5.752  35.651  0.00  0.00    -0.390 OA
ATOM     20  H   UNL     1       3.184   6.315  35.087  0.00  0.00    +0.210 HD
ENDBRANCH   9  19
BRANCH   7  21
ATOM     21  O   UNL     1       8.110   6.271  37.632  0.00  0.00    -0.343 OA
ATOM     22  C   UNL     1       9.249   5.377  37.711  0.00  0.00    +0.198 C 
ENDBRANCH   7  21
ENDBRANCH   4   5
BRANCH   4  23
ATOM     23  O   UNL     1       7.395   3.574  32.291  0.00  0.00    -0.387 OA
ATOM     24  H   UNL     1       6.893   2.771  32.138  0.00  0.00    +0.210 HD
ENDBRANCH   4  23
ENDBRANCH   1   4
BRANCH   1  25
ATOM     25  C   UNL     1       8.697   1.420  34.407  0.00  0.00    +0.141 C 
BRANCH  25  28
ATOM     26  C   UNL     1      11.017   2.074  34.951  0.00  0.00    +0.401 C 
ATOM     27  O   UNL     1      11.100   1.323  35.926  0.00  0.00    -0.226 OA
ATOM     28  N   UNL     1       9.929   2.188  34.188  0.00  0.00    -0.279 N 
ATOM     29  H   UNL     1       9.954   2.839  33.416  0.00  0.00    +0.152 HD
BRANCH  26  30
ATOM     30  O   UNL     1      12.141   2.886  34.602  0.00  0.00    -0.444 OA
BRANCH  30  31
ATOM     31  C   UNL     1      12.876   3.218  35.783  0.00  0.00    +0.292 C 
BRANCH  31  33
ATOM     32  N   UNL     1      13.678   5.540  36.098  0.00  0.00    -0.131 NA
ATOM     33  C   UNL     1      13.820   4.317  35.498  0.00  0.00    +0.120 A 
ATOM     34  C   UNL     1      14.930   4.341  34.682  0.00  0.00    +0.137 A 
ATOM     35  N   UNL     1      15.440   5.591  34.858  0.00  0.00    -0.251 N 
ATOM     36  N   UNL     1      14.682   6.312  35.704  0.00  0.00    -0.065 NA
BRANCH  35  37
ATOM     37  C   UNL     1      16.661   6.149  34.312  0.00  0.00    +0.150 C 
BRANCH  37  38
ATOM     38  C   UNL     1      16.521   6.472  32.832  0.00  0.00    +0.084 C 
BRANCH  38  39
ATOM     39  C   UNL     1      16.593   7.972  32.525  0.00  0.00    +0.252 C 
BRANCH  39  40
ATOM     40  O   UNL     1      15.281   8.542  32.539  0.00  0.00    -0.352 OA
BRANCH  40  41
ATOM     41  C   UNL     1      15.096   9.555  33.526  0.00  0.00    +0.159 C 
ATOM     42  C   UNL     1      15.872  10.789  33.111  0.00  0.00    +0.034 C 
ENDBRANCH  40  41
ENDBRANCH  39  40
BRANCH  39  43
ATOM     43  O   UNL     1      17.174   8.121  31.224  0.00  0.00    -0.352 OA
BRANCH  43  44
ATOM     44  C   UNL     1      18.372   8.899  31.246  0.00  0.00    +0.159 C 
ATOM     45  C   UNL     1      18.271   9.996  30.206  0.00  0.00    +0.034 C 
ENDBRANCH  43  44
ENDBRANCH  39  43
ENDBRANCH  38  39
ENDBRANCH  37  38
ENDBRANCH  35  37
ENDBRANCH  31  33
ENDBRANCH  30  31
ENDBRANCH  26  30
ENDBRANCH  25  28
ENDBRANCH   1  25
TORSDOF 20
