REMARK VINA RESULT:    -5.242      2.253      4.942
REMARK INTER + INTRA:         -12.341
REMARK INTER:                  -9.282
REMARK INTRA:                  -3.059
REMARK UNBOUND:                -2.810
REMARK  Name = lig_assembled_53.pdb
REMARK  18 active torsions:
REMARK  status: ('A' for Active; 'I' for Inactive)
REMARK    1  A    between atoms: _2  and  _9
REMARK    2  A    between atoms: _4  and  _16
REMARK    3  A    between atoms: _5  and  _9
REMARK    4  A    between atoms: _5  and  _10
REMARK    5  A    between atoms: _6  and  _7
REMARK    6  A    between atoms: _6  and  _16
REMARK    7  A    between atoms: _12  and  _32
REMARK    8  A    between atoms: _14  and  _20
REMARK    9  A    between atoms: _15  and  _19
REMARK   10  A    between atoms: _19  and  _20
REMARK   11  A    between atoms: _22  and  _23
REMARK   12  A    between atoms: _24  and  _25
REMARK   13  A    between atoms: _26  and  _28
REMARK   14  A    between atoms: _28  and  _29
REMARK   15  A    between atoms: _28  and  _30
REMARK   16  A    between atoms: _30  and  _31
REMARK   17  A    between atoms: _30  and  _32
REMARK   18  A    between atoms: _33  and  _35
REMARK                            x       y       z     vdW  Elec       q    Type
REMARK                         _______ _______ _______ _____ _____    ______ ____
ROOT
ATOM      1  C   UNL     1      16.653   1.769  24.541  0.00  0.00    +0.175 C 
ENDROOT
BRANCH   1   2
ATOM      2  C   UNL     1      18.149   2.013  24.790  0.00  0.00    +0.176 C 
ATOM      3  O   UNL     1      18.284   3.282  25.488  0.00  0.00    -0.332 OA
ATOM      4  C   UNL     1      19.645   3.633  25.906  0.00  0.00    +0.277 C 
ATOM      5  C   UNL     1      20.610   3.596  24.695  0.00  0.00    +0.110 C 
ATOM      6  C   UNL     1      20.479   2.278  23.903  0.00  0.00    +0.143 C 
ATOM      7  C   UNL     1      19.022   2.009  23.522  0.00  0.00    +0.133 C 
BRANCH   7   8
ATOM      8  N   UNL     1      18.899   0.709  22.844  0.00  0.00    -0.308 N 
ATOM      9  H   UNL     1      19.200  -0.115  23.346  0.00  0.00    +0.149 HD
ATOM     10  C   UNL     1      18.414   0.547  21.610  0.00  0.00    +0.210 C 
ATOM     11  C   UNL     1      17.987   1.824  20.863  0.00  0.00    +0.109 C 
ATOM     12  O   UNL     1      18.308  -0.557  21.073  0.00  0.00    -0.276 OA
ENDBRANCH   7   8
BRANCH   4  13
ATOM     13  C   UNL     1      20.149   2.665  26.997  0.00  0.00    +0.414 C 
ATOM     14  O   UNL     1      21.338   2.654  27.315  0.00  0.00    -0.240 OA
ATOM     15  O   UNL     1      19.368   1.897  27.559  0.00  0.00    -0.240 OA
ENDBRANCH   4  13
BRANCH   4  16
ATOM     16  O   UNL     1      19.619   4.986  26.428  0.00  0.00    -0.343 OA
ATOM     17  C   UNL     1      18.688   5.204  27.519  0.00  0.00    +0.198 C 
ENDBRANCH   4  16
BRANCH   6  18
ATOM     18  O   UNL     1      21.270   2.348  22.717  0.00  0.00    -0.390 OA
ATOM     19  H   UNL     1      21.604   1.474  22.502  0.00  0.00    +0.210 HD
ENDBRANCH   6  18
ENDBRANCH   1   2
BRANCH   1  20
ATOM     20  O   UNL     1      16.070   2.902  23.868  0.00  0.00    -0.387 OA
ATOM     21  H   UNL     1      15.315   2.614  23.349  0.00  0.00    +0.210 HD
ENDBRANCH   1  20
BRANCH   1  22
ATOM     22  C   UNL     1      15.889   1.476  25.844  0.00  0.00    +0.163 C 
BRANCH  22  23
ATOM     23  O   UNL     1      16.022   2.564  26.773  0.00  0.00    -0.388 OA
ATOM     24  H   UNL     1      15.164   2.971  26.915  0.00  0.00    +0.210 HD
ENDBRANCH  22  23
BRANCH  22  25
ATOM     25  C   UNL     1      16.420   0.190  26.468  0.00  0.00    +0.141 C 
BRANCH  25  28
ATOM     26  C   UNL     1      16.092  -2.235  26.122  0.00  0.00    +0.401 C 
ATOM     27  O   UNL     1      16.360  -2.533  27.288  0.00  0.00    -0.226 OA
ATOM     28  N   UNL     1      16.102  -0.987  25.650  0.00  0.00    -0.279 N 
ATOM     29  H   UNL     1      15.877  -0.844  24.676  0.00  0.00    +0.152 HD
BRANCH  26  30
ATOM     30  O   UNL     1      15.752  -3.273  25.200  0.00  0.00    -0.444 OA
BRANCH  30  31
ATOM     31  C   UNL     1      16.760  -4.287  25.229  0.00  0.00    +0.292 C 
BRANCH  31  33
ATOM     32  N   UNL     1      17.912  -3.526  23.172  0.00  0.00    -0.131 NA
ATOM     33  C   UNL     1      17.964  -3.839  24.504  0.00  0.00    +0.120 A 
ATOM     34  C   UNL     1      19.251  -3.661  24.959  0.00  0.00    +0.137 A 
ATOM     35  N   UNL     1      19.950  -3.302  23.846  0.00  0.00    -0.241 N 
ATOM     36  N   UNL     1      19.131  -3.177  22.783  0.00  0.00    -0.065 NA
BRANCH  35  37
ATOM     37  C   UNL     1      21.335  -2.904  23.698  0.00  0.00    +0.265 C 
BRANCH  37  38
ATOM     38  C   UNL     1      21.581  -1.420  23.683  0.00  0.00    +0.326 C 
ATOM     39  O   UNL     1      21.685  -0.705  22.697  0.00  0.00    -0.249 OA
BRANCH  38  40
ATOM     40  O   UNL     1      21.701  -0.900  24.934  0.00  0.00    -0.479 OA
ATOM     41  H   UNL     1      21.415  -1.479  25.665  0.00  0.00    +0.295 HD
ENDBRANCH  38  40
ENDBRANCH  37  38
ENDBRANCH  35  37
ENDBRANCH  31  33
ENDBRANCH  30  31
ENDBRANCH  26  30
ENDBRANCH  25  28
ENDBRANCH  22  25
ENDBRANCH   1  22
TORSDOF 16
