REMARK VINA RESULT:    -6.469      5.171     10.319
REMARK INTER + INTRA:         -13.246
REMARK INTER:                 -10.847
REMARK INTRA:                  -2.400
REMARK UNBOUND:                -1.294
REMARK  Name = lig_assembled_24.pdb
REMARK  19 active torsions:
REMARK  status: ('A' for Active; 'I' for Inactive)
REMARK    1  A    between atoms: _2  and  _9
REMARK    2  A    between atoms: _4  and  _21
REMARK    3  A    between atoms: _6  and  _7
REMARK    4  A    between atoms: _6  and  _21
REMARK    5  A    between atoms: _9  and  _10
REMARK    6  A    between atoms: _13  and  _16
REMARK    7  A    between atoms: _14  and  _16
REMARK    8  A    between atoms: _17  and  _37
REMARK    9  A    between atoms: _19  and  _25
REMARK   10  A    between atoms: _20  and  _24
REMARK   11  A    between atoms: _24  and  _25
REMARK   12  A    between atoms: _27  and  _28
REMARK   13  A    between atoms: _29  and  _30
REMARK   14  A    between atoms: _31  and  _33
REMARK   15  A    between atoms: _33  and  _34
REMARK   16  A    between atoms: _33  and  _35
REMARK   17  A    between atoms: _35  and  _36
REMARK   18  A    between atoms: _35  and  _37
REMARK   19  A    between atoms: _38  and  _40
REMARK                            x       y       z     vdW  Elec       q    Type
REMARK                         _______ _______ _______ _____ _____    ______ ____
ROOT
ATOM      1  C   UNL     1       1.426   3.062  27.532  0.00  0.00    +0.163 C 
ENDROOT
BRANCH   1   2
ATOM      2  O   UNL     1       2.499   4.006  27.684  0.00  0.00    -0.388 OA
ATOM      3  H   UNL     1       2.249   4.675  28.326  0.00  0.00    +0.210 HD
ENDBRANCH   1   2
BRANCH   1   4
ATOM      4  C   UNL     1       1.825   1.927  26.573  0.00  0.00    +0.175 C 
BRANCH   4   5
ATOM      5  C   UNL     1       1.801   2.376  25.105  0.00  0.00    +0.176 C 
ATOM      6  O   UNL     1       0.569   3.117  24.884  0.00  0.00    -0.332 OA
ATOM      7  C   UNL     1       0.421   3.719  23.555  0.00  0.00    +0.277 C 
ATOM      8  C   UNL     1       0.591   2.644  22.453  0.00  0.00    +0.110 C 
ATOM      9  C   UNL     1       1.871   1.809  22.664  0.00  0.00    +0.143 C 
ATOM     10  C   UNL     1       1.924   1.234  24.079  0.00  0.00    +0.133 C 
BRANCH  10  11
ATOM     11  N   UNL     1       3.188   0.513  24.296  0.00  0.00    -0.308 N 
ATOM     12  H   UNL     1       4.043   1.052  24.306  0.00  0.00    +0.149 HD
ATOM     13  C   UNL     1       3.280  -0.807  24.479  0.00  0.00    +0.210 C 
ATOM     14  C   UNL     1       1.963  -1.604  24.431  0.00  0.00    +0.109 C 
ATOM     15  O   UNL     1       4.352  -1.382  24.673  0.00  0.00    -0.276 OA
ENDBRANCH  10  11
BRANCH   7  16
ATOM     16  C   UNL     1       1.458   4.841  23.344  0.00  0.00    +0.414 C 
ATOM     17  O   UNL     1       1.835   5.524  24.296  0.00  0.00    -0.240 OA
ATOM     18  O   UNL     1       1.918   5.064  22.224  0.00  0.00    -0.240 OA
ENDBRANCH   7  16
BRANCH   7  19
ATOM     19  O   UNL     1      -0.918   4.267  23.457  0.00  0.00    -0.343 OA
ATOM     20  C   UNL     1      -1.413   4.437  22.105  0.00  0.00    +0.198 C 
ENDBRANCH   7  19
BRANCH   9  21
ATOM     21  O   UNL     1       1.909   0.739  21.719  0.00  0.00    -0.390 OA
ATOM     22  H   UNL     1       1.279   0.910  21.015  0.00  0.00    +0.210 HD
ENDBRANCH   9  21
ENDBRANCH   4   5
BRANCH   4  23
ATOM     23  O   UNL     1       0.956   0.791  26.759  0.00  0.00    -0.387 OA
ATOM     24  H   UNL     1       1.098   0.159  26.051  0.00  0.00    +0.210 HD
ENDBRANCH   4  23
ENDBRANCH   1   4
BRANCH   1  25
ATOM     25  C   UNL     1       1.052   2.474  28.889  0.00  0.00    +0.141 C 
BRANCH  25  28
ATOM     26  C   UNL     1       2.787   1.711  30.475  0.00  0.00    +0.401 C 
ATOM     27  O   UNL     1       2.695   2.704  31.199  0.00  0.00    -0.226 OA
ATOM     28  N   UNL     1       2.062   1.523  29.371  0.00  0.00    -0.279 N 
ATOM     29  H   UNL     1       2.215   0.680  28.837  0.00  0.00    +0.152 HD
BRANCH  26  30
ATOM     30  O   UNL     1       3.723   0.686  30.817  0.00  0.00    -0.444 OA
BRANCH  30  31
ATOM     31  C   UNL     1       3.680  -0.349  29.831  0.00  0.00    +0.292 C 
BRANCH  31  33
ATOM     32  N   UNL     1       5.967  -0.889  30.607  0.00  0.00    -0.131 NA
ATOM     33  C   UNL     1       5.027  -0.907  29.612  0.00  0.00    +0.120 A 
ATOM     34  C   UNL     1       5.562  -1.515  28.499  0.00  0.00    +0.137 A 
ATOM     35  N   UNL     1       6.805  -1.909  28.897  0.00  0.00    -0.247 N 
ATOM     36  N   UNL     1       7.056  -1.496  30.157  0.00  0.00    -0.065 NA
BRANCH  35  37
ATOM     37  C   UNL     1       7.810  -2.712  28.219  0.00  0.00    +0.180 C 
BRANCH  37  38
ATOM     38  C   UNL     1       7.477  -3.068  26.790  0.00  0.00    -0.026 A 
ATOM     39  C   UNL     1       6.765  -4.238  26.497  0.00  0.00    +0.009 A 
ATOM     40  C   UNL     1       6.458  -4.560  25.171  0.00  0.00    +0.046 A 
ATOM     41  C   UNL     1       6.840  -3.715  24.127  0.00  0.00    +0.120 A 
ATOM     42  C   UNL     1       7.569  -2.563  24.410  0.00  0.00    +0.046 A 
ATOM     43  C   UNL     1       7.886  -2.239  25.735  0.00  0.00    +0.009 A 
BRANCH  41  44
ATOM     44  O   UNL     1       6.503  -4.144  22.873  0.00  0.00    -0.495 OA
ATOM     45  C   UNL     1       6.845  -5.495  22.576  0.00  0.00    +0.277 C 
ENDBRANCH  41  44
ENDBRANCH  37  38
ENDBRANCH  35  37
ENDBRANCH  31  33
ENDBRANCH  30  31
ENDBRANCH  26  30
ENDBRANCH  25  28
ENDBRANCH   1  25
TORSDOF 16
