REMARK VINA RESULT:    -5.753     12.050     15.982
REMARK INTER + INTRA:         -12.544
REMARK INTER:                  -9.994
REMARK INTRA:                  -2.550
REMARK UNBOUND:                -2.083
REMARK  Name = lig_assembled_35.pdb
REMARK  19 active torsions:
REMARK  status: ('A' for Active; 'I' for Inactive)
REMARK    1  A    between atoms: _2  and  _9
REMARK    2  A    between atoms: _4  and  _17
REMARK    3  A    between atoms: _5  and  _9
REMARK    4  A    between atoms: _5  and  _11
REMARK    5  A    between atoms: _6  and  _7
REMARK    6  A    between atoms: _6  and  _17
REMARK    7  A    between atoms: _9  and  _10
REMARK    8  A    between atoms: _13  and  _33
REMARK    9  A    between atoms: _15  and  _21
REMARK   10  A    between atoms: _16  and  _20
REMARK   11  A    between atoms: _20  and  _21
REMARK   12  A    between atoms: _23  and  _24
REMARK   13  A    between atoms: _25  and  _26
REMARK   14  A    between atoms: _27  and  _29
REMARK   15  A    between atoms: _29  and  _30
REMARK   16  A    between atoms: _29  and  _31
REMARK   17  A    between atoms: _31  and  _32
REMARK   18  A    between atoms: _31  and  _33
REMARK   19  A    between atoms: _34  and  _36
REMARK                            x       y       z     vdW  Elec       q    Type
REMARK                         _______ _______ _______ _____ _____    ______ ____
ROOT
ATOM      1  C   UNL     1       8.404   2.461  36.203  0.00  0.00    +0.163 C 
ENDROOT
BRANCH   1   2
ATOM      2  O   UNL     1       8.627   2.867  37.563  0.00  0.00    -0.388 OA
ATOM      3  H   UNL     1       7.783   3.002  38.000  0.00  0.00    +0.210 HD
ENDBRANCH   1   2
BRANCH   1   4
ATOM      4  C   UNL     1       8.831   3.566  35.221  0.00  0.00    +0.175 C 
BRANCH   4   5
ATOM      5  C   UNL     1       7.701   4.570  34.954  0.00  0.00    +0.176 C 
ATOM      6  O   UNL     1       7.518   5.368  36.156  0.00  0.00    -0.332 OA
ATOM      7  C   UNL     1       6.543   6.458  36.052  0.00  0.00    +0.277 C 
ATOM      8  C   UNL     1       5.175   5.917  35.569  0.00  0.00    +0.110 C 
ATOM      9  C   UNL     1       5.323   5.036  34.311  0.00  0.00    +0.143 C 
ATOM     10  C   UNL     1       6.363   3.937  34.529  0.00  0.00    +0.133 C 
BRANCH  10  11
ATOM     11  N   UNL     1       6.557   3.159  33.295  0.00  0.00    -0.308 N 
ATOM     12  H   UNL     1       7.003   3.619  32.513  0.00  0.00    +0.149 HD
ATOM     13  C   UNL     1       6.184   1.886  33.141  0.00  0.00    +0.210 C 
ATOM     14  C   UNL     1       5.485   1.222  34.342  0.00  0.00    +0.109 C 
ATOM     15  O   UNL     1       6.373   1.255  32.101  0.00  0.00    -0.276 OA
ENDBRANCH  10  11
BRANCH   7  16
ATOM     16  C   UNL     1       7.041   7.544  35.076  0.00  0.00    +0.414 C 
ATOM     17  O   UNL     1       6.244   8.137  34.349  0.00  0.00    -0.240 OA
ATOM     18  O   UNL     1       8.238   7.828  35.015  0.00  0.00    -0.240 OA
ENDBRANCH   7  16
BRANCH   7  19
ATOM     19  O   UNL     1       6.368   7.032  37.373  0.00  0.00    -0.343 OA
ATOM     20  C   UNL     1       7.428   6.732  38.316  0.00  0.00    +0.198 C 
ENDBRANCH   7  19
BRANCH   9  21
ATOM     21  O   UNL     1       4.066   4.438  33.991  0.00  0.00    -0.390 OA
ATOM     22  H   UNL     1       3.376   5.105  34.023  0.00  0.00    +0.210 HD
ENDBRANCH   9  21
ENDBRANCH   4   5
BRANCH   4  23
ATOM     23  O   UNL     1       9.281   2.983  33.982  0.00  0.00    -0.387 OA
ATOM     24  H   UNL     1       8.569   3.011  33.338  0.00  0.00    +0.210 HD
ENDBRANCH   4  23
ENDBRANCH   1   4
BRANCH   1  25
ATOM     25  C   UNL     1       9.185   1.185  35.904  0.00  0.00    +0.141 C 
BRANCH  25  28
ATOM     26  C   UNL     1      11.439   0.287  36.368  0.00  0.00    +0.401 C 
ATOM     27  O   UNL     1      11.103  -0.891  36.220  0.00  0.00    -0.226 OA
ATOM     28  N   UNL     1      10.606   1.321  36.245  0.00  0.00    -0.279 N 
ATOM     29  H   UNL     1      10.974   2.250  36.395  0.00  0.00    +0.152 HD
BRANCH  26  30
ATOM     30  O   UNL     1      12.799   0.585  36.695  0.00  0.00    -0.444 OA
BRANCH  30  31
ATOM     31  C   UNL     1      13.586   0.597  35.502  0.00  0.00    +0.292 C 
BRANCH  31  33
ATOM     32  N   UNL     1      13.161   2.838  34.542  0.00  0.00    -0.131 NA
ATOM     33  C   UNL     1      14.009   1.975  35.181  0.00  0.00    +0.120 A 
ATOM     34  C   UNL     1      15.205   2.614  35.421  0.00  0.00    +0.138 A 
ATOM     35  N   UNL     1      15.015   3.868  34.918  0.00  0.00    -0.238 N 
ATOM     36  N   UNL     1      13.793   3.991  34.372  0.00  0.00    -0.065 NA
BRANCH  35  37
ATOM     37  C   UNL     1      15.924   4.997  34.877  0.00  0.00    +0.214 C 
ATOM     38  C   UNL     1      17.290   4.579  34.339  0.00  0.00    +0.045 C 
BRANCH  37  39
ATOM     39  C   UNL     1      15.334   6.156  34.100  0.00  0.00    +0.329 C 
ATOM     40  O   UNL     1      14.928   7.194  34.607  0.00  0.00    -0.249 OA
BRANCH  39  41
ATOM     41  O   UNL     1      15.256   5.952  32.762  0.00  0.00    -0.479 OA
ATOM     42  H   UNL     1      15.648   6.652  32.201  0.00  0.00    +0.295 HD
ENDBRANCH  39  41
ENDBRANCH  37  39
ENDBRANCH  35  37
ENDBRANCH  31  33
ENDBRANCH  30  31
ENDBRANCH  26  30
ENDBRANCH  25  28
ENDBRANCH   1  25
TORSDOF 16
