REMARK VINA RESULT:    -6.433      4.970      6.484
REMARK INTER + INTRA:         -13.841
REMARK INTER:                 -11.688
REMARK INTRA:                  -2.153
REMARK UNBOUND:                -1.955
REMARK  Name = lig_assembled_78.pdb
REMARK  18 active torsions:
REMARK  status: ('A' for Active; 'I' for Inactive)
REMARK    1  A    between atoms: _2  and  _9
REMARK    2  A    between atoms: _4  and  _21
REMARK    3  A    between atoms: _6  and  _7
REMARK    4  A    between atoms: _6  and  _21
REMARK    5  A    between atoms: _9  and  _41
REMARK    6  A    between atoms: _10  and  _41
REMARK    7  A    between atoms: _17  and  _37
REMARK    8  A    between atoms: _19  and  _25
REMARK    9  A    between atoms: _20  and  _24
REMARK   10  A    between atoms: _24  and  _25
REMARK   11  A    between atoms: _27  and  _28
REMARK   12  A    between atoms: _29  and  _30
REMARK   13  A    between atoms: _31  and  _33
REMARK   14  A    between atoms: _33  and  _34
REMARK   15  A    between atoms: _33  and  _35
REMARK   16  A    between atoms: _35  and  _36
REMARK   17  A    between atoms: _35  and  _37
REMARK   18  A    between atoms: _38  and  _40
REMARK                            x       y       z     vdW  Elec       q    Type
REMARK                         _______ _______ _______ _____ _____    ______ ____
ROOT
ATOM      1  C   UNL     1       7.846   2.357  34.110  0.00  0.00    +0.163 C 
ENDROOT
BRANCH   1   2
ATOM      2  O   UNL     1       8.794   2.518  35.178  0.00  0.00    -0.388 OA
ATOM      3  H   UNL     1       9.514   3.081  34.885  0.00  0.00    +0.210 HD
ENDBRANCH   1   2
BRANCH   1   4
ATOM      4  C   UNL     1       7.782   3.622  33.236  0.00  0.00    +0.175 C 
BRANCH   4   5
ATOM      5  C   UNL     1       6.948   4.734  33.889  0.00  0.00    +0.176 C 
ATOM      6  O   UNL     1       7.710   5.267  35.007  0.00  0.00    -0.332 OA
ATOM      7  C   UNL     1       7.111   6.418  35.690  0.00  0.00    +0.277 C 
ATOM      8  C   UNL     1       5.671   6.084  36.150  0.00  0.00    +0.110 C 
ATOM      9  C   UNL     1       4.831   5.484  35.003  0.00  0.00    +0.143 C 
ATOM     10  C   UNL     1       5.549   4.296  34.361  0.00  0.00    +0.133 C 
BRANCH  10  11
ATOM     11  N   UNL     1       4.779   3.788  33.215  0.00  0.00    -0.308 N 
ATOM     12  H   UNL     1       4.732   4.364  32.386  0.00  0.00    +0.149 HD
ATOM     13  C   UNL     1       4.140   2.615  33.197  0.00  0.00    +0.210 C 
ATOM     14  C   UNL     1       4.210   1.773  34.485  0.00  0.00    +0.109 C 
ATOM     15  O   UNL     1       3.516   2.208  32.217  0.00  0.00    -0.276 OA
ENDBRANCH  10  11
BRANCH   7  16
ATOM     16  C   UNL     1       7.084   7.651  34.764  0.00  0.00    +0.414 C 
ATOM     17  O   UNL     1       8.136   8.167  34.387  0.00  0.00    -0.240 OA
ATOM     18  O   UNL     1       6.011   8.130  34.393  0.00  0.00    -0.240 OA
ENDBRANCH   7  16
BRANCH   7  19
ATOM     19  O   UNL     1       7.911   6.707  36.866  0.00  0.00    -0.343 OA
ATOM     20  C   UNL     1       8.286   5.548  37.651  0.00  0.00    +0.198 C 
ENDBRANCH   7  19
BRANCH   9  21
ATOM     21  O   UNL     1       3.566   5.054  35.506  0.00  0.00    -0.390 OA
ATOM     22  H   UNL     1       2.888   5.209  34.845  0.00  0.00    +0.210 HD
ENDBRANCH   9  21
ENDBRANCH   4   5
BRANCH   4  23
ATOM     23  O   UNL     1       7.251   3.300  31.935  0.00  0.00    -0.387 OA
ATOM     24  H   UNL     1       7.514   2.410  31.693  0.00  0.00    +0.210 HD
ENDBRANCH   4  23
ENDBRANCH   1   4
BRANCH   1  25
ATOM     25  C   UNL     1       8.231   1.160  33.247  0.00  0.00    +0.141 C 
BRANCH  25  28
ATOM     26  C   UNL     1       7.121  -0.725  32.098  0.00  0.00    +0.401 C 
ATOM     27  O   UNL     1       8.178  -1.250  31.738  0.00  0.00    -0.226 OA
ATOM     28  N   UNL     1       7.053   0.406  32.801  0.00  0.00    -0.279 N 
ATOM     29  H   UNL     1       6.139   0.763  33.041  0.00  0.00    +0.152 HD
BRANCH  26  30
ATOM     30  O   UNL     1       5.882  -1.347  31.747  0.00  0.00    -0.444 OA
BRANCH  30  31
ATOM     31  C   UNL     1       5.353  -0.729  30.572  0.00  0.00    +0.292 C 
BRANCH  31  33
ATOM     32  N   UNL     1       6.038  -2.878  29.545  0.00  0.00    -0.131 NA
ATOM     33  C   UNL     1       5.465  -1.641  29.418  0.00  0.00    +0.120 A 
ATOM     34  C   UNL     1       5.061  -1.465  28.113  0.00  0.00    +0.139 A 
ATOM     35  N   UNL     1       5.361  -2.652  27.514  0.00  0.00    -0.230 N 
ATOM     36  N   UNL     1       5.990  -3.481  28.365  0.00  0.00    -0.064 NA
BRANCH  35  37
ATOM     37  C   UNL     1       5.163  -3.044  26.141  0.00  0.00    +0.316 C 
BRANCH  37  38
ATOM     38  S   UNL     1       6.325  -2.311  25.018  0.00  0.00    +0.017 S 
ATOM     39  O   UNL     1       5.696  -1.223  24.297  0.00  0.00    -0.168 OA
ATOM     40  O   UNL     1       7.572  -2.108  25.736  0.00  0.00    -0.168 OA
BRANCH  38  41
ATOM     41  C   UNL     1       6.624  -3.585  23.810  0.00  0.00    +0.090 A 
ATOM     42  C   UNL     1       7.811  -4.322  23.875  0.00  0.00    +0.027 A 
ATOM     43  C   UNL     1       8.037  -5.337  22.947  0.00  0.00    +0.002 A 
ATOM     44  C   UNL     1       7.077  -5.624  21.975  0.00  0.00    +0.000 A 
ATOM     45  C   UNL     1       5.886  -4.898  21.928  0.00  0.00    +0.002 A 
ATOM     46  C   UNL     1       5.654  -3.874  22.846  0.00  0.00    +0.027 A 
ENDBRANCH  38  41
ENDBRANCH  37  38
ENDBRANCH  35  37
ENDBRANCH  31  33
ENDBRANCH  30  31
ENDBRANCH  26  30
ENDBRANCH  25  28
ENDBRANCH   1  25
TORSDOF 16
