REMARK VINA RESULT:    -6.391      3.629      6.482
REMARK INTER + INTRA:         -14.150
REMARK INTER:                 -11.031
REMARK INTRA:                  -3.119
REMARK UNBOUND:                -3.089
REMARK  Name = lig_assembled_91.pdb
REMARK  16 active torsions:
REMARK  status: ('A' for Active; 'I' for Inactive)
REMARK    1  A    between atoms: _2  and  _10
REMARK    2  A    between atoms: _5  and  _26
REMARK    3  A    between atoms: _7  and  _8
REMARK    4  A    between atoms: _7  and  _26
REMARK    5  A    between atoms: _22  and  _42
REMARK    6  A    between atoms: _24  and  _30
REMARK    7  A    between atoms: _25  and  _29
REMARK    8  A    between atoms: _29  and  _30
REMARK    9  A    between atoms: _32  and  _33
REMARK   10  A    between atoms: _34  and  _35
REMARK   11  A    between atoms: _36  and  _38
REMARK   12  A    between atoms: _38  and  _39
REMARK   13  A    between atoms: _38  and  _40
REMARK   14  A    between atoms: _40  and  _41
REMARK   15  A    between atoms: _40  and  _42
REMARK   16  A    between atoms: _43  and  _45
REMARK                            x       y       z     vdW  Elec       q    Type
REMARK                         _______ _______ _______ _____ _____    ______ ____
ROOT
ATOM      1  C   UNL     1       7.773  -0.872  35.232  0.00  0.00    +0.401 C 
ATOM      2  O   UNL     1       8.840  -1.193  35.760  0.00  0.00    -0.226 OA
ATOM      3  N   UNL     1       7.462   0.376  34.879  0.00  0.00    -0.279 N 
ATOM      4  H   UNL     1       6.565   0.539  34.443  0.00  0.00    +0.152 HD
ENDROOT
BRANCH   3   5
ATOM      5  C   UNL     1       8.349   1.527  35.087  0.00  0.00    +0.141 C 
BRANCH   5   6
ATOM      6  C   UNL     1       8.544   2.334  33.808  0.00  0.00    +0.163 C 
BRANCH   6   7
ATOM      7  O   UNL     1       7.929   1.656  32.700  0.00  0.00    -0.388 OA
ATOM      8  H   UNL     1       8.327   0.788  32.594  0.00  0.00    +0.210 HD
ENDBRANCH   6   7
BRANCH   6   9
ATOM      9  C   UNL     1       7.948   3.740  33.992  0.00  0.00    +0.175 C 
BRANCH   9  10
ATOM     10  C   UNL     1       6.543   3.696  34.609  0.00  0.00    +0.176 C 
ATOM     11  O   UNL     1       5.666   3.009  33.676  0.00  0.00    -0.332 OA
ATOM     12  C   UNL     1       4.296   2.778  34.145  0.00  0.00    +0.277 C 
ATOM     13  C   UNL     1       3.645   4.110  34.590  0.00  0.00    +0.110 C 
ATOM     14  C   UNL     1       4.555   4.893  35.560  0.00  0.00    +0.143 C 
ATOM     15  C   UNL     1       5.956   5.073  34.973  0.00  0.00    +0.133 C 
BRANCH  15  16
ATOM     16  N   UNL     1       6.838   5.743  35.941  0.00  0.00    -0.308 N 
ATOM     17  H   UNL     1       7.057   5.253  36.797  0.00  0.00    +0.149 HD
ATOM     18  C   UNL     1       7.368   6.956  35.763  0.00  0.00    +0.210 C 
ATOM     19  C   UNL     1       6.993   7.688  34.460  0.00  0.00    +0.109 C 
ATOM     20  O   UNL     1       8.115   7.487  36.585  0.00  0.00    -0.276 OA
ENDBRANCH  15  16
BRANCH  12  21
ATOM     21  C   UNL     1       4.282   1.779  35.321  0.00  0.00    +0.414 C 
ATOM     22  O   UNL     1       3.900   2.137  36.434  0.00  0.00    -0.240 OA
ATOM     23  O   UNL     1       4.653   0.616  35.156  0.00  0.00    -0.240 OA
ENDBRANCH  12  21
BRANCH  14  24
ATOM     24  O   UNL     1       3.987   6.176  35.824  0.00  0.00    -0.390 OA
ATOM     25  H   UNL     1       3.926   6.310  36.773  0.00  0.00    +0.210 HD
ENDBRANCH  14  24
BRANCH  12  26
ATOM     26  O   UNL     1       3.527   2.240  33.038  0.00  0.00    -0.343 OA
ATOM     27  C   UNL     1       2.712   3.209  32.331  0.00  0.00    +0.198 C 
ENDBRANCH  12  26
ENDBRANCH   9  10
BRANCH   9  28
ATOM     28  O   UNL     1       7.915   4.434  32.729  0.00  0.00    -0.387 OA
ATOM     29  H   UNL     1       7.298   5.168  32.783  0.00  0.00    +0.210 HD
ENDBRANCH   9  28
ENDBRANCH   6   9
ENDBRANCH   5   6
ENDBRANCH   3   5
BRANCH   1  30
ATOM     30  O   UNL     1       6.796  -1.882  34.970  0.00  0.00    -0.444 OA
BRANCH  30  31
ATOM     31  C   UNL     1       7.301  -2.792  33.988  0.00  0.00    +0.292 C 
BRANCH  31  33
ATOM     32  N   UNL     1       7.914  -1.227  32.180  0.00  0.00    -0.131 NA
ATOM     33  C   UNL     1       7.124  -2.240  32.631  0.00  0.00    +0.121 A 
ATOM     34  C   UNL     1       6.244  -2.596  31.634  0.00  0.00    +0.143 A 
ATOM     35  N   UNL     1       6.501  -1.732  30.588  0.00  0.00    -0.218 N 
ATOM     36  N   UNL     1       7.534  -0.929  30.946  0.00  0.00    -0.060 NA
BRANCH  35  37
ATOM     37  C   UNL     1       5.850  -1.618  29.321  0.00  0.00    +0.085 A 
ATOM     38  C   UNL     1       6.489  -2.117  28.130  0.00  0.00    +0.026 A 
ATOM     39  C   UNL     1       5.773  -1.931  26.931  0.00  0.00    +0.074 A 
ATOM     40  C   UNL     1       6.287  -2.369  25.720  0.00  0.00    +0.028 A 
ATOM     41  C   UNL     1       7.516  -3.012  25.624  0.00  0.00    +0.002 A 
ATOM     42  C   UNL     1       8.237  -3.248  26.778  0.00  0.00    +0.001 A 
ATOM     43  N   UNL     1       4.573  -1.360  26.866  0.00  0.00    -0.247 NA
ATOM     44  C   UNL     1       3.972  -0.925  27.973  0.00  0.00    +0.074 A 
ATOM     45  C   UNL     1       2.723  -0.342  27.789  0.00  0.00    +0.028 A 
ATOM     46  C   UNL     1       1.989   0.191  28.843  0.00  0.00    +0.002 A 
ATOM     47  C   UNL     1       2.522   0.155  30.115  0.00  0.00    +0.001 A 
ATOM     48  C   UNL     1       3.781  -0.422  30.317  0.00  0.00    +0.012 A 
ATOM     49  C   UNL     1       7.725  -2.829  28.010  0.00  0.00    +0.012 A 
ATOM     50  C   UNL     1       4.545  -1.003  29.253  0.00  0.00    +0.026 A 
ENDBRANCH  35  37
ENDBRANCH  31  33
ENDBRANCH  30  31
ENDBRANCH   1  30
TORSDOF 14
