REMARK VINA RESULT:    -6.205     14.226     18.572
REMARK INTER + INTRA:         -15.459
REMARK INTER:                 -12.830
REMARK INTRA:                  -2.628
REMARK UNBOUND:                -3.269
REMARK  Name = lig_assembled_84.pdb
REMARK  21 active torsions:
REMARK  status: ('A' for Active; 'I' for Inactive)
REMARK    1  A    between atoms: _2  and  _11
REMARK    2  A    between atoms: _3  and  _14
REMARK    3  A    between atoms: _4  and  _17
REMARK    4  A    between atoms: _6  and  _28
REMARK    5  A    between atoms: _8  and  _9
REMARK    6  A    between atoms: _8  and  _28
REMARK    7  A    between atoms: _11  and  _12
REMARK    8  A    between atoms: _12  and  _13
REMARK    9  A    between atoms: _12  and  _14
REMARK   10  A    between atoms: _24  and  _44
REMARK   11  A    between atoms: _26  and  _32
REMARK   12  A    between atoms: _27  and  _31
REMARK   13  A    between atoms: _31  and  _32
REMARK   14  A    between atoms: _34  and  _35
REMARK   15  A    between atoms: _36  and  _37
REMARK   16  A    between atoms: _38  and  _40
REMARK   17  A    between atoms: _40  and  _41
REMARK   18  A    between atoms: _40  and  _42
REMARK   19  A    between atoms: _42  and  _43
REMARK   20  A    between atoms: _42  and  _44
REMARK   21  A    between atoms: _45  and  _47
REMARK                            x       y       z     vdW  Elec       q    Type
REMARK                         _______ _______ _______ _____ _____    ______ ____
ROOT
ATOM      1  C   UNL     1      18.576   5.757  23.868  0.00  0.00    +0.401 C 
ATOM      2  O   UNL     1      18.169   6.640  23.109  0.00  0.00    -0.226 OA
ATOM      3  N   UNL     1      18.277   4.465  23.736  0.00  0.00    -0.279 N 
ATOM      4  H   UNL     1      18.668   3.814  24.404  0.00  0.00    +0.152 HD
ENDROOT
BRANCH   1   5
ATOM      5  O   UNL     1      19.425   6.118  24.961  0.00  0.00    -0.444 OA
BRANCH   5   6
ATOM      6  C   UNL     1      18.649   6.757  25.978  0.00  0.00    +0.292 C 
BRANCH   6   8
ATOM      7  N   UNL     1      20.541   8.355  26.092  0.00  0.00    -0.131 NA
ATOM      8  C   UNL     1      19.219   8.073  26.322  0.00  0.00    +0.120 A 
ATOM      9  C   UNL     1      18.624   9.163  26.917  0.00  0.00    +0.137 A 
ATOM     10  N   UNL     1      19.649  10.047  27.082  0.00  0.00    -0.251 N 
ATOM     11  N   UNL     1      20.794   9.569  26.565  0.00  0.00    -0.065 NA
BRANCH  10  12
ATOM     12  C   UNL     1      19.638  11.286  27.835  0.00  0.00    +0.149 C 
BRANCH  12  13
ATOM     13  C   UNL     1      20.898  11.521  28.686  0.00  0.00    +0.021 C 
ATOM     14  C   UNL     1      21.308  13.001  28.677  0.00  0.00    +0.010 C 
BRANCH  13  15
ATOM     15  C   UNL     1      20.676  11.074  30.151  0.00  0.00    +0.089 C 
BRANCH  15  16
ATOM     16  N   UNL     1      19.347  10.526  30.455  0.00  0.00    -0.299 NA
ATOM     17  C   UNL     1      18.816  11.141  31.700  0.00  0.00    +0.103 C 
ATOM     18  C   UNL     1      17.384  10.658  32.010  0.00  0.00    +0.120 C 
ATOM     19  N   UNL     1      17.373   9.195  32.137  0.00  0.00    -0.327 N 
ATOM     20  C   UNL     1      17.933   8.484  30.978  0.00  0.00    +0.120 C 
ATOM     21  C   UNL     1      19.340   9.052  30.630  0.00  0.00    +0.103 C 
BRANCH  19  22
ATOM     22  C   UNL     1      16.834   8.548  33.224  0.00  0.00    +0.030 A 
ATOM     23  C   UNL     1      17.029   9.028  34.532  0.00  0.00    +0.024 A 
ATOM     24  C   UNL     1      16.509   8.370  35.652  0.00  0.00    +0.022 A 
ATOM     25  C   UNL     1      15.771   7.211  35.483  0.00  0.00    +0.041 A 
ATOM     26 CL   UNL     1      15.133   6.392  36.855  0.00  0.00    -0.084 Cl
ATOM     27  C   UNL     1      15.552   6.704  34.207  0.00  0.00    +0.022 A 
ATOM     28  C   UNL     1      16.083   7.371  33.093  0.00  0.00    +0.024 A 
ENDBRANCH  19  22
ENDBRANCH  15  16
ENDBRANCH  13  15
ENDBRANCH  12  13
ENDBRANCH  10  12
ENDBRANCH   6   8
ENDBRANCH   5   6
ENDBRANCH   1   5
BRANCH   3  29
ATOM     29  C   UNL     1      17.413   3.933  22.676  0.00  0.00    +0.141 C 
BRANCH  29  30
ATOM     30  C   UNL     1      17.091   2.458  22.891  0.00  0.00    +0.163 C 
BRANCH  30  31
ATOM     31  O   UNL     1      17.794   1.655  21.928  0.00  0.00    -0.388 OA
ATOM     32  H   UNL     1      17.198   0.998  21.561  0.00  0.00    +0.210 HD
ENDBRANCH  30  31
BRANCH  30  33
ATOM     33  C   UNL     1      17.469   2.053  24.326  0.00  0.00    +0.175 C 
BRANCH  33  34
ATOM     34  C   UNL     1      17.865   0.572  24.423  0.00  0.00    +0.176 C 
ATOM     35  O   UNL     1      16.698  -0.226  24.085  0.00  0.00    -0.332 OA
ATOM     36  C   UNL     1      16.917  -1.674  24.021  0.00  0.00    +0.277 C 
ATOM     37  C   UNL     1      17.536  -2.186  25.346  0.00  0.00    +0.110 C 
ATOM     38  C   UNL     1      18.762  -1.348  25.763  0.00  0.00    +0.143 C 
ATOM     39  C   UNL     1      18.423   0.143  25.793  0.00  0.00    +0.133 C 
BRANCH  39  40
ATOM     40  N   UNL     1      19.620   0.938  26.107  0.00  0.00    -0.308 N 
ATOM     41  H   UNL     1      20.422   0.842  25.501  0.00  0.00    +0.149 HD
ATOM     42  C   UNL     1      19.716   1.778  27.142  0.00  0.00    +0.210 C 
ATOM     43  C   UNL     1      18.486   1.881  28.063  0.00  0.00    +0.109 C 
ATOM     44  O   UNL     1      20.727   2.442  27.372  0.00  0.00    -0.276 OA
ENDBRANCH  39  40
BRANCH  36  45
ATOM     45  C   UNL     1      17.847  -2.036  22.845  0.00  0.00    +0.414 C 
ATOM     46  O   UNL     1      18.010  -1.244  21.917  0.00  0.00    -0.240 OA
ATOM     47  O   UNL     1      18.434  -3.119  22.822  0.00  0.00    -0.240 OA
ENDBRANCH  36  45
BRANCH  36  48
ATOM     48  O   UNL     1      15.629  -2.316  23.840  0.00  0.00    -0.343 OA
ATOM     49  C   UNL     1      15.457  -3.560  24.566  0.00  0.00    +0.198 C 
ENDBRANCH  36  48
BRANCH  38  50
ATOM     50  O   UNL     1      19.206  -1.755  27.058  0.00  0.00    -0.390 OA
ATOM     51  H   UNL     1      20.166  -1.775  27.076  0.00  0.00    +0.210 HD
ENDBRANCH  38  50
ENDBRANCH  33  34
BRANCH  33  52
ATOM     52  O   UNL     1      16.379   2.335  25.225  0.00  0.00    -0.387 OA
ATOM     53  H   UNL     1      15.632   2.674  24.726  0.00  0.00    +0.210 HD
ENDBRANCH  33  52
ENDBRANCH  30  33
ENDBRANCH  29  30
ENDBRANCH   3  29
TORSDOF 18
