REMARK VINA RESULT:    -7.007      7.722     13.273
REMARK INTER + INTRA:         -14.412
REMARK INTER:                 -12.866
REMARK INTRA:                  -1.546
REMARK UNBOUND:                -1.875
REMARK  Name = lig_assembled_82.pdb
REMARK  19 active torsions:
REMARK  status: ('A' for Active; 'I' for Inactive)
REMARK    1  A    between atoms: _2  and  _9
REMARK    2  A    between atoms: _4  and  _22
REMARK    3  A    between atoms: _5  and  _16
REMARK    4  A    between atoms: _6  and  _7
REMARK    5  A    between atoms: _6  and  _22
REMARK    6  A    between atoms: _9  and  _10
REMARK    7  A    between atoms: _16  and  _17
REMARK    8  A    between atoms: _18  and  _38
REMARK    9  A    between atoms: _20  and  _26
REMARK   10  A    between atoms: _21  and  _25
REMARK   11  A    between atoms: _25  and  _26
REMARK   12  A    between atoms: _28  and  _29
REMARK   13  A    between atoms: _30  and  _31
REMARK   14  A    between atoms: _32  and  _34
REMARK   15  A    between atoms: _34  and  _35
REMARK   16  A    between atoms: _34  and  _36
REMARK   17  A    between atoms: _36  and  _37
REMARK   18  A    between atoms: _36  and  _38
REMARK   19  A    between atoms: _39  and  _41
REMARK                            x       y       z     vdW  Elec       q    Type
REMARK                         _______ _______ _______ _____ _____    ______ ____
ROOT
ATOM      1  C   UNL     1       7.271   2.456  34.378  0.00  0.00    +0.163 C 
ENDROOT
BRANCH   1   2
ATOM      2  O   UNL     1       7.219   2.489  35.814  0.00  0.00    -0.388 OA
ATOM      3  H   UNL     1       7.772   3.204  36.138  0.00  0.00    +0.210 HD
ENDBRANCH   1   2
BRANCH   1   4
ATOM      4  C   UNL     1       8.205   1.343  33.915  0.00  0.00    +0.141 C 
BRANCH   4   7
ATOM      5  C   UNL     1      10.442   1.719  34.894  0.00  0.00    +0.401 C 
ATOM      6  O   UNL     1      10.132   1.284  36.006  0.00  0.00    -0.226 OA
ATOM      7  N   UNL     1       9.603   1.789  33.860  0.00  0.00    -0.279 N 
ATOM      8  H   UNL     1       9.948   2.170  32.991  0.00  0.00    +0.152 HD
BRANCH   5   9
ATOM      9  O   UNL     1      11.776   2.186  34.679  0.00  0.00    -0.444 OA
BRANCH   9  10
ATOM     10  C   UNL     1      12.262   2.812  35.869  0.00  0.00    +0.292 C 
BRANCH  10  12
ATOM     11  N   UNL     1      13.908   3.837  34.332  0.00  0.00    -0.131 NA
ATOM     12  C   UNL     1      13.277   3.821  35.553  0.00  0.00    +0.120 A 
ATOM     13  C   UNL     1      13.782   4.857  36.319  0.00  0.00    +0.137 A 
ATOM     14  N   UNL     1      14.794   5.371  35.559  0.00  0.00    -0.247 N 
ATOM     15  N   UNL     1      14.804   4.813  34.334  0.00  0.00    -0.065 NA
BRANCH  14  16
ATOM     16  C   UNL     1      15.840   6.318  35.955  0.00  0.00    +0.176 C 
BRANCH  16  17
ATOM     17  C   UNL     1      16.482   7.001  34.771  0.00  0.00    -0.049 C 
ATOM     18  C   UNL     1      15.717   8.100  34.103  0.00  0.00    +0.023 C 
ATOM     19  C   UNL     1      16.527   9.348  33.529  0.00  0.00    -0.025 C 
ATOM     20  C   UNL     1      17.806  10.036  34.025  0.00  0.00    +0.012 C 
ATOM     21  C   UNL     1      16.902   8.298  32.382  0.00  0.00    -0.000 C 
ATOM     22  C   UNL     1      17.972   7.238  32.794  0.00  0.00    +0.031 C 
ATOM     23  C   UNL     1      15.459  10.465  33.419  0.00  0.00    +0.012 C 
ATOM     24  C   UNL     1      15.478   7.717  32.587  0.00  0.00    +0.012 C 
ATOM     25  C   UNL     1      17.602   6.616  34.131  0.00  0.00    -0.025 C 
ENDBRANCH  16  17
ENDBRANCH  14  16
ENDBRANCH  10  12
ENDBRANCH   9  10
ENDBRANCH   5   9
ENDBRANCH   4   7
ENDBRANCH   1   4
BRANCH   1  26
ATOM     26  C   UNL     1       7.756   3.802  33.814  0.00  0.00    +0.175 C 
BRANCH  26  27
ATOM     27  C   UNL     1       7.126   4.996  34.546  0.00  0.00    +0.176 C 
ATOM     28  O   UNL     1       7.831   5.172  35.805  0.00  0.00    -0.332 OA
ATOM     29  C   UNL     1       7.433   6.340  36.597  0.00  0.00    +0.277 C 
ATOM     30  C   UNL     1       5.906   6.326  36.851  0.00  0.00    +0.110 C 
ATOM     31  C   UNL     1       5.113   6.109  35.544  0.00  0.00    +0.143 C 
ATOM     32  C   UNL     1       5.612   4.871  34.799  0.00  0.00    +0.133 C 
BRANCH  32  33
ATOM     33  N   UNL     1       4.909   4.724  33.515  0.00  0.00    -0.308 N 
ATOM     34  H   UNL     1       5.110   5.397  32.788  0.00  0.00    +0.149 HD
ATOM     35  C   UNL     1       4.023   3.761  33.247  0.00  0.00    +0.210 C 
ATOM     36  C   UNL     1       3.719   2.768  34.384  0.00  0.00    +0.109 C 
ATOM     37  O   UNL     1       3.460   3.655  32.157  0.00  0.00    -0.276 OA
ENDBRANCH  32  33
BRANCH  29  38
ATOM     38  C   UNL     1       7.825   7.647  35.879  0.00  0.00    +0.414 C 
ATOM     39  O   UNL     1       8.121   8.648  36.530  0.00  0.00    -0.240 OA
ATOM     40  O   UNL     1       7.844   7.702  34.648  0.00  0.00    -0.240 OA
ENDBRANCH  29  38
BRANCH  29  41
ATOM     41  O   UNL     1       8.110   6.265  37.878  0.00  0.00    -0.343 OA
ATOM     42  C   UNL     1       9.417   5.638  37.844  0.00  0.00    +0.198 C 
ENDBRANCH  29  41
BRANCH  31  43
ATOM     43  O   UNL     1       3.726   5.952  35.843  0.00  0.00    -0.390 OA
ATOM     44  H   UNL     1       3.298   5.466  35.134  0.00  0.00    +0.210 HD
ENDBRANCH  31  43
ENDBRANCH  26  27
BRANCH  26  45
ATOM     45  O   UNL     1       7.474   3.880  32.402  0.00  0.00    -0.387 OA
ATOM     46  H   UNL     1       6.733   4.473  32.256  0.00  0.00    +0.210 HD
ENDBRANCH  26  45
ENDBRANCH   1  26
TORSDOF 15
