REMARK VINA RESULT:    -6.701     15.125     18.950
REMARK INTER + INTRA:         -14.106
REMARK INTER:                 -12.236
REMARK INTRA:                  -1.870
REMARK UNBOUND:                -1.921
REMARK  Name = lig_assembled_23.pdb
REMARK  18 active torsions:
REMARK  status: ('A' for Active; 'I' for Inactive)
REMARK    1  A    between atoms: _2  and  _10
REMARK    2  A    between atoms: _3  and  _41
REMARK    3  A    between atoms: _5  and  _21
REMARK    4  A    between atoms: _7  and  _8
REMARK    5  A    between atoms: _7  and  _21
REMARK    6  A    between atoms: _12  and  _41
REMARK    7  A    between atoms: _17  and  _37
REMARK    8  A    between atoms: _19  and  _25
REMARK    9  A    between atoms: _20  and  _24
REMARK   10  A    between atoms: _24  and  _25
REMARK   11  A    between atoms: _27  and  _28
REMARK   12  A    between atoms: _29  and  _30
REMARK   13  A    between atoms: _31  and  _33
REMARK   14  A    between atoms: _33  and  _34
REMARK   15  A    between atoms: _33  and  _35
REMARK   16  A    between atoms: _35  and  _36
REMARK   17  A    between atoms: _35  and  _37
REMARK   18  A    between atoms: _38  and  _40
REMARK                            x       y       z     vdW  Elec       q    Type
REMARK                         _______ _______ _______ _____ _____    ______ ____
ROOT
ATOM      1  C   UNL     1       2.020   3.758  32.058  0.00  0.00    +0.141 C 
ENDROOT
BRANCH   1   4
ATOM      2  C   UNL     1       1.069   3.923  29.784  0.00  0.00    +0.401 C 
ATOM      3  O   UNL     1       0.010   4.430  30.162  0.00  0.00    -0.226 OA
ATOM      4  N   UNL     1       2.061   3.571  30.603  0.00  0.00    -0.279 N 
ATOM      5  H   UNL     1       2.888   3.153  30.199  0.00  0.00    +0.152 HD
BRANCH   2   6
ATOM      6  O   UNL     1       1.265   3.684  28.388  0.00  0.00    -0.444 OA
BRANCH   6   7
ATOM      7  C   UNL     1       0.007   3.399  27.770  0.00  0.00    +0.292 C 
BRANCH   7   9
ATOM      8  N   UNL     1      -0.489   5.197  26.147  0.00  0.00    -0.131 NA
ATOM      9  C   UNL     1      -0.024   3.939  26.399  0.00  0.00    +0.121 A 
ATOM     10  C   UNL     1       0.366   3.359  25.212  0.00  0.00    +0.143 A 
ATOM     11  N   UNL     1       0.126   4.316  24.254  0.00  0.00    -0.220 N 
ATOM     12  N   UNL     1      -0.398   5.418  24.843  0.00  0.00    -0.060 NA
BRANCH  11  13
ATOM     13  C   UNL     1       0.347   4.250  22.854  0.00  0.00    +0.069 A 
ATOM     14  C   UNL     1      -0.752   4.182  21.985  0.00  0.00    +0.056 A 
ATOM     15  C   UNL     1      -0.538   4.082  20.606  0.00  0.00    +0.107 A 
ATOM     16  C   UNL     1       0.755   4.074  20.080  0.00  0.00    +0.028 A 
ATOM     17  C   UNL     1       1.846   4.156  20.943  0.00  0.00    +0.004 A 
ATOM     18  C   UNL     1       1.646   4.239  22.326  0.00  0.00    +0.028 A 
BRANCH  15  19
ATOM     19  S   UNL     1      -1.933   3.939  19.531  0.00  0.00    +0.056 S 
ATOM     20  O   UNL     1      -2.010   2.581  19.046  0.00  0.00    -0.153 OA
ATOM     21  O   UNL     1      -3.061   4.623  20.120  0.00  0.00    -0.153 OA
BRANCH  19  22
ATOM     22  N   UNL     1      -1.468   4.889  18.227  0.00  0.00    -0.204 NA
ATOM     23  H   UNL     1      -0.451   4.901  18.149  0.00  0.00    +0.144 HD
ATOM     24  H   UNL     1      -1.889   5.816  18.302  0.00  0.00    +0.144 HD
ENDBRANCH  19  22
ENDBRANCH  15  19
ENDBRANCH  11  13
ENDBRANCH   7   9
ENDBRANCH   6   7
ENDBRANCH   2   6
ENDBRANCH   1   4
BRANCH   1  25
ATOM     25  C   UNL     1       3.144   3.002  32.760  0.00  0.00    +0.163 C 
BRANCH  25  26
ATOM     26  O   UNL     1       3.872   2.209  31.808  0.00  0.00    -0.388 OA
ATOM     27  H   UNL     1       4.792   2.149  32.079  0.00  0.00    +0.210 HD
ENDBRANCH  25  26
BRANCH  25  28
ATOM     28  C   UNL     1       4.072   4.003  33.469  0.00  0.00    +0.175 C 
BRANCH  28  29
ATOM     29  C   UNL     1       5.487   3.438  33.667  0.00  0.00    +0.176 C 
ATOM     30  O   UNL     1       5.360   2.080  34.172  0.00  0.00    -0.332 OA
ATOM     31  C   UNL     1       6.616   1.340  34.322  0.00  0.00    +0.277 C 
ATOM     32  C   UNL     1       7.610   2.135  35.204  0.00  0.00    +0.110 C 
ATOM     33  C   UNL     1       7.754   3.595  34.725  0.00  0.00    +0.143 C 
ATOM     34  C   UNL     1       6.387   4.269  34.600  0.00  0.00    +0.133 C 
BRANCH  34  35
ATOM     35  N   UNL     1       6.531   5.630  34.061  0.00  0.00    -0.308 N 
ATOM     36  H   UNL     1       6.788   5.727  33.088  0.00  0.00    +0.149 HD
ATOM     37  C   UNL     1       6.345   6.745  34.772  0.00  0.00    +0.210 C 
ATOM     38  C   UNL     1       5.980   6.563  36.257  0.00  0.00    +0.109 C 
ATOM     39  O   UNL     1       6.459   7.873  34.289  0.00  0.00    -0.276 OA
ENDBRANCH  34  35
BRANCH  31  40
ATOM     40  C   UNL     1       7.256   1.062  32.946  0.00  0.00    +0.414 C 
ATOM     41  O   UNL     1       8.478   0.983  32.835  0.00  0.00    -0.240 OA
ATOM     42  O   UNL     1       6.550   0.917  31.948  0.00  0.00    -0.240 OA
ENDBRANCH  31  40
BRANCH  33  43
ATOM     43  O   UNL     1       8.558   4.328  35.650  0.00  0.00    -0.390 OA
ATOM     44  H   UNL     1       9.367   3.843  35.827  0.00  0.00    +0.210 HD
ENDBRANCH  33  43
BRANCH  31  45
ATOM     45  O   UNL     1       6.320   0.084  34.986  0.00  0.00    -0.343 OA
ATOM     46  C   UNL     1       4.908  -0.216  35.126  0.00  0.00    +0.198 C 
ENDBRANCH  31  45
ENDBRANCH  28  29
BRANCH  28  47
ATOM     47  O   UNL     1       3.510   4.389  34.738  0.00  0.00    -0.387 OA
ATOM     48  H   UNL     1       2.554   4.442  34.663  0.00  0.00    +0.210 HD
ENDBRANCH  28  47
ENDBRANCH  25  28
ENDBRANCH   1  25
TORSDOF 16
