REMARK VINA RESULT:    -6.612      3.231      5.088
REMARK INTER + INTRA:         -15.007
REMARK INTER:                 -12.630
REMARK INTRA:                  -2.377
REMARK UNBOUND:                -2.597
REMARK  Name = lig_assembled_77.pdb
REMARK  19 active torsions:
REMARK  status: ('A' for Active; 'I' for Inactive)
REMARK    1  A    between atoms: _2  and  _10
REMARK    2  A    between atoms: _3  and  _17
REMARK    3  A    between atoms: _5  and  _27
REMARK    4  A    between atoms: _7  and  _8
REMARK    5  A    between atoms: _7  and  _27
REMARK    6  A    between atoms: _13  and  _47
REMARK    7  A    between atoms: _14  and  _47
REMARK    8  A    between atoms: _23  and  _43
REMARK    9  A    between atoms: _25  and  _31
REMARK   10  A    between atoms: _26  and  _30
REMARK   11  A    between atoms: _30  and  _31
REMARK   12  A    between atoms: _33  and  _34
REMARK   13  A    between atoms: _35  and  _36
REMARK   14  A    between atoms: _37  and  _39
REMARK   15  A    between atoms: _39  and  _40
REMARK   16  A    between atoms: _39  and  _41
REMARK   17  A    between atoms: _41  and  _42
REMARK   18  A    between atoms: _41  and  _43
REMARK   19  A    between atoms: _44  and  _46
REMARK                            x       y       z     vdW  Elec       q    Type
REMARK                         _______ _______ _______ _____ _____    ______ ____
ROOT
ATOM      1  C   UNL     1       4.651   0.687  31.941  0.00  0.00    +0.401 C 
ATOM      2  O   UNL     1       4.822  -0.482  32.294  0.00  0.00    -0.226 OA
ATOM      3  N   UNL     1       5.310   1.725  32.457  0.00  0.00    -0.279 N 
ATOM      4  H   UNL     1       5.107   2.647  32.095  0.00  0.00    +0.152 HD
ENDROOT
BRANCH   3   5
ATOM      5  C   UNL     1       6.315   1.605  33.520  0.00  0.00    +0.141 C 
BRANCH   5   6
ATOM      6  C   UNL     1       7.628   2.283  33.141  0.00  0.00    +0.163 C 
BRANCH   6   7
ATOM      7  O   UNL     1       7.390   3.293  32.146  0.00  0.00    -0.388 OA
ATOM      8  H   UNL     1       7.562   2.930  31.274  0.00  0.00    +0.210 HD
ENDBRANCH   6   7
BRANCH   6   9
ATOM      9  C   UNL     1       8.274   2.891  34.398  0.00  0.00    +0.175 C 
BRANCH   9  10
ATOM     10  C   UNL     1       7.288   3.761  35.191  0.00  0.00    +0.176 C 
ATOM     11  O   UNL     1       7.082   4.994  34.448  0.00  0.00    -0.332 OA
ATOM     12  C   UNL     1       6.082   5.910  35.005  0.00  0.00    +0.277 C 
ATOM     13  C   UNL     1       6.412   6.239  36.481  0.00  0.00    +0.110 C 
ATOM     14  C   UNL     1       6.671   4.960  37.305  0.00  0.00    +0.143 C 
ATOM     15  C   UNL     1       7.725   4.079  36.634  0.00  0.00    +0.133 C 
BRANCH  15  16
ATOM     16  N   UNL     1       7.900   2.824  37.381  0.00  0.00    -0.308 N 
ATOM     17  H   UNL     1       7.100   2.214  37.474  0.00  0.00    +0.149 HD
ATOM     18  C   UNL     1       9.047   2.438  37.946  0.00  0.00    +0.210 C 
ATOM     19  C   UNL     1      10.242   3.401  37.810  0.00  0.00    +0.109 C 
ATOM     20  O   UNL     1       9.169   1.374  38.554  0.00  0.00    -0.276 OA
ENDBRANCH  15  16
BRANCH  12  21
ATOM     21  C   UNL     1       4.669   5.297  34.917  0.00  0.00    +0.414 C 
ATOM     22  O   UNL     1       4.361   4.583  33.963  0.00  0.00    -0.240 OA
ATOM     23  O   UNL     1       3.837   5.515  35.799  0.00  0.00    -0.240 OA
ENDBRANCH  12  21
BRANCH  14  24
ATOM     24  O   UNL     1       7.118   5.313  38.615  0.00  0.00    -0.390 OA
ATOM     25  H   UNL     1       6.994   4.568  39.208  0.00  0.00    +0.210 HD
ENDBRANCH  14  24
BRANCH  12  26
ATOM     26  O   UNL     1       6.128   7.142  34.241  0.00  0.00    -0.343 OA
ATOM     27  C   UNL     1       7.351   7.908  34.386  0.00  0.00    +0.198 C 
ENDBRANCH  12  26
ENDBRANCH   9  10
BRANCH   9  28
ATOM     28  O   UNL     1       9.437   3.662  34.035  0.00  0.00    -0.387 OA
ATOM     29  H   UNL     1       9.204   4.592  33.995  0.00  0.00    +0.210 HD
ENDBRANCH   9  28
ENDBRANCH   6   9
ENDBRANCH   5   6
ENDBRANCH   3   5
BRANCH   1  30
ATOM     30  O   UNL     1       3.695   0.970  30.917  0.00  0.00    -0.444 OA
BRANCH  30  31
ATOM     31  C   UNL     1       2.749   1.930  31.397  0.00  0.00    +0.292 C 
BRANCH  31  33
ATOM     32  N   UNL     1       1.188   3.615  30.483  0.00  0.00    -0.131 NA
ATOM     33  C   UNL     1       2.087   2.612  30.268  0.00  0.00    +0.121 A 
ATOM     34  C   UNL     1       2.222   2.411  28.914  0.00  0.00    +0.143 A 
ATOM     35  N   UNL     1       1.381   3.333  28.332  0.00  0.00    -0.220 N 
ATOM     36  N   UNL     1       0.756   4.041  29.304  0.00  0.00    -0.060 NA
BRANCH  35  37
ATOM     37  C   UNL     1       1.187   3.616  26.954  0.00  0.00    +0.067 A 
ATOM     38  C   UNL     1       2.248   3.517  26.041  0.00  0.00    +0.030 A 
ATOM     39  C   UNL     1       2.069   3.917  24.713  0.00  0.00    +0.029 A 
ATOM     40  C   UNL     1       0.830   4.408  24.299  0.00  0.00    +0.094 A 
ATOM     41  C   UNL     1      -0.259   4.425  25.176  0.00  0.00    +0.029 A 
ATOM     42  C   UNL     1      -0.076   4.040  26.507  0.00  0.00    +0.030 A 
BRANCH  40  43
ATOM     43  S   UNL     1       0.623   4.982  22.625  0.00  0.00    +0.025 S 
ATOM     44  O   UNL     1      -0.706   5.565  22.558  0.00  0.00    -0.164 OA
ATOM     45  O   UNL     1       1.794   5.769  22.289  0.00  0.00    -0.164 OA
BRANCH  43  46
ATOM     46  C   UNL     1       0.632   3.578  21.529  0.00  0.00    +0.094 A 
ATOM     47  C   UNL     1       1.826   3.084  21.003  0.00  0.00    +0.029 A 
ATOM     48  C   UNL     1       1.791   2.017  20.097  0.00  0.00    +0.024 A 
ATOM     49  C   UNL     1       0.579   1.408  19.745  0.00  0.00    +0.025 A 
ATOM     50  C   UNL     1      -0.609   1.936  20.259  0.00  0.00    +0.024 A 
ATOM     51  C   UNL     1      -0.588   3.001  21.163  0.00  0.00    +0.029 A 
BRANCH  49  52
ATOM     52  N   UNL     1       0.539   0.464  18.715  0.00  0.00    -0.358 N 
ATOM     53  H   UNL     1       0.572  -0.503  19.023  0.00  0.00    +0.142 HD
ATOM     54  H   UNL     1      -0.185   0.627  18.024  0.00  0.00    +0.142 HD
ENDBRANCH  49  52
ENDBRANCH  43  46
ENDBRANCH  40  43
ENDBRANCH  35  37
ENDBRANCH  31  33
ENDBRANCH  30  31
ENDBRANCH   1  30
TORSDOF 17
