REMARK VINA RESULT:    -6.104     15.143     18.523
REMARK INTER + INTRA:         -13.055
REMARK INTER:                 -11.231
REMARK INTRA:                  -1.824
REMARK UNBOUND:                -2.491
REMARK  Name = lig_assembled_57.pdb
REMARK  17 active torsions:
REMARK  status: ('A' for Active; 'I' for Inactive)
REMARK    1  A    between atoms: _2  and  _10
REMARK    2  A    between atoms: _3  and  _13
REMARK    3  A    between atoms: _5  and  _19
REMARK    4  A    between atoms: _7  and  _8
REMARK    5  A    between atoms: _7  and  _19
REMARK    6  A    between atoms: _15  and  _35
REMARK    7  A    between atoms: _17  and  _23
REMARK    8  A    between atoms: _18  and  _22
REMARK    9  A    between atoms: _22  and  _23
REMARK   10  A    between atoms: _25  and  _26
REMARK   11  A    between atoms: _27  and  _28
REMARK   12  A    between atoms: _29  and  _31
REMARK   13  A    between atoms: _31  and  _32
REMARK   14  A    between atoms: _31  and  _33
REMARK   15  A    between atoms: _33  and  _34
REMARK   16  A    between atoms: _33  and  _35
REMARK   17  A    between atoms: _36  and  _38
REMARK                            x       y       z     vdW  Elec       q    Type
REMARK                         _______ _______ _______ _____ _____    ______ ____
ROOT
ATOM      1  C   UNL     1      17.294   1.978  26.167  0.00  0.00    +0.163 C 
ENDROOT
BRANCH   1   2
ATOM      2  O   UNL     1      16.378   2.864  26.830  0.00  0.00    -0.388 OA
ATOM      3  H   UNL     1      15.593   2.377  27.092  0.00  0.00    +0.210 HD
ENDBRANCH   1   2
BRANCH   1   4
ATOM      4  C   UNL     1      18.647   2.661  25.994  0.00  0.00    +0.141 C 
BRANCH   4   7
ATOM      5  C   UNL     1      18.632   4.972  25.121  0.00  0.00    +0.401 C 
ATOM      6  O   UNL     1      18.812   4.631  23.949  0.00  0.00    -0.226 OA
ATOM      7  N   UNL     1      18.548   4.118  26.141  0.00  0.00    -0.279 N 
ATOM      8  H   UNL     1      18.408   4.494  27.068  0.00  0.00    +0.152 HD
BRANCH   5   9
ATOM      9  O   UNL     1      18.506   6.363  25.428  0.00  0.00    -0.444 OA
BRANCH   9  10
ATOM     10  C   UNL     1      19.720   7.039  25.088  0.00  0.00    +0.292 C 
BRANCH  10  12
ATOM     11  N   UNL     1      20.482   9.244  25.896  0.00  0.00    -0.131 NA
ATOM     12  C   UNL     1      20.104   7.962  26.172  0.00  0.00    +0.120 A 
ATOM     13  C   UNL     1      20.134   7.766  27.536  0.00  0.00    +0.137 A 
ATOM     14  N   UNL     1      20.451   8.991  28.041  0.00  0.00    -0.248 N 
ATOM     15  N   UNL     1      20.731   9.855  27.043  0.00  0.00    -0.065 NA
BRANCH  14  16
ATOM     16  C   UNL     1      20.466   9.488  29.413  0.00  0.00    +0.111 C 
ATOM     17  C   UNL     1      19.735  10.835  29.512  0.00  0.00    +0.042 C 
ATOM     18  C   UNL     1      18.224  10.633  29.418  0.00  0.00    +0.086 C 
ATOM     19  N   UNL     1      17.700   9.751  30.467  0.00  0.00    -0.305 NA
ATOM     20  C   UNL     1      18.383   8.458  30.508  0.00  0.00    +0.086 C 
ATOM     21  C   UNL     1      17.649  10.409  31.770  0.00  0.00    +0.104 C 
ATOM     22  C   UNL     1      19.916   8.534  30.487  0.00  0.00    +0.042 C 
ENDBRANCH  14  16
ENDBRANCH  10  12
ENDBRANCH   9  10
ENDBRANCH   5   9
ENDBRANCH   4   7
ENDBRANCH   1   4
BRANCH   1  23
ATOM     23  C   UNL     1      16.751   1.556  24.791  0.00  0.00    +0.175 C 
BRANCH  23  24
ATOM     24  C   UNL     1      17.800   0.797  23.964  0.00  0.00    +0.176 C 
ATOM     25  O   UNL     1      17.878   1.426  22.655  0.00  0.00    -0.332 OA
ATOM     26  C   UNL     1      18.911   0.898  21.759  0.00  0.00    +0.277 C 
ATOM     27  C   UNL     1      18.753  -0.634  21.595  0.00  0.00    +0.110 C 
ATOM     28  C   UNL     1      18.635  -1.343  22.960  0.00  0.00    +0.143 C 
ATOM     29  C   UNL     1      17.533  -0.712  23.813  0.00  0.00    +0.133 C 
BRANCH  29  30
ATOM     30  N   UNL     1      17.488  -1.339  25.143  0.00  0.00    -0.308 N 
ATOM     31  H   UNL     1      18.231  -1.122  25.792  0.00  0.00    +0.149 HD
ATOM     32  C   UNL     1      16.529  -2.176  25.549  0.00  0.00    +0.210 C 
ATOM     33  C   UNL     1      15.425  -2.507  24.527  0.00  0.00    +0.109 C 
ATOM     34  O   UNL     1      16.509  -2.675  26.674  0.00  0.00    -0.276 OA
ENDBRANCH  29  30
BRANCH  26  35
ATOM     35  C   UNL     1      20.320   1.216  22.300  0.00  0.00    +0.414 C 
ATOM     36  O   UNL     1      20.580   2.340  22.729  0.00  0.00    -0.240 OA
ATOM     37  O   UNL     1      21.196   0.351  22.307  0.00  0.00    -0.240 OA
ENDBRANCH  26  35
BRANCH  28  38
ATOM     38  O   UNL     1      18.340  -2.727  22.761  0.00  0.00    -0.390 OA
ATOM     39  H   UNL     1      19.056  -3.139  22.272  0.00  0.00    +0.210 HD
ENDBRANCH  28  38
BRANCH  26  40
ATOM     40  O   UNL     1      18.735   1.517  20.458  0.00  0.00    -0.343 OA
ATOM     41  C   UNL     1      17.364   1.837  20.112  0.00  0.00    +0.198 C 
ENDBRANCH  26  40
ENDBRANCH  23  24
BRANCH  23  42
ATOM     42  O   UNL     1      16.287   2.711  24.064  0.00  0.00    -0.387 OA
ATOM     43  H   UNL     1      16.526   2.625  23.138  0.00  0.00    +0.210 HD
ENDBRANCH  23  42
ENDBRANCH   1  23
TORSDOF 14
