REMARK VINA RESULT:    -6.569      6.624      8.385
REMARK INTER + INTRA:         -12.572
REMARK INTER:                  -9.883
REMARK INTRA:                  -2.688
REMARK UNBOUND:                -1.202
REMARK  Name = lig_assembled_40.pdb
REMARK  17 active torsions:
REMARK  status: ('A' for Active; 'I' for Inactive)
REMARK    1  A    between atoms: _2  and  _9
REMARK    2  A    between atoms: _4  and  _19
REMARK    3  A    between atoms: _6  and  _7
REMARK    4  A    between atoms: _6  and  _19
REMARK    5  A    between atoms: _12  and  _13
REMARK    6  A    between atoms: _15  and  _35
REMARK    7  A    between atoms: _17  and  _23
REMARK    8  A    between atoms: _18  and  _22
REMARK    9  A    between atoms: _22  and  _23
REMARK   10  A    between atoms: _25  and  _26
REMARK   11  A    between atoms: _27  and  _28
REMARK   12  A    between atoms: _29  and  _31
REMARK   13  A    between atoms: _31  and  _32
REMARK   14  A    between atoms: _31  and  _33
REMARK   15  A    between atoms: _33  and  _34
REMARK   16  A    between atoms: _33  and  _35
REMARK   17  A    between atoms: _36  and  _38
REMARK                            x       y       z     vdW  Elec       q    Type
REMARK                         _______ _______ _______ _____ _____    ______ ____
ROOT
ATOM      1  C   UNL     1       0.433   0.513  28.411  0.00  0.00    +0.163 C 
ENDROOT
BRANCH   1   2
ATOM      2  O   UNL     1       0.174  -0.900  28.449  0.00  0.00    -0.388 OA
ATOM      3  H   UNL     1       0.709  -1.305  29.135  0.00  0.00    +0.210 HD
ENDBRANCH   1   2
BRANCH   1   4
ATOM      4  C   UNL     1      -0.877   1.280  28.265  0.00  0.00    +0.141 C 
BRANCH   4   7
ATOM      5  C   UNL     1      -0.885   3.732  27.957  0.00  0.00    +0.401 C 
ATOM      6  O   UNL     1      -1.216   3.971  29.121  0.00  0.00    -0.226 OA
ATOM      7  N   UNL     1      -0.710   2.503  27.470  0.00  0.00    -0.279 N 
ATOM      8  H   UNL     1      -0.447   2.408  26.499  0.00  0.00    +0.152 HD
BRANCH   5   9
ATOM      9  O   UNL     1      -0.675   4.823  27.057  0.00  0.00    -0.444 OA
BRANCH   9  10
ATOM     10  C   UNL     1      -1.510   4.661  25.907  0.00  0.00    +0.292 C 
BRANCH  10  12
ATOM     11  N   UNL     1       0.478   5.471  24.676  0.00  0.00    -0.131 NA
ATOM     12  C   UNL     1      -0.720   4.818  24.672  0.00  0.00    +0.121 A 
ATOM     13  C   UNL     1      -0.985   4.375  23.398  0.00  0.00    +0.143 A 
ATOM     14  N   UNL     1       0.106   4.756  22.651  0.00  0.00    -0.220 N 
ATOM     15  N   UNL     1       0.971   5.438  23.444  0.00  0.00    -0.060 NA
BRANCH  14  16
ATOM     16  C   UNL     1       0.384   4.483  21.287  0.00  0.00    +0.067 A 
ATOM     17  C   UNL     1      -0.593   4.675  20.304  0.00  0.00    +0.028 A 
ATOM     18  C   UNL     1      -0.328   4.336  18.974  0.00  0.00    +0.005 A 
ATOM     19  C   UNL     1       0.912   3.803  18.609  0.00  0.00    -0.050 A 
ATOM     20  C   UNL     1       1.901   3.646  19.587  0.00  0.00    +0.005 A 
ATOM     21  C   UNL     1       1.184   3.394  17.191  0.00  0.00    +0.044 C 
ATOM     22  C   UNL     1       1.642   3.983  20.919  0.00  0.00    +0.028 A 
ENDBRANCH  14  16
ENDBRANCH  10  12
ENDBRANCH   9  10
ENDBRANCH   5   9
ENDBRANCH   4   7
ENDBRANCH   1   4
BRANCH   1  23
ATOM     23  C   UNL     1       1.370   0.869  27.243  0.00  0.00    +0.175 C 
BRANCH  23  24
ATOM     24  C   UNL     1       2.280  -0.305  26.854  0.00  0.00    +0.176 C 
ATOM     25  O   UNL     1       3.284  -0.456  27.895  0.00  0.00    -0.332 OA
ATOM     26  C   UNL     1       4.184  -1.604  27.745  0.00  0.00    +0.277 C 
ATOM     27  C   UNL     1       4.870  -1.576  26.357  0.00  0.00    +0.110 C 
ATOM     28  C   UNL     1       3.845  -1.384  25.220  0.00  0.00    +0.143 C 
ATOM     29  C   UNL     1       2.959  -0.165  25.479  0.00  0.00    +0.133 C 
BRANCH  29  30
ATOM     30  N   UNL     1       1.931  -0.044  24.433  0.00  0.00    -0.308 N 
ATOM     31  H   UNL     1       1.374  -0.860  24.222  0.00  0.00    +0.149 HD
ATOM     32  C   UNL     1       1.686   1.074  23.745  0.00  0.00    +0.210 C 
ATOM     33  C   UNL     1       2.569   2.293  24.072  0.00  0.00    +0.109 C 
ATOM     34  O   UNL     1       0.808   1.151  22.885  0.00  0.00    -0.276 OA
ENDBRANCH  29  30
BRANCH  26  35
ATOM     35  C   UNL     1       3.413  -2.929  27.913  0.00  0.00    +0.414 C 
ATOM     36  O   UNL     1       3.810  -3.952  27.356  0.00  0.00    -0.240 OA
ATOM     37  O   UNL     1       2.396  -2.976  28.605  0.00  0.00    -0.240 OA
ENDBRANCH  26  35
BRANCH  28  38
ATOM     38  O   UNL     1       4.530  -1.213  23.978  0.00  0.00    -0.390 OA
ATOM     39  H   UNL     1       4.314  -0.353  23.609  0.00  0.00    +0.210 HD
ENDBRANCH  28  38
BRANCH  26  40
ATOM     40  O   UNL     1       5.212  -1.504  28.765  0.00  0.00    -0.343 OA
ATOM     41  C   UNL     1       6.530  -1.941  28.350  0.00  0.00    +0.198 C 
ENDBRANCH  26  40
ENDBRANCH  23  24
BRANCH  23  42
ATOM     42  O   UNL     1       2.164   2.024  27.578  0.00  0.00    -0.387 OA
ATOM     43  H   UNL     1       2.827   1.779  28.229  0.00  0.00    +0.210 HD
ENDBRANCH  23  42
ENDBRANCH   1  23
TORSDOF 14
