REMARK VINA RESULT:    -6.010     15.279     17.470
REMARK INTER + INTRA:         -15.467
REMARK INTER:                 -12.334
REMARK INTRA:                  -3.133
REMARK UNBOUND:                -3.133
REMARK  Name = lig_assembled_90.pdb
REMARK  22 active torsions:
REMARK  status: ('A' for Active; 'I' for Inactive)
REMARK    1  A    between atoms: _2  and  _13
REMARK    2  A    between atoms: _3  and  _15
REMARK    3  A    between atoms: _4  and  _17
REMARK    4  A    between atoms: _8  and  _28
REMARK    5  A    between atoms: _10  and  _11
REMARK    6  A    between atoms: _10  and  _28
REMARK    7  A    between atoms: _13  and  _14
REMARK    8  A    between atoms: _15  and  _16
REMARK    9  A    between atoms: _16  and  _17
REMARK   10  A    between atoms: _16  and  _22
REMARK   11  A    between atoms: _24  and  _44
REMARK   12  A    between atoms: _26  and  _32
REMARK   13  A    between atoms: _27  and  _31
REMARK   14  A    between atoms: _31  and  _32
REMARK   15  A    between atoms: _34  and  _35
REMARK   16  A    between atoms: _36  and  _37
REMARK   17  A    between atoms: _38  and  _40
REMARK   18  A    between atoms: _40  and  _41
REMARK   19  A    between atoms: _40  and  _42
REMARK   20  A    between atoms: _42  and  _43
REMARK   21  A    between atoms: _42  and  _44
REMARK   22  A    between atoms: _45  and  _47
REMARK                            x       y       z     vdW  Elec       q    Type
REMARK                         _______ _______ _______ _____ _____    ______ ____
ROOT
ATOM      1  C   UNL     1      -2.912   4.286  28.784  0.00  0.00    +0.401 C 
ATOM      2  O   UNL     1      -3.824   3.471  28.629  0.00  0.00    -0.226 OA
ATOM      3  N   UNL     1      -2.030   4.607  27.837  0.00  0.00    -0.279 N 
ATOM      4  H   UNL     1      -1.323   5.295  28.057  0.00  0.00    +0.152 HD
ENDROOT
BRANCH   3   5
ATOM      5  C   UNL     1      -2.028   4.018  26.493  0.00  0.00    +0.141 C 
BRANCH   5   6
ATOM      6  C   UNL     1      -1.090   4.762  25.547  0.00  0.00    +0.163 C 
BRANCH   6   7
ATOM      7  O   UNL     1      -1.180   6.177  25.778  0.00  0.00    -0.388 OA
ATOM      8  H   UNL     1      -1.178   6.349  26.723  0.00  0.00    +0.210 HD
ENDBRANCH   6   7
BRANCH   6   9
ATOM      9  C   UNL     1       0.350   4.261  25.754  0.00  0.00    +0.175 C 
BRANCH   9  10
ATOM     10  C   UNL     1       0.607   2.929  25.035  0.00  0.00    +0.176 C 
ATOM     11  O   UNL     1       1.500   2.137  25.866  0.00  0.00    -0.332 OA
ATOM     12  C   UNL     1       1.775   0.780  25.387  0.00  0.00    +0.277 C 
ATOM     13  C   UNL     1       2.310   0.817  23.934  0.00  0.00    +0.110 C 
ATOM     14  C   UNL     1       1.410   1.674  23.018  0.00  0.00    +0.143 C 
ATOM     15  C   UNL     1       1.187   3.064  23.614  0.00  0.00    +0.133 C 
BRANCH  15  16
ATOM     16  N   UNL     1       0.259   3.841  22.777  0.00  0.00    -0.308 N 
ATOM     17  H   UNL     1      -0.638   3.429  22.561  0.00  0.00    +0.149 HD
ATOM     18  C   UNL     1       0.525   5.053  22.284  0.00  0.00    +0.210 C 
ATOM     19  C   UNL     1       1.911   5.642  22.610  0.00  0.00    +0.109 C 
ATOM     20  O   UNL     1      -0.278   5.687  21.597  0.00  0.00    -0.276 OA
ENDBRANCH  15  16
BRANCH  12  21
ATOM     21  C   UNL     1       0.503  -0.090  25.446  0.00  0.00    +0.414 C 
ATOM     22  O   UNL     1       0.077  -0.637  24.429  0.00  0.00    -0.240 OA
ATOM     23  O   UNL     1      -0.099  -0.246  26.509  0.00  0.00    -0.240 OA
ENDBRANCH  12  21
BRANCH  14  24
ATOM     24  O   UNL     1       2.018   1.805  21.733  0.00  0.00    -0.390 OA
ATOM     25  H   UNL     1       2.575   1.043  21.562  0.00  0.00    +0.210 HD
ENDBRANCH  14  24
BRANCH  12  26
ATOM     26  O   UNL     1       2.801   0.203  26.236  0.00  0.00    -0.343 OA
ATOM     27  C   UNL     1       3.465  -0.963  25.688  0.00  0.00    +0.198 C 
ENDBRANCH  12  26
ENDBRANCH   9  10
BRANCH   9  28
ATOM     28  O   UNL     1       0.633   4.129  27.161  0.00  0.00    -0.387 OA
ATOM     29  H   UNL     1       0.068   4.726  27.659  0.00  0.00    +0.210 HD
ENDBRANCH   9  28
ENDBRANCH   6   9
ENDBRANCH   5   6
ENDBRANCH   3   5
BRANCH   1  30
ATOM     30  O   UNL     1      -2.775   4.942  30.048  0.00  0.00    -0.444 OA
BRANCH  30  31
ATOM     31  C   UNL     1      -2.176   4.047  30.989  0.00  0.00    +0.292 C 
BRANCH  31  33
ATOM     32  N   UNL     1       0.140   4.639  30.328  0.00  0.00    -0.131 NA
ATOM     33  C   UNL     1      -0.814   3.681  30.557  0.00  0.00    +0.120 A 
ATOM     34  C   UNL     1      -0.268   2.440  30.316  0.00  0.00    +0.137 A 
ATOM     35  N   UNL     1       1.022   2.708  29.967  0.00  0.00    -0.242 N 
ATOM     36  N   UNL     1       1.259   4.032  29.956  0.00  0.00    -0.065 NA
BRANCH  35  37
ATOM     37  C   UNL     1       2.041   1.784  29.532  0.00  0.00    +0.240 C 
BRANCH  37  38
ATOM     38  C   UNL     1       3.117   1.618  30.580  0.00  0.00    +0.235 C 
ATOM     39  O   UNL     1       3.516   0.516  30.953  0.00  0.00    -0.274 OA
ATOM     40  N   UNL     1       3.666   2.796  31.052  0.00  0.00    -0.311 N 
ATOM     41  H   UNL     1       3.141   3.659  30.936  0.00  0.00    +0.149 HD
BRANCH  40  42
ATOM     42  C   UNL     1       4.651   2.774  32.124  0.00  0.00    +0.137 C 
BRANCH  42  43
ATOM     43  C   UNL     1       4.438   3.941  33.100  0.00  0.00    +0.151 C 
BRANCH  43  44
ATOM     44  O   UNL     1       3.047   4.005  33.440  0.00  0.00    -0.388 OA
ATOM     45  H   UNL     1       2.676   3.099  33.431  0.00  0.00    +0.210 HD
ENDBRANCH  43  44
BRANCH  43  46
ATOM     46  C   UNL     1       5.312   3.801  34.352  0.00  0.00    +0.162 C 
BRANCH  46  47
ATOM     47  N   UNL     1       5.778   5.088  34.851  0.00  0.00    -0.269 N 
ATOM     48  C   UNL     1       6.868   5.746  34.326  0.00  0.00    +0.113 A 
ATOM     49  C   UNL     1       7.016   6.885  35.081  0.00  0.00    +0.137 A 
ATOM     50  N   UNL     1       6.053   6.947  36.056  0.00  0.00    -0.172 NA
ATOM     51  C   UNL     1       5.316   5.861  35.888  0.00  0.00    +0.450 A 
ATOM     52  N   UNL     1       4.178   5.564  36.725  0.00  0.00    +0.120 N 
ATOM     53  O   UNL     1       3.484   4.583  36.425  0.00  0.00    +0.045 OA
ATOM     54  O   UNL     1       3.979   6.306  37.695  0.00  0.00    -0.573 OA
ENDBRANCH  46  47
ENDBRANCH  43  46
ENDBRANCH  42  43
ENDBRANCH  40  42
ENDBRANCH  37  38
ENDBRANCH  35  37
ENDBRANCH  31  33
ENDBRANCH  30  31
ENDBRANCH   1  30
TORSDOF 20
