REMARK VINA RESULT:    -6.312      1.822      2.826
REMARK INTER + INTRA:         -13.042
REMARK INTER:                 -10.877
REMARK INTRA:                  -2.165
REMARK UNBOUND:                -2.118
REMARK  Name = lig_assembled_7.pdb
REMARK  19 active torsions:
REMARK  status: ('A' for Active; 'I' for Inactive)
REMARK    1  A    between atoms: _2  and  _9
REMARK    2  A    between atoms: _4  and  _21
REMARK    3  A    between atoms: _5  and  _16
REMARK    4  A    between atoms: _6  and  _7
REMARK    5  A    between atoms: _6  and  _21
REMARK    6  A    between atoms: _10  and  _11
REMARK    7  A    between atoms: _13  and  _14
REMARK    8  A    between atoms: _17  and  _37
REMARK    9  A    between atoms: _19  and  _25
REMARK   10  A    between atoms: _20  and  _24
REMARK   11  A    between atoms: _24  and  _25
REMARK   12  A    between atoms: _27  and  _28
REMARK   13  A    between atoms: _29  and  _30
REMARK   14  A    between atoms: _31  and  _33
REMARK   15  A    between atoms: _33  and  _34
REMARK   16  A    between atoms: _33  and  _35
REMARK   17  A    between atoms: _35  and  _36
REMARK   18  A    between atoms: _35  and  _37
REMARK   19  A    between atoms: _38  and  _40
REMARK                            x       y       z     vdW  Elec       q    Type
REMARK                         _______ _______ _______ _____ _____    ______ ____
ROOT
ATOM      1  C   UNL     1       3.756   2.297  32.497  0.00  0.00    +0.163 C 
ENDROOT
BRANCH   1   2
ATOM      2  O   UNL     1       4.982   2.127  31.768  0.00  0.00    -0.388 OA
ATOM      3  H   UNL     1       5.648   1.746  32.346  0.00  0.00    +0.210 HD
ENDBRANCH   1   2
BRANCH   1   4
ATOM      4  C   UNL     1       2.597   1.678  31.721  0.00  0.00    +0.141 C 
BRANCH   4   7
ATOM      5  C   UNL     1       1.735   2.892  29.749  0.00  0.00    +0.401 C 
ATOM      6  O   UNL     1       0.800   3.413  30.362  0.00  0.00    -0.226 OA
ATOM      7  N   UNL     1       2.620   2.063  30.305  0.00  0.00    -0.279 N 
ATOM      8  H   UNL     1       3.346   1.678  29.718  0.00  0.00    +0.152 HD
BRANCH   5   9
ATOM      9  O   UNL     1       1.897   3.176  28.357  0.00  0.00    -0.444 OA
BRANCH   9  10
ATOM     10  C   UNL     1       1.852   1.955  27.613  0.00  0.00    +0.292 C 
BRANCH  10  12
ATOM     11  N   UNL     1       0.118   2.282  25.892  0.00  0.00    -0.131 NA
ATOM     12  C   UNL     1       1.435   2.219  26.223  0.00  0.00    +0.121 A 
ATOM     13  C   UNL     1       2.190   2.444  25.089  0.00  0.00    +0.143 A 
ATOM     14  N   UNL     1       1.278   2.593  24.065  0.00  0.00    -0.219 N 
ATOM     15  N   UNL     1       0.031   2.535  24.596  0.00  0.00    -0.060 NA
BRANCH  14  16
ATOM     16  C   UNL     1       1.501   2.791  22.664  0.00  0.00    +0.073 A 
ATOM     17  C   UNL     1       1.655   4.119  22.161  0.00  0.00    -0.024 A 
ATOM     18  C   UNL     1       1.876   4.324  20.782  0.00  0.00    +0.008 A 
ATOM     19  C   UNL     1       1.960   3.257  19.891  0.00  0.00    -0.050 A 
ATOM     20  C   UNL     1       2.198   3.510  18.432  0.00  0.00    +0.044 C 
ATOM     21  C   UNL     1       1.812   1.964  20.386  0.00  0.00    +0.008 A 
ATOM     22  C   UNL     1       1.649   5.367  23.017  0.00  0.00    +0.046 C 
ATOM     23  C   UNL     1       1.562   1.704  21.754  0.00  0.00    -0.024 A 
ATOM     24  C   UNL     1       1.309   0.249  22.057  0.00  0.00    +0.046 C 
ENDBRANCH  14  16
ENDBRANCH  10  12
ENDBRANCH   9  10
ENDBRANCH   5   9
ENDBRANCH   4   7
ENDBRANCH   1   4
BRANCH   1  25
ATOM     25  C   UNL     1       3.468   3.788  32.748  0.00  0.00    +0.175 C 
BRANCH  25  26
ATOM     26  C   UNL     1       4.195   4.315  33.993  0.00  0.00    +0.176 C 
ATOM     27  O   UNL     1       5.617   4.369  33.691  0.00  0.00    -0.332 OA
ATOM     28  C   UNL     1       6.465   4.952  34.735  0.00  0.00    +0.277 C 
ATOM     29  C   UNL     1       6.244   4.222  36.082  0.00  0.00    +0.110 C 
ATOM     30  C   UNL     1       4.745   4.112  36.431  0.00  0.00    +0.143 C 
ATOM     31  C   UNL     1       3.956   3.495  35.275  0.00  0.00    +0.133 C 
BRANCH  31  32
ATOM     32  N   UNL     1       2.518   3.476  35.584  0.00  0.00    -0.308 N 
ATOM     33  H   UNL     1       2.033   4.361  35.631  0.00  0.00    +0.149 HD
ATOM     34  C   UNL     1       1.811   2.365  35.808  0.00  0.00    +0.210 C 
ATOM     35  C   UNL     1       2.584   1.033  35.756  0.00  0.00    +0.109 C 
ATOM     36  O   UNL     1       0.604   2.378  36.051  0.00  0.00    -0.276 OA
ENDBRANCH  31  32
BRANCH  28  37
ATOM     37  C   UNL     1       6.165   6.456  34.907  0.00  0.00    +0.414 C 
ATOM     38  O   UNL     1       6.469   7.033  35.951  0.00  0.00    -0.240 OA
ATOM     39  O   UNL     1       5.619   7.091  34.004  0.00  0.00    -0.240 OA
ENDBRANCH  28  37
BRANCH  30  40
ATOM     40  O   UNL     1       4.579   3.304  37.597  0.00  0.00    -0.390 OA
ATOM     41  H   UNL     1       3.661   3.329  37.876  0.00  0.00    +0.210 HD
ENDBRANCH  30  40
BRANCH  28  42
ATOM     42  O   UNL     1       7.850   4.773  34.340  0.00  0.00    -0.343 OA
ATOM     43  C   UNL     1       8.533   3.669  34.985  0.00  0.00    +0.198 C 
ENDBRANCH  28  42
ENDBRANCH  25  26
BRANCH  25  44
ATOM     44  O   UNL     1       2.048   4.005  32.873  0.00  0.00    -0.387 OA
ATOM     45  H   UNL     1       1.840   4.911  32.631  0.00  0.00    +0.210 HD
ENDBRANCH  25  44
ENDBRANCH   1  25
TORSDOF 14
