REMARK VINA RESULT:    -6.353     13.751     18.314
REMARK INTER + INTRA:         -13.032
REMARK INTER:                  -9.783
REMARK INTRA:                  -3.249
REMARK UNBOUND:                -1.294
REMARK  Name = lig_assembled_24.pdb
REMARK  19 active torsions:
REMARK  status: ('A' for Active; 'I' for Inactive)
REMARK    1  A    between atoms: _2  and  _9
REMARK    2  A    between atoms: _4  and  _21
REMARK    3  A    between atoms: _6  and  _7
REMARK    4  A    between atoms: _6  and  _21
REMARK    5  A    between atoms: _9  and  _10
REMARK    6  A    between atoms: _13  and  _16
REMARK    7  A    between atoms: _14  and  _16
REMARK    8  A    between atoms: _17  and  _37
REMARK    9  A    between atoms: _19  and  _25
REMARK   10  A    between atoms: _20  and  _24
REMARK   11  A    between atoms: _24  and  _25
REMARK   12  A    between atoms: _27  and  _28
REMARK   13  A    between atoms: _29  and  _30
REMARK   14  A    between atoms: _31  and  _33
REMARK   15  A    between atoms: _33  and  _34
REMARK   16  A    between atoms: _33  and  _35
REMARK   17  A    between atoms: _35  and  _36
REMARK   18  A    between atoms: _35  and  _37
REMARK   19  A    between atoms: _38  and  _40
REMARK                            x       y       z     vdW  Elec       q    Type
REMARK                         _______ _______ _______ _____ _____    ______ ____
ROOT
ATOM      1  C   UNL     1      19.181   5.941  24.362  0.00  0.00    +0.163 C 
ENDROOT
BRANCH   1   2
ATOM      2  O   UNL     1      18.027   5.661  23.554  0.00  0.00    -0.388 OA
ATOM      3  H   UNL     1      17.303   6.234  23.819  0.00  0.00    +0.210 HD
ENDBRANCH   1   2
BRANCH   1   4
ATOM      4  C   UNL     1      20.040   4.678  24.551  0.00  0.00    +0.175 C 
BRANCH   4   5
ATOM      5  C   UNL     1      19.445   3.725  25.597  0.00  0.00    +0.176 C 
ATOM      6  O   UNL     1      18.290   3.072  25.002  0.00  0.00    -0.332 OA
ATOM      7  C   UNL     1      17.650   2.041  25.824  0.00  0.00    +0.277 C 
ATOM      8  C   UNL     1      17.270   2.614  27.211  0.00  0.00    +0.110 C 
ATOM      9  C   UNL     1      18.458   3.346  27.871  0.00  0.00    +0.143 C 
ATOM     10  C   UNL     1      19.049   4.394  26.927  0.00  0.00    +0.133 C 
BRANCH  10  11
ATOM     11  N   UNL     1      20.233   5.023  27.532  0.00  0.00    -0.308 N 
ATOM     12  H   UNL     1      21.071   4.465  27.620  0.00  0.00    +0.149 HD
ATOM     13  C   UNL     1      20.273   6.283  27.974  0.00  0.00    +0.210 C 
ATOM     14  C   UNL     1      18.973   7.099  27.850  0.00  0.00    +0.109 C 
ATOM     15  O   UNL     1      21.284   6.788  28.463  0.00  0.00    -0.276 OA
ENDBRANCH  10  11
BRANCH   7  16
ATOM     16  C   UNL     1      18.586   0.829  26.007  0.00  0.00    +0.414 C 
ATOM     17  O   UNL     1      19.174   0.347  25.038  0.00  0.00    -0.240 OA
ATOM     18  O   UNL     1      18.754   0.332  27.121  0.00  0.00    -0.240 OA
ENDBRANCH   7  16
BRANCH   7  19
ATOM     19  O   UNL     1      16.434   1.622  25.153  0.00  0.00    -0.343 OA
ATOM     20  C   UNL     1      15.633   0.658  25.882  0.00  0.00    +0.198 C 
ENDBRANCH   7  19
BRANCH   9  21
ATOM     21  O   UNL     1      18.023   3.986  29.071  0.00  0.00    -0.390 OA
ATOM     22  H   UNL     1      17.870   3.324  29.750  0.00  0.00    +0.210 HD
ENDBRANCH   9  21
ENDBRANCH   4   5
BRANCH   4  23
ATOM     23  O   UNL     1      21.385   5.043  24.920  0.00  0.00    -0.387 OA
ATOM     24  H   UNL     1      21.383   5.919  25.314  0.00  0.00    +0.210 HD
ENDBRANCH   4  23
ENDBRANCH   1   4
BRANCH   1  25
ATOM     25  C   UNL     1      20.021   7.035  23.712  0.00  0.00    +0.141 C 
BRANCH  25  28
ATOM     26  C   UNL     1      21.417   8.381  25.244  0.00  0.00    +0.401 C 
ATOM     27  O   UNL     1      22.409   7.659  25.124  0.00  0.00    -0.226 OA
ATOM     28  N   UNL     1      20.256   8.161  24.625  0.00  0.00    -0.279 N 
ATOM     29  H   UNL     1      19.496   8.804  24.794  0.00  0.00    +0.152 HD
BRANCH  26  30
ATOM     30  O   UNL     1      21.490   9.527  26.096  0.00  0.00    -0.444 OA
BRANCH  30  31
ATOM     31  C   UNL     1      20.307  10.315  25.939  0.00  0.00    +0.292 C 
BRANCH  31  33
ATOM     32  N   UNL     1      18.396  10.951  27.378  0.00  0.00    -0.131 NA
ATOM     33  C   UNL     1      19.721  10.630  27.255  0.00  0.00    +0.120 A 
ATOM     34  C   UNL     1      20.306  10.645  28.501  0.00  0.00    +0.137 A 
ATOM     35  N   UNL     1      19.273  10.913  29.352  0.00  0.00    -0.247 N 
ATOM     36  N   UNL     1      18.133  11.132  28.664  0.00  0.00    -0.065 NA
BRANCH  35  37
ATOM     37  C   UNL     1      19.220  10.935  30.805  0.00  0.00    +0.180 C 
BRANCH  37  38
ATOM     38  C   UNL     1      18.198  10.007  31.415  0.00  0.00    -0.026 A 
ATOM     39  C   UNL     1      17.175  10.511  32.228  0.00  0.00    +0.009 A 
ATOM     40  C   UNL     1      16.231   9.645  32.787  0.00  0.00    +0.046 A 
ATOM     41  C   UNL     1      16.283   8.274  32.531  0.00  0.00    +0.120 A 
ATOM     42  C   UNL     1      17.311   7.763  31.743  0.00  0.00    +0.046 A 
ATOM     43  C   UNL     1      18.264   8.624  31.186  0.00  0.00    +0.009 A 
BRANCH  41  44
ATOM     44  O   UNL     1      15.319   7.526  33.149  0.00  0.00    -0.495 OA
ATOM     45  C   UNL     1      15.491   7.344  34.551  0.00  0.00    +0.277 C 
ENDBRANCH  41  44
ENDBRANCH  37  38
ENDBRANCH  35  37
ENDBRANCH  31  33
ENDBRANCH  30  31
ENDBRANCH  26  30
ENDBRANCH  25  28
ENDBRANCH   1  25
TORSDOF 16
