REMARK VINA RESULT:    -5.643      2.067      2.824
REMARK INTER + INTRA:         -12.658
REMARK INTER:                 -10.735
REMARK INTRA:                  -1.923
REMARK UNBOUND:                -1.902
REMARK  Name = lig_assembled_13.pdb
REMARK  20 active torsions:
REMARK  status: ('A' for Active; 'I' for Inactive)
REMARK    1  A    between atoms: _2  and  _9
REMARK    2  A    between atoms: _4  and  _18
REMARK    3  A    between atoms: _5  and  _11
REMARK    4  A    between atoms: _6  and  _7
REMARK    5  A    between atoms: _6  and  _18
REMARK    6  A    between atoms: _9  and  _10
REMARK    7  A    between atoms: _10  and  _12
REMARK    8  A    between atoms: _11  and  _12
REMARK    9  A    between atoms: _14  and  _34
REMARK   10  A    between atoms: _16  and  _22
REMARK   11  A    between atoms: _17  and  _21
REMARK   12  A    between atoms: _21  and  _22
REMARK   13  A    between atoms: _24  and  _25
REMARK   14  A    between atoms: _26  and  _27
REMARK   15  A    between atoms: _28  and  _30
REMARK   16  A    between atoms: _30  and  _31
REMARK   17  A    between atoms: _30  and  _32
REMARK   18  A    between atoms: _32  and  _33
REMARK   19  A    between atoms: _32  and  _34
REMARK   20  A    between atoms: _35  and  _37
REMARK                            x       y       z     vdW  Elec       q    Type
REMARK                         _______ _______ _______ _____ _____    ______ ____
ROOT
ATOM      1  C   UNL     1       6.343   2.555  33.599  0.00  0.00    +0.163 C 
ENDROOT
BRANCH   1   2
ATOM      2  O   UNL     1       6.554   1.254  34.172  0.00  0.00    -0.388 OA
ATOM      3  H   UNL     1       6.368   0.580  33.514  0.00  0.00    +0.210 HD
ENDBRANCH   1   2
BRANCH   1   4
ATOM      4  C   UNL     1       7.612   3.417  33.711  0.00  0.00    +0.175 C 
BRANCH   4   5
ATOM      5  C   UNL     1       7.736   4.088  35.086  0.00  0.00    +0.176 C 
ATOM      6  O   UNL     1       7.796   5.526  34.879  0.00  0.00    -0.332 OA
ATOM      7  C   UNL     1       7.810   6.342  36.097  0.00  0.00    +0.277 C 
ATOM      8  C   UNL     1       8.963   5.900  37.031  0.00  0.00    +0.110 C 
ATOM      9  C   UNL     1       8.959   4.373  37.256  0.00  0.00    +0.143 C 
ATOM     10  C   UNL     1       8.941   3.622  35.924  0.00  0.00    +0.133 C 
BRANCH  10  11
ATOM     11  N   UNL     1       8.850   2.171  36.152  0.00  0.00    -0.308 N 
ATOM     12  H   UNL     1       8.030   1.819  36.626  0.00  0.00    +0.149 HD
ATOM     13  C   UNL     1       9.780   1.290  35.773  0.00  0.00    +0.210 C 
ATOM     14  C   UNL     1      11.029   1.862  35.076  0.00  0.00    +0.109 C 
ATOM     15  O   UNL     1       9.670   0.078  35.964  0.00  0.00    -0.276 OA
ENDBRANCH  10  11
BRANCH   7  16
ATOM     16  C   UNL     1       6.466   6.230  36.847  0.00  0.00    +0.414 C 
ATOM     17  O   UNL     1       5.439   5.935  36.237  0.00  0.00    -0.240 OA
ATOM     18  O   UNL     1       6.410   6.433  38.060  0.00  0.00    -0.240 OA
ENDBRANCH   7  16
BRANCH   7  19
ATOM     19  O   UNL     1       8.039   7.722  35.710  0.00  0.00    -0.343 OA
ATOM     20  C   UNL     1       7.441   8.111  34.448  0.00  0.00    +0.198 C 
ENDBRANCH   7  19
BRANCH   9  21
ATOM     21  O   UNL     1      10.120   3.992  37.995  0.00  0.00    -0.390 OA
ATOM     22  H   UNL     1      10.473   3.174  37.638  0.00  0.00    +0.210 HD
ENDBRANCH   9  21
ENDBRANCH   4   5
BRANCH   4  23
ATOM     23  O   UNL     1       7.628   4.414  32.669  0.00  0.00    -0.387 OA
ATOM     24  H   UNL     1       8.533   4.572  32.391  0.00  0.00    +0.210 HD
ENDBRANCH   4  23
ENDBRANCH   1   4
BRANCH   1  25
ATOM     25  C   UNL     1       5.944   2.421  32.133  0.00  0.00    +0.141 C 
BRANCH  25  28
ATOM     26  C   UNL     1       3.540   2.902  31.831  0.00  0.00    +0.401 C 
ATOM     27  O   UNL     1       3.176   1.766  32.148  0.00  0.00    -0.226 OA
ATOM     28  N   UNL     1       4.814   3.293  31.791  0.00  0.00    -0.279 N 
ATOM     29  H   UNL     1       5.013   4.242  31.510  0.00  0.00    +0.152 HD
BRANCH  26  30
ATOM     30  O   UNL     1       2.552   3.873  31.478  0.00  0.00    -0.444 OA
BRANCH  30  31
ATOM     31  C   UNL     1       1.330   3.212  31.140  0.00  0.00    +0.292 C 
BRANCH  31  33
ATOM     32  N   UNL     1       0.197   4.107  29.130  0.00  0.00    -0.131 NA
ATOM     33  C   UNL     1       1.109   3.250  29.683  0.00  0.00    +0.120 A 
ATOM     34  C   UNL     1       1.699   2.513  28.685  0.00  0.00    +0.137 A 
ATOM     35  N   UNL     1       1.054   2.919  27.553  0.00  0.00    -0.241 N 
ATOM     36  N   UNL     1       0.187   3.910  27.817  0.00  0.00    -0.065 NA
BRANCH  35  37
ATOM     37  C   UNL     1       1.278   2.490  26.191  0.00  0.00    +0.265 C 
BRANCH  37  38
ATOM     38  C   UNL     1       2.124   3.466  25.425  0.00  0.00    +0.329 C 
ATOM     39  O   UNL     1       3.081   4.094  25.855  0.00  0.00    -0.249 OA
BRANCH  38  40
ATOM     40  O   UNL     1       1.590   3.633  24.177  0.00  0.00    -0.464 OA
BRANCH  40  41
ATOM     41  C   UNL     1       1.120   4.959  23.893  0.00  0.00    +0.229 C 
ATOM     42  C   UNL     1       1.739   5.400  22.578  0.00  0.00    +0.048 C 
ENDBRANCH  40  41
ENDBRANCH  38  40
ENDBRANCH  37  38
ENDBRANCH  35  37
ENDBRANCH  31  33
ENDBRANCH  30  31
ENDBRANCH  26  30
ENDBRANCH  25  28
ENDBRANCH   1  25
TORSDOF 17
