REMARK VINA RESULT:    -5.668      4.287      6.446
REMARK INTER + INTRA:         -13.546
REMARK INTER:                 -10.816
REMARK INTRA:                  -2.729
REMARK UNBOUND:                -3.239
REMARK  Name = lig_assembled_88.pdb
REMARK  18 active torsions:
REMARK  status: ('A' for Active; 'I' for Inactive)
REMARK    1  A    between atoms: _2  and  _9
REMARK    2  A    between atoms: _4  and  _20
REMARK    3  A    between atoms: _5  and  _15
REMARK    4  A    between atoms: _6  and  _7
REMARK    5  A    between atoms: _6  and  _20
REMARK    6  A    between atoms: _9  and  _10
REMARK    7  A    between atoms: _16  and  _36
REMARK    8  A    between atoms: _18  and  _24
REMARK    9  A    between atoms: _19  and  _23
REMARK   10  A    between atoms: _23  and  _24
REMARK   11  A    between atoms: _26  and  _27
REMARK   12  A    between atoms: _28  and  _29
REMARK   13  A    between atoms: _30  and  _32
REMARK   14  A    between atoms: _32  and  _33
REMARK   15  A    between atoms: _32  and  _34
REMARK   16  A    between atoms: _34  and  _35
REMARK   17  A    between atoms: _34  and  _36
REMARK   18  A    between atoms: _37  and  _39
REMARK                            x       y       z     vdW  Elec       q    Type
REMARK                         _______ _______ _______ _____ _____    ______ ____
ROOT
ATOM      1  C   UNL     1       7.741   2.312  34.201  0.00  0.00    +0.163 C 
ENDROOT
BRANCH   1   2
ATOM      2  O   UNL     1       8.283   2.547  35.511  0.00  0.00    -0.388 OA
ATOM      3  H   UNL     1       7.907   3.352  35.874  0.00  0.00    +0.210 HD
ENDBRANCH   1   2
BRANCH   1   4
ATOM      4  C   UNL     1       7.786   3.593  33.350  0.00  0.00    +0.175 C 
BRANCH   4   5
ATOM      5  C   UNL     1       6.932   4.718  33.952  0.00  0.00    +0.176 C 
ATOM      6  O   UNL     1       7.670   5.293  35.065  0.00  0.00    -0.332 OA
ATOM      7  C   UNL     1       7.051   6.460  35.701  0.00  0.00    +0.277 C 
ATOM      8  C   UNL     1       5.606   6.129  36.147  0.00  0.00    +0.110 C 
ATOM      9  C   UNL     1       4.791   5.486  35.005  0.00  0.00    +0.143 C 
ATOM     10  C   UNL     1       5.528   4.284  34.414  0.00  0.00    +0.133 C 
BRANCH  10  11
ATOM     11  N   UNL     1       4.783   3.733  33.271  0.00  0.00    -0.308 N 
ATOM     12  H   UNL     1       4.732   4.289  32.429  0.00  0.00    +0.149 HD
ATOM     13  C   UNL     1       4.169   2.547  33.274  0.00  0.00    +0.210 C 
ATOM     14  C   UNL     1       4.243   1.736  34.582  0.00  0.00    +0.109 C 
ATOM     15  O   UNL     1       3.564   2.104  32.297  0.00  0.00    -0.276 OA
ENDBRANCH  10  11
BRANCH   7  16
ATOM     16  C   UNL     1       7.031   7.663  34.735  0.00  0.00    +0.414 C 
ATOM     17  O   UNL     1       8.085   8.157  34.338  0.00  0.00    -0.240 OA
ATOM     18  O   UNL     1       5.961   8.138  34.353  0.00  0.00    -0.240 OA
ENDBRANCH   7  16
BRANCH   7  19
ATOM     19  O   UNL     1       7.829   6.793  36.880  0.00  0.00    -0.343 OA
ATOM     20  C   UNL     1       9.030   6.002  37.065  0.00  0.00    +0.198 C 
ENDBRANCH   7  19
BRANCH   9  21
ATOM     21  O   UNL     1       3.520   5.061  35.501  0.00  0.00    -0.390 OA
ATOM     22  H   UNL     1       3.594   4.853  36.435  0.00  0.00    +0.210 HD
ENDBRANCH   9  21
ENDBRANCH   4   5
BRANCH   4  23
ATOM     23  O   UNL     1       7.356   3.309  32.003  0.00  0.00    -0.387 OA
ATOM     24  H   UNL     1       8.116   3.313  31.417  0.00  0.00    +0.210 HD
ENDBRANCH   4  23
ENDBRANCH   1   4
BRANCH   1  25
ATOM     25  C   UNL     1       8.525   1.207  33.502  0.00  0.00    +0.141 C 
BRANCH  25  28
ATOM     26  C   UNL     1       6.877  -0.619  33.269  0.00  0.00    +0.401 C 
ATOM     27  O   UNL     1       6.825  -0.854  34.478  0.00  0.00    -0.226 OA
ATOM     28  N   UNL     1       7.649   0.322  32.724  0.00  0.00    -0.279 N 
ATOM     29  H   UNL     1       7.631   0.432  31.720  0.00  0.00    +0.152 HD
BRANCH  26  30
ATOM     30  O   UNL     1       6.073  -1.394  32.376  0.00  0.00    -0.444 OA
BRANCH  30  31
ATOM     31  C   UNL     1       6.576  -1.264  31.044  0.00  0.00    +0.292 C 
BRANCH  31  33
ATOM     32  N   UNL     1       5.712  -1.399  28.727  0.00  0.00    -0.131 NA
ATOM     33  C   UNL     1       5.468  -1.273  30.070  0.00  0.00    +0.120 A 
ATOM     34  C   UNL     1       4.112  -1.150  30.272  0.00  0.00    +0.137 A 
ATOM     35  N   UNL     1       3.594  -1.133  29.010  0.00  0.00    -0.247 N 
ATOM     36  N   UNL     1       4.553  -1.334  28.087  0.00  0.00    -0.065 NA
BRANCH  35  37
ATOM     37  C   UNL     1       2.223  -0.861  28.605  0.00  0.00    +0.184 C 
BRANCH  37  38
ATOM     38  C   UNL     1       1.941   0.614  28.403  0.00  0.00    +0.017 A 
ATOM     39  C   UNL     1       1.596   1.471  29.466  0.00  0.00    +0.024 A 
ATOM     40  C   UNL     1       1.342   2.827  29.241  0.00  0.00    +0.019 A 
ATOM     41 BR   UNL     1       0.832   3.935  30.687  0.00  0.00    -0.050 Br
ATOM     42  C   UNL     1       1.457   3.372  27.966  0.00  0.00    +0.034 A 
ATOM     43  C   UNL     1       1.844   2.547  26.913  0.00  0.00    +0.061 A 
ATOM     44 BR   UNL     1       2.035   3.302  25.184  0.00  0.00    -0.046 Br
ATOM     45  C   UNL     1       2.088   1.184  27.130  0.00  0.00    +0.136 A 
BRANCH  45  46
ATOM     46  O   UNL     1       2.484   0.368  26.103  0.00  0.00    -0.505 OA
ATOM     47  H   UNL     1       2.286  -0.552  26.365  0.00  0.00    +0.292 HD
ENDBRANCH  45  46
ENDBRANCH  37  38
ENDBRANCH  35  37
ENDBRANCH  31  33
ENDBRANCH  30  31
ENDBRANCH  26  30
ENDBRANCH  25  28
ENDBRANCH   1  25
TORSDOF 16
