REMARK VINA RESULT:    -5.825     21.145     23.583
REMARK INTER + INTRA:         -12.718
REMARK INTER:                 -10.632
REMARK INTRA:                  -2.086
REMARK UNBOUND:                -2.296
REMARK  Name = lig_assembled_63.pdb
REMARK  17 active torsions:
REMARK  status: ('A' for Active; 'I' for Inactive)
REMARK    1  A    between atoms: _2  and  _11
REMARK    2  A    between atoms: _6  and  _20
REMARK    3  A    between atoms: _7  and  _15
REMARK    4  A    between atoms: _8  and  _9
REMARK    5  A    between atoms: _8  and  _20
REMARK    6  A    between atoms: _16  and  _36
REMARK    7  A    between atoms: _18  and  _24
REMARK    8  A    between atoms: _19  and  _23
REMARK    9  A    between atoms: _23  and  _24
REMARK   10  A    between atoms: _26  and  _27
REMARK   11  A    between atoms: _28  and  _29
REMARK   12  A    between atoms: _30  and  _32
REMARK   13  A    between atoms: _32  and  _33
REMARK   14  A    between atoms: _32  and  _34
REMARK   15  A    between atoms: _34  and  _35
REMARK   16  A    between atoms: _34  and  _36
REMARK   17  A    between atoms: _37  and  _39
REMARK                            x       y       z     vdW  Elec       q    Type
REMARK                         _______ _______ _______ _____ _____    ______ ____
ROOT
ATOM      1  C   UNL     1      -6.313   7.855  18.704  0.00  0.00    +0.163 C 
ENDROOT
BRANCH   1   2
ATOM      2  O   UNL     1      -7.435   7.445  17.905  0.00  0.00    -0.388 OA
ATOM      3  H   UNL     1      -8.242   7.816  18.271  0.00  0.00    +0.210 HD
ENDBRANCH   1   2
BRANCH   1   4
ATOM      4  C   UNL     1      -6.781   8.232  20.106  0.00  0.00    +0.141 C 
BRANCH   4   7
ATOM      5  C   UNL     1      -5.887   6.680  21.808  0.00  0.00    +0.401 C 
ATOM      6  O   UNL     1      -6.779   5.844  21.650  0.00  0.00    -0.226 OA
ATOM      7  N   UNL     1      -5.813   7.828  21.133  0.00  0.00    -0.279 N 
ATOM      8  H   UNL     1      -5.048   8.455  21.340  0.00  0.00    +0.152 HD
BRANCH   5   9
ATOM      9  O   UNL     1      -4.860   6.427  22.771  0.00  0.00    -0.444 OA
BRANCH   9  10
ATOM     10  C   UNL     1      -4.391   5.084  22.628  0.00  0.00    +0.292 C 
BRANCH  10  12
ATOM     11  N   UNL     1      -2.089   5.984  22.637  0.00  0.00    -0.131 NA
ATOM     12  C   UNL     1      -2.991   5.074  22.164  0.00  0.00    +0.121 A 
ATOM     13  C   UNL     1      -2.365   4.258  21.253  0.00  0.00    +0.145 A 
ATOM     14  N   UNL     1      -1.073   4.738  21.172  0.00  0.00    -0.200 N 
ATOM     15  N   UNL     1      -0.928   5.767  22.034  0.00  0.00    -0.059 NA
BRANCH  14  16
ATOM     16  C   UNL     1      -0.054   4.282  20.284  0.00  0.00    +0.173 A 
ATOM     17  C   UNL     1       1.174   3.796  20.742  0.00  0.00    +0.096 A 
ATOM     18  C   UNL     1       2.143   3.465  19.779  0.00  0.00    +0.024 A 
ATOM     19  C   UNL     1       1.865   3.596  18.421  0.00  0.00    +0.021 A 
ATOM     20  C   UNL     1       0.613   4.047  18.057  0.00  0.00    +0.113 A 
ATOM     21  N   UNL     1      -0.340   4.392  18.948  0.00  0.00    -0.235 NA
BRANCH  17  22
ATOM     22  C   UNL     1       1.527   3.586  22.115  0.00  0.00    +0.103 C 
ATOM     23  N   UNL     1       1.763   3.507  23.249  0.00  0.00    -0.191 NA
ENDBRANCH  17  22
ENDBRANCH  14  16
ENDBRANCH  10  12
ENDBRANCH   9  10
ENDBRANCH   5   9
ENDBRANCH   4   7
ENDBRANCH   1   4
BRANCH   1  24
ATOM     24  C   UNL     1      -5.590   9.052  18.064  0.00  0.00    +0.175 C 
BRANCH  24  25
ATOM     25  C   UNL     1      -4.821   8.652  16.796  0.00  0.00    +0.176 C 
ATOM     26  O   UNL     1      -3.788   7.704  17.181  0.00  0.00    -0.332 OA
ATOM     27  C   UNL     1      -3.014   7.127  16.077  0.00  0.00    +0.277 C 
ATOM     28  C   UNL     1      -2.397   8.248  15.205  0.00  0.00    +0.110 C 
ATOM     29  C   UNL     1      -3.452   9.299  14.798  0.00  0.00    +0.143 C 
ATOM     30  C   UNL     1      -4.199   9.829  16.022  0.00  0.00    +0.133 C 
BRANCH  30  31
ATOM     31  N   UNL     1      -5.259  10.764  15.613  0.00  0.00    -0.308 N 
ATOM     32  H   UNL     1      -6.071  10.382  15.148  0.00  0.00    +0.149 HD
ATOM     33  C   UNL     1      -5.219  12.084  15.817  0.00  0.00    +0.210 C 
ATOM     34  C   UNL     1      -3.957  12.637  16.505  0.00  0.00    +0.109 C 
ATOM     35  O   UNL     1      -6.129  12.840  15.477  0.00  0.00    -0.276 OA
ENDBRANCH  30  31
BRANCH  27  36
ATOM     36  C   UNL     1      -3.903   6.222  15.200  0.00  0.00    +0.414 C 
ATOM     37  O   UNL     1      -3.707   6.147  13.988  0.00  0.00    -0.240 OA
ATOM     38  O   UNL     1      -4.817   5.568  15.704  0.00  0.00    -0.240 OA
ENDBRANCH  27  36
BRANCH  27  39
ATOM     39  O   UNL     1      -1.933   6.345  16.648  0.00  0.00    -0.343 OA
ATOM     40  C   UNL     1      -0.606   6.712  16.194  0.00  0.00    +0.198 C 
ENDBRANCH  27  39
BRANCH  29  41
ATOM     41  O   UNL     1      -2.814  10.387  14.128  0.00  0.00    -0.390 OA
ATOM     42  H   UNL     1      -3.029  10.357  13.192  0.00  0.00    +0.210 HD
ENDBRANCH  29  41
ENDBRANCH  24  25
BRANCH  24  43
ATOM     43  O   UNL     1      -4.696   9.660  19.017  0.00  0.00    -0.387 OA
ATOM     44  H   UNL     1      -3.839   9.800  18.608  0.00  0.00    +0.210 HD
ENDBRANCH  24  43
ENDBRANCH   1  24
TORSDOF 15
