REMARK VINA RESULT:    -6.196      4.842      6.027
REMARK INTER + INTRA:         -13.404
REMARK INTER:                  -9.794
REMARK INTRA:                  -3.610
REMARK UNBOUND:                -1.955
REMARK  Name = lig_assembled_78.pdb
REMARK  18 active torsions:
REMARK  status: ('A' for Active; 'I' for Inactive)
REMARK    1  A    between atoms: _2  and  _9
REMARK    2  A    between atoms: _4  and  _21
REMARK    3  A    between atoms: _6  and  _7
REMARK    4  A    between atoms: _6  and  _21
REMARK    5  A    between atoms: _9  and  _41
REMARK    6  A    between atoms: _10  and  _41
REMARK    7  A    between atoms: _17  and  _37
REMARK    8  A    between atoms: _19  and  _25
REMARK    9  A    between atoms: _20  and  _24
REMARK   10  A    between atoms: _24  and  _25
REMARK   11  A    between atoms: _27  and  _28
REMARK   12  A    between atoms: _29  and  _30
REMARK   13  A    between atoms: _31  and  _33
REMARK   14  A    between atoms: _33  and  _34
REMARK   15  A    between atoms: _33  and  _35
REMARK   16  A    between atoms: _35  and  _36
REMARK   17  A    between atoms: _35  and  _37
REMARK   18  A    between atoms: _38  and  _40
REMARK                            x       y       z     vdW  Elec       q    Type
REMARK                         _______ _______ _______ _____ _____    ______ ____
ROOT
ATOM      1  C   UNL     1       5.938   4.592  38.490  0.00  0.00    +0.163 C 
ENDROOT
BRANCH   1   2
ATOM      2  O   UNL     1       5.780   3.182  38.261  0.00  0.00    -0.388 OA
ATOM      3  H   UNL     1       6.640   2.783  38.106  0.00  0.00    +0.210 HD
ENDBRANCH   1   2
BRANCH   1   4
ATOM      4  C   UNL     1       6.712   5.252  37.335  0.00  0.00    +0.175 C 
BRANCH   4   5
ATOM      5  C   UNL     1       7.048   4.253  36.219  0.00  0.00    +0.176 C 
ATOM      6  O   UNL     1       8.253   3.537  36.607  0.00  0.00    -0.332 OA
ATOM      7  C   UNL     1       8.669   2.460  35.704  0.00  0.00    +0.277 C 
ATOM      8  C   UNL     1       8.821   2.994  34.259  0.00  0.00    +0.110 C 
ATOM      9  C   UNL     1       7.576   3.789  33.812  0.00  0.00    +0.143 C 
ATOM     10  C   UNL     1       7.231   4.882  34.825  0.00  0.00    +0.133 C 
BRANCH  10  11
ATOM     11  N   UNL     1       5.994   5.576  34.433  0.00  0.00    -0.308 N 
ATOM     12  H   UNL     1       5.166   5.016  34.286  0.00  0.00    +0.149 HD
ATOM     13  C   UNL     1       5.895   6.896  34.258  0.00  0.00    +0.210 C 
ATOM     14  C   UNL     1       7.182   7.718  34.463  0.00  0.00    +0.109 C 
ATOM     15  O   UNL     1       4.842   7.452  33.943  0.00  0.00    -0.276 OA
ENDBRANCH  10  11
BRANCH   7  16
ATOM     16  C   UNL     1       7.646   1.305  35.723  0.00  0.00    +0.414 C 
ATOM     17  O   UNL     1       7.639   0.468  34.821  0.00  0.00    -0.240 OA
ATOM     18  O   UNL     1       6.829   1.209  36.640  0.00  0.00    -0.240 OA
ENDBRANCH   7  16
BRANCH   7  19
ATOM     19  O   UNL     1       9.962   1.975  36.151  0.00  0.00    -0.343 OA
ATOM     20  C   UNL     1      10.040   1.651  37.562  0.00  0.00    +0.198 C 
ENDBRANCH   7  19
BRANCH   9  21
ATOM     21  O   UNL     1       7.819   4.388  32.539  0.00  0.00    -0.390 OA
ATOM     22  H   UNL     1       8.017   3.704  31.895  0.00  0.00    +0.210 HD
ENDBRANCH   9  21
ENDBRANCH   4   5
BRANCH   4  23
ATOM     23  O   UNL     1       7.918   5.866  37.833  0.00  0.00    -0.387 OA
ATOM     24  H   UNL     1       8.583   5.872  37.141  0.00  0.00    +0.210 HD
ENDBRANCH   4  23
ENDBRANCH   1   4
BRANCH   1  25
ATOM     25  C   UNL     1       4.572   5.254  38.632  0.00  0.00    +0.141 C 
BRANCH  25  28
ATOM     26  C   UNL     1       3.058   4.453  36.851  0.00  0.00    +0.401 C 
ATOM     27  O   UNL     1       2.790   3.395  37.424  0.00  0.00    -0.226 OA
ATOM     28  N   UNL     1       3.886   5.377  37.340  0.00  0.00    -0.279 N 
ATOM     29  H   UNL     1       4.050   6.209  36.790  0.00  0.00    +0.152 HD
BRANCH  26  30
ATOM     30  O   UNL     1       2.460   4.726  35.581  0.00  0.00    -0.444 OA
BRANCH  30  31
ATOM     31  C   UNL     1       2.047   3.498  34.974  0.00  0.00    +0.292 C 
BRANCH  31  33
ATOM     32  N   UNL     1       3.770   3.970  33.256  0.00  0.00    -0.131 NA
ATOM     33  C   UNL     1       3.040   3.061  33.974  0.00  0.00    +0.120 A 
ATOM     34  C   UNL     1       3.407   1.790  33.594  0.00  0.00    +0.139 A 
ATOM     35  N   UNL     1       4.404   1.993  32.687  0.00  0.00    -0.230 N 
ATOM     36  N   UNL     1       4.588   3.304  32.452  0.00  0.00    -0.064 NA
BRANCH  35  37
ATOM     37  C   UNL     1       5.165   1.015  31.949  0.00  0.00    +0.316 C 
BRANCH  37  38
ATOM     38  S   UNL     1       4.159  -0.197  31.132  0.00  0.00    +0.017 S 
ATOM     39  O   UNL     1       3.736  -1.208  32.081  0.00  0.00    -0.168 OA
ATOM     40  O   UNL     1       3.189   0.507  30.311  0.00  0.00    -0.168 OA
BRANCH  38  41
ATOM     41  C   UNL     1       5.283  -1.015  30.020  0.00  0.00    +0.090 A 
ATOM     42  C   UNL     1       4.916  -1.185  28.680  0.00  0.00    +0.027 A 
ATOM     43  C   UNL     1       5.803  -1.802  27.800  0.00  0.00    +0.002 A 
ATOM     44  C   UNL     1       7.054  -2.228  28.252  0.00  0.00    +0.000 A 
ATOM     45  C   UNL     1       7.423  -2.037  29.584  0.00  0.00    +0.002 A 
ATOM     46  C   UNL     1       6.537  -1.430  30.476  0.00  0.00    +0.027 A 
ENDBRANCH  38  41
ENDBRANCH  37  38
ENDBRANCH  35  37
ENDBRANCH  31  33
ENDBRANCH  30  31
ENDBRANCH  26  30
ENDBRANCH  25  28
ENDBRANCH   1  25
TORSDOF 16
