REMARK VINA RESULT:    -5.885      7.030     11.335
REMARK INTER + INTRA:         -14.398
REMARK INTER:                 -12.149
REMARK INTRA:                  -2.250
REMARK UNBOUND:                -3.868
REMARK  Name = lig_assembled_85.pdb
REMARK  19 active torsions:
REMARK  status: ('A' for Active; 'I' for Inactive)
REMARK    1  A    between atoms: _2  and  _10
REMARK    2  A    between atoms: _3  and  _6
REMARK    3  A    between atoms: _3  and  _17
REMARK    4  A    between atoms: _5  and  _23
REMARK    5  A    between atoms: _7  and  _8
REMARK    6  A    between atoms: _7  and  _23
REMARK    7  A    between atoms: _15  and  _16
REMARK    8  A    between atoms: _19  and  _39
REMARK    9  A    between atoms: _21  and  _27
REMARK   10  A    between atoms: _22  and  _26
REMARK   11  A    between atoms: _26  and  _27
REMARK   12  A    between atoms: _29  and  _30
REMARK   13  A    between atoms: _31  and  _32
REMARK   14  A    between atoms: _33  and  _35
REMARK   15  A    between atoms: _35  and  _36
REMARK   16  A    between atoms: _35  and  _37
REMARK   17  A    between atoms: _37  and  _38
REMARK   18  A    between atoms: _37  and  _39
REMARK   19  A    between atoms: _40  and  _42
REMARK                            x       y       z     vdW  Elec       q    Type
REMARK                         _______ _______ _______ _____ _____    ______ ____
ROOT
ATOM      1  C   UNL     1      18.784   6.532  23.604  0.00  0.00    +0.141 C 
ENDROOT
BRANCH   1   4
ATOM      2  C   UNL     1      18.951   7.345  25.931  0.00  0.00    +0.401 C 
ATOM      3  O   UNL     1      19.895   6.606  26.221  0.00  0.00    -0.226 OA
ATOM      4  N   UNL     1      18.366   7.372  24.733  0.00  0.00    -0.279 N 
ATOM      5  H   UNL     1      17.592   8.006  24.594  0.00  0.00    +0.152 HD
BRANCH   2   6
ATOM      6  O   UNL     1      18.433   8.232  26.925  0.00  0.00    -0.444 OA
BRANCH   6   7
ATOM      7  C   UNL     1      19.299   8.233  28.063  0.00  0.00    +0.292 C 
BRANCH   7   9
ATOM      8  N   UNL     1      17.877  10.113  28.797  0.00  0.00    -0.131 NA
ATOM      9  C   UNL     1      18.767   9.125  29.108  0.00  0.00    +0.121 A 
ATOM     10  C   UNL     1      18.981   9.116  30.468  0.00  0.00    +0.143 A 
ATOM     11  N   UNL     1      18.187  10.126  30.951  0.00  0.00    -0.219 N 
ATOM     12  N   UNL     1      17.509  10.698  29.928  0.00  0.00    -0.060 NA
BRANCH  11  13
ATOM     13  C   UNL     1      17.949  10.524  32.285  0.00  0.00    +0.080 A 
ATOM     14  C   UNL     1      17.076   9.862  33.162  0.00  0.00    +0.062 A 
ATOM     15  C   UNL     1      16.745  10.511  34.374  0.00  0.00    +0.016 A 
ATOM     16  C   UNL     1      17.281  11.758  34.716  0.00  0.00    +0.021 A 
ATOM     17  C   UNL     1      18.198  12.361  33.869  0.00  0.00    +0.043 A 
ATOM     18 CL   UNL     1      18.839  13.909  34.256  0.00  0.00    -0.083 Cl
ATOM     19  C   UNL     1      18.554  11.741  32.675  0.00  0.00    +0.048 A 
BRANCH  14  20
ATOM     20  C   UNL     1      16.361   8.566  32.962  0.00  0.00    +0.248 C 
ATOM     21  O   UNL     1      15.228   8.664  32.483  0.00  0.00    -0.270 OA
ATOM     22  N   UNL     1      16.879   7.323  33.341  0.00  0.00    -0.304 N 
ATOM     23  C   UNL     1      18.229   7.018  33.795  0.00  0.00    +0.132 C 
ATOM     24  C   UNL     1      16.034   6.162  33.079  0.00  0.00    +0.132 C 
ENDBRANCH  14  20
ENDBRANCH  11  13
ENDBRANCH   7   9
ENDBRANCH   6   7
ENDBRANCH   2   6
ENDBRANCH   1   4
BRANCH   1  25
ATOM     25  C   UNL     1      17.941   5.266  23.494  0.00  0.00    +0.163 C 
BRANCH  25  26
ATOM     26  O   UNL     1      17.226   5.258  22.248  0.00  0.00    -0.388 OA
ATOM     27  H   UNL     1      16.440   4.713  22.333  0.00  0.00    +0.210 HD
ENDBRANCH  25  26
BRANCH  25  28
ATOM     28  C   UNL     1      18.850   4.030  23.614  0.00  0.00    +0.175 C 
BRANCH  28  29
ATOM     29  C   UNL     1      18.145   2.860  24.315  0.00  0.00    +0.176 C 
ATOM     30  O   UNL     1      18.920   2.513  25.495  0.00  0.00    -0.332 OA
ATOM     31  C   UNL     1      18.339   1.477  26.354  0.00  0.00    +0.277 C 
ATOM     32  C   UNL     1      18.036   0.200  25.532  0.00  0.00    +0.110 C 
ATOM     33  C   UNL     1      17.240   0.523  24.251  0.00  0.00    +0.143 C 
ATOM     34  C   UNL     1      17.933   1.615  23.434  0.00  0.00    +0.133 C 
BRANCH  34  35
ATOM     35  N   UNL     1      17.121   1.975  22.261  0.00  0.00    -0.308 N 
ATOM     36  H   UNL     1      16.251   2.462  22.422  0.00  0.00    +0.149 HD
ATOM     37  C   UNL     1      17.459   1.700  20.999  0.00  0.00    +0.210 C 
ATOM     38  C   UNL     1      18.779   0.933  20.790  0.00  0.00    +0.109 C 
ATOM     39  O   UNL     1      16.767   2.027  20.034  0.00  0.00    -0.276 OA
ENDBRANCH  34  35
BRANCH  31  40
ATOM     40  C   UNL     1      17.041   1.982  27.018  0.00  0.00    +0.414 C 
ATOM     41  O   UNL     1      17.046   3.020  27.679  0.00  0.00    -0.240 OA
ATOM     42  O   UNL     1      15.990   1.352  26.893  0.00  0.00    -0.240 OA
ENDBRANCH  31  40
BRANCH  33  43
ATOM     43  O   UNL     1      17.115  -0.654  23.452  0.00  0.00    -0.390 OA
ATOM     44  H   UNL     1      17.743  -0.618  22.726  0.00  0.00    +0.210 HD
ENDBRANCH  33  43
BRANCH  31  45
ATOM     45  O   UNL     1      19.312   1.143  27.377  0.00  0.00    -0.343 OA
ATOM     46  C   UNL     1      18.988  -0.025  28.173  0.00  0.00    +0.198 C 
ENDBRANCH  31  45
ENDBRANCH  28  29
BRANCH  28  47
ATOM     47  O   UNL     1      20.062   4.372  24.316  0.00  0.00    -0.387 OA
ATOM     48  H   UNL     1      20.053   3.968  25.186  0.00  0.00    +0.210 HD
ENDBRANCH  28  47
ENDBRANCH  25  28
ENDBRANCH   1  25
TORSDOF 15
