REMARK VINA RESULT:    -6.585      1.620      3.879
REMARK INTER + INTRA:         -13.731
REMARK INTER:                 -11.943
REMARK INTRA:                  -1.788
REMARK UNBOUND:                -2.334
REMARK  Name = lig_assembled_15.pdb
REMARK  16 active torsions:
REMARK  status: ('A' for Active; 'I' for Inactive)
REMARK    1  A    between atoms: _2  and  _9
REMARK    2  A    between atoms: _4  and  _18
REMARK    3  A    between atoms: _6  and  _7
REMARK    4  A    between atoms: _6  and  _18
REMARK    5  A    between atoms: _14  and  _34
REMARK    6  A    between atoms: _16  and  _22
REMARK    7  A    between atoms: _17  and  _21
REMARK    8  A    between atoms: _21  and  _22
REMARK    9  A    between atoms: _24  and  _25
REMARK   10  A    between atoms: _26  and  _27
REMARK   11  A    between atoms: _28  and  _30
REMARK   12  A    between atoms: _30  and  _31
REMARK   13  A    between atoms: _30  and  _32
REMARK   14  A    between atoms: _32  and  _33
REMARK   15  A    between atoms: _32  and  _34
REMARK   16  A    between atoms: _35  and  _37
REMARK                            x       y       z     vdW  Elec       q    Type
REMARK                         _______ _______ _______ _____ _____    ______ ____
ROOT
ATOM      1  C   UNL     1       3.258   3.099  32.611  0.00  0.00    +0.163 C 
ENDROOT
BRANCH   1   2
ATOM      2  O   UNL     1       4.030   2.222  31.774  0.00  0.00    -0.388 OA
ATOM      3  H   UNL     1       3.501   1.953  31.018  0.00  0.00    +0.210 HD
ENDBRANCH   1   2
BRANCH   1   4
ATOM      4  C   UNL     1       2.267   3.890  31.763  0.00  0.00    +0.141 C 
BRANCH   4   7
ATOM      5  C   UNL     1       1.053   3.538  29.640  0.00  0.00    +0.401 C 
ATOM      6  O   UNL     1       0.095   4.246  29.961  0.00  0.00    -0.226 OA
ATOM      7  N   UNL     1       2.108   3.312  30.423  0.00  0.00    -0.279 N 
ATOM      8  H   UNL     1       2.840   2.709  30.075  0.00  0.00    +0.152 HD
BRANCH   5   9
ATOM      9  O   UNL     1       1.051   2.908  28.357  0.00  0.00    -0.444 OA
BRANCH   9  10
ATOM     10  C   UNL     1       2.206   3.319  27.621  0.00  0.00    +0.292 C 
BRANCH  10  12
ATOM     11  N   UNL     1       1.094   4.653  25.859  0.00  0.00    -0.131 NA
ATOM     12  C   UNL     1       1.852   3.575  26.212  0.00  0.00    +0.121 A 
ATOM     13  C   UNL     1       2.180   2.867  25.078  0.00  0.00    +0.143 A 
ATOM     14  N   UNL     1       1.619   3.576  24.041  0.00  0.00    -0.220 N 
ATOM     15  N   UNL     1       0.952   4.644  24.540  0.00  0.00    -0.060 NA
BRANCH  14  16
ATOM     16  C   UNL     1       1.701   3.323  22.646  0.00  0.00    +0.067 A 
ATOM     17  C   UNL     1       1.807   2.014  22.156  0.00  0.00    +0.029 A 
ATOM     18  C   UNL     1       1.928   1.788  20.781  0.00  0.00    +0.017 A 
ATOM     19  C   UNL     1       1.940   2.865  19.897  0.00  0.00    +0.018 A 
ATOM     20 BR   UNL     1       2.131   2.551  18.043  0.00  0.00    -0.050 Br
ATOM     21  C   UNL     1       1.820   4.169  20.372  0.00  0.00    +0.017 A 
ATOM     22  C   UNL     1       1.698   4.400  21.745  0.00  0.00    +0.029 A 
ENDBRANCH  14  16
ENDBRANCH  10  12
ENDBRANCH   9  10
ENDBRANCH   5   9
ENDBRANCH   4   7
ENDBRANCH   1   4
BRANCH   1  23
ATOM     23  C   UNL     1       4.170   4.071  33.377  0.00  0.00    +0.175 C 
BRANCH  23  24
ATOM     24  C   UNL     1       5.565   3.479  33.629  0.00  0.00    +0.176 C 
ATOM     25  O   UNL     1       5.393   2.118  34.111  0.00  0.00    -0.332 OA
ATOM     26  C   UNL     1       6.628   1.354  34.306  0.00  0.00    +0.277 C 
ATOM     27  C   UNL     1       7.597   2.121  35.239  0.00  0.00    +0.110 C 
ATOM     28  C   UNL     1       7.787   3.583  34.784  0.00  0.00    +0.143 C 
ATOM     29  C   UNL     1       6.439   4.283  34.609  0.00  0.00    +0.133 C 
BRANCH  29  30
ATOM     30  N   UNL     1       6.630   5.648  34.092  0.00  0.00    -0.308 N 
ATOM     31  H   UNL     1       6.944   5.751  33.138  0.00  0.00    +0.149 HD
ATOM     32  C   UNL     1       6.415   6.758  34.803  0.00  0.00    +0.210 C 
ATOM     33  C   UNL     1       5.962   6.567  36.262  0.00  0.00    +0.109 C 
ATOM     34  O   UNL     1       6.569   7.889  34.339  0.00  0.00    -0.276 OA
ENDBRANCH  29  30
BRANCH  26  35
ATOM     35  C   UNL     1       7.321   1.080  32.955  0.00  0.00    +0.414 C 
ATOM     36  O   UNL     1       6.658   0.736  31.977  0.00  0.00    -0.240 OA
ATOM     37  O   UNL     1       8.541   1.203  32.843  0.00  0.00    -0.240 OA
ENDBRANCH  26  35
BRANCH  28  38
ATOM     38  O   UNL     1       8.563   4.292  35.751  0.00  0.00    -0.390 OA
ATOM     39  H   UNL     1       7.996   4.893  36.239  0.00  0.00    +0.210 HD
ENDBRANCH  28  38
BRANCH  26  40
ATOM     40  O   UNL     1       6.282   0.096  34.941  0.00  0.00    -0.343 OA
ATOM     41  C   UNL     1       4.863  -0.109  35.160  0.00  0.00    +0.198 C 
ENDBRANCH  26  40
ENDBRANCH  23  24
BRANCH  23  42
ATOM     42  O   UNL     1       3.557   4.446  34.627  0.00  0.00    -0.387 OA
ATOM     43  H   UNL     1       4.207   4.391  35.332  0.00  0.00    +0.210 HD
ENDBRANCH  23  42
ENDBRANCH   1  23
TORSDOF 14
