REMARK VINA RESULT:    -5.850     25.015     28.212
REMARK INTER + INTRA:         -13.938
REMARK INTER:                  -9.159
REMARK INTRA:                  -4.779
REMARK UNBOUND:                -2.615
REMARK  Name = lig_assembled_83.pdb
REMARK  20 active torsions:
REMARK  status: ('A' for Active; 'I' for Inactive)
REMARK    1  A    between atoms: _2  and  _12
REMARK    2  A    between atoms: _3  and  _14
REMARK    3  A    between atoms: _7  and  _24
REMARK    4  A    between atoms: _9  and  _10
REMARK    5  A    between atoms: _9  and  _24
REMARK    6  A    between atoms: _12  and  _13
REMARK    7  A    between atoms: _13  and  _14
REMARK    8  A    between atoms: _13  and  _18
REMARK    9  A    between atoms: _20  and  _40
REMARK   10  A    between atoms: _22  and  _28
REMARK   11  A    between atoms: _23  and  _27
REMARK   12  A    between atoms: _27  and  _28
REMARK   13  A    between atoms: _30  and  _31
REMARK   14  A    between atoms: _32  and  _33
REMARK   15  A    between atoms: _34  and  _36
REMARK   16  A    between atoms: _36  and  _37
REMARK   17  A    between atoms: _36  and  _38
REMARK   18  A    between atoms: _38  and  _39
REMARK   19  A    between atoms: _38  and  _40
REMARK   20  A    between atoms: _41  and  _43
REMARK                            x       y       z     vdW  Elec       q    Type
REMARK                         _______ _______ _______ _____ _____    ______ ____
ROOT
ATOM      1  C   UNL     1      -3.086  21.690  26.536  0.00  0.00    +0.141 C 
ENDROOT
BRANCH   1   4
ATOM      2  C   UNL     1      -4.370  22.108  28.606  0.00  0.00    +0.401 C 
ATOM      3  O   UNL     1      -4.882  23.149  28.190  0.00  0.00    -0.226 OA
ATOM      4  N   UNL     1      -3.514  21.365  27.903  0.00  0.00    -0.279 N 
ATOM      5  H   UNL     1      -3.140  20.531  28.334  0.00  0.00    +0.152 HD
BRANCH   2   6
ATOM      6  O   UNL     1      -4.695  21.651  29.922  0.00  0.00    -0.444 OA
BRANCH   6   7
ATOM      7  C   UNL     1      -6.042  21.173  29.942  0.00  0.00    +0.292 C 
BRANCH   7   9
ATOM      8  N   UNL     1      -4.994  19.079  29.116  0.00  0.00    -0.131 NA
ATOM      9  C   UNL     1      -6.121  19.825  29.351  0.00  0.00    +0.120 A 
ATOM     10  C   UNL     1      -7.224  19.105  28.952  0.00  0.00    +0.137 A 
ATOM     11  N   UNL     1      -6.704  17.931  28.502  0.00  0.00    -0.249 N 
ATOM     12  N   UNL     1      -5.364  17.919  28.587  0.00  0.00    -0.065 NA
BRANCH  11  13
ATOM     13  C   UNL     1      -7.417  16.801  27.943  0.00  0.00    +0.178 C 
BRANCH  13  14
ATOM     14  C   UNL     1      -7.349  16.783  26.414  0.00  0.00    +0.156 C 
BRANCH  14  15
ATOM     15  O   UNL     1      -6.468  17.814  25.953  0.00  0.00    -0.388 OA
ATOM     16  H   UNL     1      -6.275  17.683  25.003  0.00  0.00    +0.210 HD
ENDBRANCH  14  15
BRANCH  14  17
ATOM     17  C   UNL     1      -6.872  15.411  25.913  0.00  0.00    +0.162 C 
BRANCH  17  18
ATOM     18  N   UNL     1      -7.694  14.895  24.829  0.00  0.00    -0.269 N 
ATOM     19  C   UNL     1      -8.833  14.149  25.032  0.00  0.00    +0.113 A 
ATOM     20  C   UNL     1      -9.330  13.886  23.776  0.00  0.00    +0.137 A 
ATOM     21  N   UNL     1      -8.520  14.421  22.812  0.00  0.00    -0.172 NA
ATOM     22  C   UNL     1      -7.549  15.027  23.469  0.00  0.00    +0.450 A 
ATOM     23  N   UNL     1      -6.482  15.736  22.798  0.00  0.00    +0.120 N 
ATOM     24  O   UNL     1      -5.615  16.275  23.505  0.00  0.00    +0.045 OA
ATOM     25  O   UNL     1      -6.495  15.749  21.562  0.00  0.00    -0.573 OA
ENDBRANCH  17  18
ENDBRANCH  14  17
ENDBRANCH  13  14
ENDBRANCH  11  13
ENDBRANCH   7   9
ENDBRANCH   6   7
ENDBRANCH   2   6
ENDBRANCH   1   4
BRANCH   1  26
ATOM     26  C   UNL     1      -3.305  20.523  25.579  0.00  0.00    +0.163 C 
BRANCH  26  27
ATOM     27  O   UNL     1      -4.473  19.781  25.967  0.00  0.00    -0.388 OA
ATOM     28  H   UNL     1      -4.339  18.849  25.775  0.00  0.00    +0.210 HD
ENDBRANCH  26  27
BRANCH  26  29
ATOM     29  C   UNL     1      -3.443  21.055  24.143  0.00  0.00    +0.175 C 
BRANCH  29  30
ATOM     30  C   UNL     1      -3.247  19.950  23.095  0.00  0.00    +0.176 C 
ATOM     31  O   UNL     1      -2.162  20.355  22.215  0.00  0.00    -0.332 OA
ATOM     32  C   UNL     1      -1.760  19.368  21.209  0.00  0.00    +0.277 C 
ATOM     33  C   UNL     1      -2.981  18.926  20.365  0.00  0.00    +0.110 C 
ATOM     34  C   UNL     1      -4.171  18.516  21.258  0.00  0.00    +0.143 C 
ATOM     35  C   UNL     1      -4.503  19.614  22.269  0.00  0.00    +0.133 C 
BRANCH  35  36
ATOM     36  N   UNL     1      -5.581  19.176  23.170  0.00  0.00    -0.308 N 
ATOM     37  H   UNL     1      -5.383  18.419  23.809  0.00  0.00    +0.149 HD
ATOM     38  C   UNL     1      -6.803  19.715  23.198  0.00  0.00    +0.210 C 
ATOM     39  C   UNL     1      -7.080  20.849  22.194  0.00  0.00    +0.109 C 
ATOM     40  O   UNL     1      -7.682  19.337  23.974  0.00  0.00    -0.276 OA
ENDBRANCH  35  36
BRANCH  32  41
ATOM     41  C   UNL     1      -1.122  18.133  21.878  0.00  0.00    +0.414 C 
ATOM     42  O   UNL     1      -1.547  17.005  21.631  0.00  0.00    -0.240 OA
ATOM     43  O   UNL     1      -0.184  18.264  22.665  0.00  0.00    -0.240 OA
ENDBRANCH  32  41
BRANCH  32  44
ATOM     44  O   UNL     1      -0.796  19.996  20.324  0.00  0.00    -0.343 OA
ATOM     45  C   UNL     1      -0.799  21.445  20.346  0.00  0.00    +0.198 C 
ENDBRANCH  32  44
BRANCH  34  46
ATOM     46  O   UNL     1      -5.318  18.264  20.445  0.00  0.00    -0.390 OA
ATOM     47  H   UNL     1      -5.156  17.496  19.891  0.00  0.00    +0.210 HD
ENDBRANCH  34  46
ENDBRANCH  29  30
BRANCH  29  48
ATOM     48  O   UNL     1      -2.504  22.126  23.917  0.00  0.00    -0.387 OA
ATOM     49  H   UNL     1      -2.410  22.644  24.720  0.00  0.00    +0.210 HD
ENDBRANCH  29  48
ENDBRANCH  26  29
ENDBRANCH   1  26
TORSDOF 18
