REMARK VINA RESULT:    -5.352      6.110      7.275
REMARK INTER + INTRA:         -12.626
REMARK INTER:                 -10.515
REMARK INTRA:                  -2.111
REMARK UNBOUND:                -2.111
REMARK  Name = lig_assembled_17.pdb
REMARK  22 active torsions:
REMARK  status: ('A' for Active; 'I' for Inactive)
REMARK    1  A    between atoms: _2  and  _10
REMARK    2  A    between atoms: _3  and  _11
REMARK    3  A    between atoms: _3  and  _12
REMARK    4  A    between atoms: _3  and  _14
REMARK    5  A    between atoms: _5  and  _19
REMARK    6  A    between atoms: _6  and  _14
REMARK    7  A    between atoms: _7  and  _8
REMARK    8  A    between atoms: _7  and  _19
REMARK    9  A    between atoms: _10  and  _11
REMARK   10  A    between atoms: _12  and  _13
REMARK   11  A    between atoms: _15  and  _35
REMARK   12  A    between atoms: _17  and  _23
REMARK   13  A    between atoms: _18  and  _22
REMARK   14  A    between atoms: _22  and  _23
REMARK   15  A    between atoms: _25  and  _26
REMARK   16  A    between atoms: _27  and  _28
REMARK   17  A    between atoms: _29  and  _31
REMARK   18  A    between atoms: _31  and  _32
REMARK   19  A    between atoms: _31  and  _33
REMARK   20  A    between atoms: _33  and  _34
REMARK   21  A    between atoms: _33  and  _35
REMARK   22  A    between atoms: _36  and  _38
REMARK                            x       y       z     vdW  Elec       q    Type
REMARK                         _______ _______ _______ _____ _____    ______ ____
ROOT
ATOM      1  C   UNL     1       7.868   2.410  34.323  0.00  0.00    +0.163 C 
ENDROOT
BRANCH   1   2
ATOM      2  O   UNL     1       8.809   2.554  35.399  0.00  0.00    -0.388 OA
ATOM      3  H   UNL     1       8.565   1.968  36.119  0.00  0.00    +0.210 HD
ENDBRANCH   1   2
BRANCH   1   4
ATOM      4  C   UNL     1       7.859   3.663  33.429  0.00  0.00    +0.175 C 
BRANCH   4   5
ATOM      5  C   UNL     1       7.011   4.794  34.029  0.00  0.00    +0.176 C 
ATOM      6  O   UNL     1       7.763   5.382  35.127  0.00  0.00    -0.332 OA
ATOM      7  C   UNL     1       7.151   6.555  35.757  0.00  0.00    +0.277 C 
ATOM      8  C   UNL     1       5.710   6.230  36.224  0.00  0.00    +0.110 C 
ATOM      9  C   UNL     1       4.882   5.574  35.099  0.00  0.00    +0.143 C 
ATOM     10  C   UNL     1       5.613   4.366  34.512  0.00  0.00    +0.133 C 
BRANCH  10  11
ATOM     11  N   UNL     1       4.855   3.803  33.384  0.00  0.00    -0.308 N 
ATOM     12  H   UNL     1       4.825   4.332  32.524  0.00  0.00    +0.149 HD
ATOM     13  C   UNL     1       4.203   2.638  33.423  0.00  0.00    +0.210 C 
ATOM     14  C   UNL     1       4.245   1.867  34.756  0.00  0.00    +0.109 C 
ATOM     15  O   UNL     1       3.588   2.183  32.457  0.00  0.00    -0.276 OA
ENDBRANCH  10  11
BRANCH   7  16
ATOM     16  C   UNL     1       7.119   7.748  34.779  0.00  0.00    +0.414 C 
ATOM     17  O   UNL     1       6.044   8.203  34.390  0.00  0.00    -0.240 OA
ATOM     18  O   UNL     1       8.168   8.254  34.378  0.00  0.00    -0.240 OA
ENDBRANCH   7  16
BRANCH   9  19
ATOM     19  O   UNL     1       3.618   5.155  35.613  0.00  0.00    -0.390 OA
ATOM     20  H   UNL     1       3.152   4.647  34.945  0.00  0.00    +0.210 HD
ENDBRANCH   9  19
BRANCH   7  21
ATOM     21  O   UNL     1       7.942   6.902  36.924  0.00  0.00    -0.343 OA
ATOM     22  C   UNL     1       9.080   6.038  37.170  0.00  0.00    +0.198 C 
ENDBRANCH   7  21
ENDBRANCH   4   5
BRANCH   4  23
ATOM     23  O   UNL     1       7.380   3.329  32.111  0.00  0.00    -0.387 OA
ATOM     24  H   UNL     1       8.104   3.385  31.483  0.00  0.00    +0.210 HD
ENDBRANCH   4  23
ENDBRANCH   1   4
BRANCH   1  25
ATOM     25  C   UNL     1       8.219   1.187  33.482  0.00  0.00    +0.141 C 
BRANCH  25  28
ATOM     26  C   UNL     1       7.087  -0.414  31.979  0.00  0.00    +0.401 C 
ATOM     27  O   UNL     1       8.121  -1.026  31.699  0.00  0.00    -0.226 OA
ATOM     28  N   UNL     1       7.042   0.636  32.799  0.00  0.00    -0.279 N 
ATOM     29  H   UNL     1       6.148   1.078  32.960  0.00  0.00    +0.152 HD
BRANCH  26  30
ATOM     30  O   UNL     1       5.851  -0.836  31.398  0.00  0.00    -0.444 OA
BRANCH  30  31
ATOM     31  C   UNL     1       5.991  -2.166  30.890  0.00  0.00    +0.292 C 
BRANCH  31  33
ATOM     32  N   UNL     1       5.309  -1.549  28.595  0.00  0.00    -0.131 NA
ATOM     33  C   UNL     1       6.221  -2.133  29.434  0.00  0.00    +0.120 A 
ATOM     34  C   UNL     1       7.278  -2.610  28.691  0.00  0.00    +0.137 A 
ATOM     35  N   UNL     1       6.956  -2.267  27.413  0.00  0.00    -0.250 N 
ATOM     36  N   UNL     1       5.768  -1.640  27.356  0.00  0.00    -0.065 NA
BRANCH  35  37
ATOM     37  C   UNL     1       7.734  -2.455  26.205  0.00  0.00    +0.160 C 
BRANCH  37  38
ATOM     38  C   UNL     1       8.029  -3.945  25.980  0.00  0.00    +0.107 C 
BRANCH  38  39
ATOM     39  N   UNL     1       6.877  -4.781  25.559  0.00  0.00    -0.301 NA
BRANCH  39  40
ATOM     40  C   UNL     1       7.124  -5.532  24.315  0.00  0.00    +0.081 C 
ATOM     41  C   UNL     1       7.938  -4.817  23.240  0.00  0.00    +0.020 C 
ENDBRANCH  39  40
BRANCH  39  42
ATOM     42  C   UNL     1       6.474  -5.640  26.692  0.00  0.00    +0.081 C 
ATOM     43  C   UNL     1       5.094  -5.336  27.268  0.00  0.00    +0.020 C 
ENDBRANCH  39  42
ENDBRANCH  38  39
ENDBRANCH  37  38
ENDBRANCH  35  37
ENDBRANCH  31  33
ENDBRANCH  30  31
ENDBRANCH  26  30
ENDBRANCH  25  28
ENDBRANCH   1  25
TORSDOF 18
