REMARK VINA RESULT:    -6.766      4.423      6.701
REMARK INTER + INTRA:         -17.141
REMARK INTER:                 -14.059
REMARK INTRA:                  -3.083
REMARK UNBOUND:                -3.256
REMARK  Name = lig_assembled_47.pdb
REMARK  22 active torsions:
REMARK  status: ('A' for Active; 'I' for Inactive)
REMARK    1  A    between atoms: _2  and  _9
REMARK    2  A    between atoms: _4  and  _30
REMARK    3  A    between atoms: _6  and  _7
REMARK    4  A    between atoms: _6  and  _30
REMARK    5  A    between atoms: _9  and  _10
REMARK    6  A    between atoms: _10  and  _11
REMARK    7  A    between atoms: _10  and  _12
REMARK    8  A    between atoms: _11  and  _24
REMARK    9  A    between atoms: _12  and  _13
REMARK   10  A    between atoms: _12  and  _19
REMARK   11  A    between atoms: _26  and  _46
REMARK   12  A    between atoms: _28  and  _34
REMARK   13  A    between atoms: _29  and  _33
REMARK   14  A    between atoms: _33  and  _34
REMARK   15  A    between atoms: _36  and  _37
REMARK   16  A    between atoms: _38  and  _39
REMARK   17  A    between atoms: _40  and  _42
REMARK   18  A    between atoms: _42  and  _43
REMARK   19  A    between atoms: _42  and  _44
REMARK   20  A    between atoms: _44  and  _45
REMARK   21  A    between atoms: _44  and  _46
REMARK   22  A    between atoms: _47  and  _49
REMARK                            x       y       z     vdW  Elec       q    Type
REMARK                         _______ _______ _______ _____ _____    ______ ____
ROOT
ATOM      1  C   UNL     1      -1.070  21.346  14.975  0.00  0.00    +0.401 C 
ATOM      2  O   UNL     1      -1.806  22.256  14.586  0.00  0.00    -0.226 OA
ATOM      3  N   UNL     1      -1.223  20.066  14.633  0.00  0.00    -0.279 N 
ATOM      4  H   UNL     1      -0.562  19.394  14.996  0.00  0.00    +0.152 HD
ENDROOT
BRANCH   3   5
ATOM      5  C   UNL     1      -2.297  19.580  13.759  0.00  0.00    +0.141 C 
BRANCH   5   6
ATOM      6  C   UNL     1      -1.771  18.640  12.680  0.00  0.00    +0.163 C 
BRANCH   6   7
ATOM      7  O   UNL     1      -0.335  18.690  12.642  0.00  0.00    -0.388 OA
ATOM      8  H   UNL     1       0.023  17.853  12.950  0.00  0.00    +0.210 HD
ENDBRANCH   6   7
BRANCH   6   9
ATOM      9  C   UNL     1      -2.264  17.210  12.958  0.00  0.00    +0.175 C 
BRANCH   9  10
ATOM     10  C   UNL     1      -1.266  16.149  12.473  0.00  0.00    +0.176 C 
ATOM     11  O   UNL     1      -0.779  16.558  11.165  0.00  0.00    -0.332 OA
ATOM     12  C   UNL     1       0.270  15.713  10.587  0.00  0.00    +0.277 C 
ATOM     13  C   UNL     1      -0.191  14.236  10.535  0.00  0.00    +0.110 C 
ATOM     14  C   UNL     1      -0.746  13.765  11.895  0.00  0.00    +0.143 C 
ATOM     15  C   UNL     1      -1.829  14.717  12.406  0.00  0.00    +0.133 C 
BRANCH  15  16
ATOM     16  N   UNL     1      -2.288  14.306  13.742  0.00  0.00    -0.308 N 
ATOM     17  H   UNL     1      -1.645  14.408  14.514  0.00  0.00    +0.149 HD
ATOM     18  C   UNL     1      -3.500  13.807  14.000  0.00  0.00    +0.210 C 
ATOM     19  C   UNL     1      -4.448  13.639  12.798  0.00  0.00    +0.109 C 
ATOM     20  O   UNL     1      -3.863  13.485  15.132  0.00  0.00    -0.276 OA
ENDBRANCH  15  16
BRANCH  12  21
ATOM     21  C   UNL     1       1.572  15.819  11.408  0.00  0.00    +0.414 C 
ATOM     22  O   UNL     1       2.617  15.329  10.980  0.00  0.00    -0.240 OA
ATOM     23  O   UNL     1       1.578  16.393  12.498  0.00  0.00    -0.240 OA
ENDBRANCH  12  21
BRANCH  12  24
ATOM     24  O   UNL     1       0.512  16.165   9.229  0.00  0.00    -0.343 OA
ATOM     25  C   UNL     1       0.361  15.145   8.209  0.00  0.00    +0.198 C 
ENDBRANCH  12  24
BRANCH  14  26
ATOM     26  O   UNL     1      -1.297  12.454  11.763  0.00  0.00    -0.390 OA
ATOM     27  H   UNL     1      -2.221  12.466  12.023  0.00  0.00    +0.210 HD
ENDBRANCH  14  26
ENDBRANCH   9  10
BRANCH   9  28
ATOM     28  O   UNL     1      -3.551  16.999  12.343  0.00  0.00    -0.387 OA
ATOM     29  H   UNL     1      -4.240  17.345  12.915  0.00  0.00    +0.210 HD
ENDBRANCH   9  28
ENDBRANCH   6   9
ENDBRANCH   5   6
ENDBRANCH   3   5
BRANCH   1  30
ATOM     30  O   UNL     1       0.022  21.659  15.844  0.00  0.00    -0.444 OA
BRANCH  30  31
ATOM     31  C   UNL     1      -0.377  22.677  16.765  0.00  0.00    +0.292 C 
BRANCH  31  33
ATOM     32  N   UNL     1      -0.129  22.900  19.226  0.00  0.00    -0.131 NA
ATOM     33  C   UNL     1      -0.476  22.142  18.138  0.00  0.00    +0.120 A 
ATOM     34  C   UNL     1      -0.867  20.893  18.571  0.00  0.00    +0.137 A 
ATOM     35  N   UNL     1      -0.688  20.940  19.922  0.00  0.00    -0.251 N 
ATOM     36  N   UNL     1      -0.265  22.153  20.315  0.00  0.00    -0.065 NA
BRANCH  35  37
ATOM     37  C   UNL     1      -0.752  19.840  20.875  0.00  0.00    +0.160 C 
BRANCH  37  38
ATOM     38  C   UNL     1      -1.776  18.762  20.510  0.00  0.00    +0.131 C 
BRANCH  38  39
ATOM     39  C   UNL     1      -1.114  17.408  20.737  0.00  0.00    +0.311 C 
ATOM     40  O   UNL     1      -0.110  17.052  20.139  0.00  0.00    -0.251 OA
BRANCH  39  41
ATOM     41  O   UNL     1      -1.623  16.640  21.722  0.00  0.00    -0.480 OA
ATOM     42  H   UNL     1      -1.304  15.728  21.816  0.00  0.00    +0.295 HD
ENDBRANCH  39  41
ENDBRANCH  38  39
BRANCH  38  43
ATOM     43  C   UNL     1      -3.140  18.877  21.261  0.00  0.00    +0.064 C 
BRANCH  43  44
ATOM     44  C   UNL     1      -3.173  19.861  22.432  0.00  0.00    -0.039 A 
ATOM     45  C   UNL     1      -3.553  21.198  22.209  0.00  0.00    +0.004 A 
ATOM     46  C   UNL     1      -3.594  22.123  23.258  0.00  0.00    +0.000 A 
ATOM     47  C   UNL     1      -3.239  21.734  24.546  0.00  0.00    +0.000 A 
ATOM     48  C   UNL     1      -2.842  20.422  24.782  0.00  0.00    +0.000 A 
ATOM     49  C   UNL     1      -2.819  19.491  23.738  0.00  0.00    +0.004 A 
ENDBRANCH  43  44
BRANCH  43  50
ATOM     50  C   UNL     1      -4.280  19.101  20.258  0.00  0.00    -0.039 A 
ATOM     51  C   UNL     1      -5.549  18.546  20.490  0.00  0.00    +0.004 A 
ATOM     52  C   UNL     1      -6.538  18.601  19.502  0.00  0.00    +0.000 A 
ATOM     53  C   UNL     1      -6.284  19.230  18.286  0.00  0.00    +0.000 A 
ATOM     54  C   UNL     1      -5.046  19.817  18.057  0.00  0.00    +0.000 A 
ATOM     55  C   UNL     1      -4.053  19.753  19.034  0.00  0.00    +0.004 A 
ENDBRANCH  43  50
ENDBRANCH  38  43
ENDBRANCH  37  38
ENDBRANCH  35  37
ENDBRANCH  31  33
ENDBRANCH  30  31
ENDBRANCH   1  30
TORSDOF 20
