REMARK VINA RESULT:    -6.049     15.936     17.595
REMARK INTER + INTRA:         -14.763
REMARK INTER:                 -11.836
REMARK INTRA:                  -2.927
REMARK UNBOUND:                -3.588
REMARK  Name = lig_assembled_58.pdb
REMARK  18 active torsions:
REMARK  status: ('A' for Active; 'I' for Inactive)
REMARK    1  A    between atoms: _2  and  _9
REMARK    2  A    between atoms: _4  and  _25
REMARK    3  A    between atoms: _6  and  _7
REMARK    4  A    between atoms: _6  and  _25
REMARK    5  A    between atoms: _9  and  _10
REMARK    6  A    between atoms: _9  and  _16
REMARK    7  A    between atoms: _21  and  _41
REMARK    8  A    between atoms: _23  and  _29
REMARK    9  A    between atoms: _24  and  _28
REMARK   10  A    between atoms: _28  and  _29
REMARK   11  A    between atoms: _31  and  _32
REMARK   12  A    between atoms: _33  and  _34
REMARK   13  A    between atoms: _35  and  _37
REMARK   14  A    between atoms: _37  and  _38
REMARK   15  A    between atoms: _37  and  _39
REMARK   16  A    between atoms: _39  and  _40
REMARK   17  A    between atoms: _39  and  _41
REMARK   18  A    between atoms: _42  and  _44
REMARK                            x       y       z     vdW  Elec       q    Type
REMARK                         _______ _______ _______ _____ _____    ______ ____
ROOT
ATOM      1  C   UNL     1      -1.515   3.686  30.262  0.00  0.00    +0.141 C 
ENDROOT
BRANCH   1   4
ATOM      2  C   UNL     1      -1.317   4.263  27.867  0.00  0.00    +0.401 C 
ATOM      3  O   UNL     1      -1.897   3.247  27.478  0.00  0.00    -0.226 OA
ATOM      4  N   UNL     1      -1.089   4.546  29.150  0.00  0.00    -0.279 N 
ATOM      5  H   UNL     1      -0.595   5.399  29.370  0.00  0.00    +0.152 HD
BRANCH   2   6
ATOM      6  O   UNL     1      -0.846   5.207  26.902  0.00  0.00    -0.444 OA
BRANCH   6   7
ATOM      7  C   UNL     1      -1.431   4.920  25.629  0.00  0.00    +0.292 C 
BRANCH   7   9
ATOM      8  N   UNL     1       0.675   5.688  24.556  0.00  0.00    -0.131 NA
ATOM      9  C   UNL     1      -0.384   4.821  24.595  0.00  0.00    +0.120 A 
ATOM     10  C   UNL     1      -0.248   3.904  23.580  0.00  0.00    +0.138 A 
ATOM     11  N   UNL     1       0.989   4.163  23.054  0.00  0.00    -0.240 N 
ATOM     12  N   UNL     1       1.501   5.291  23.596  0.00  0.00    -0.064 NA
BRANCH  11  13
ATOM     13  C   UNL     1       1.771   3.386  22.075  0.00  0.00    +0.169 C 
BRANCH  13  14
ATOM     14  C   UNL     1       1.805   1.907  22.486  0.00  0.00    -0.019 A 
ATOM     15  C   UNL     1       1.032   0.962  21.790  0.00  0.00    +0.006 A 
ATOM     16  C   UNL     1       1.012  -0.376  22.193  0.00  0.00    +0.000 A 
ATOM     17  C   UNL     1       1.771  -0.794  23.284  0.00  0.00    +0.000 A 
ATOM     18  C   UNL     1       2.540   0.126  23.987  0.00  0.00    +0.000 A 
ATOM     19  C   UNL     1       2.548   1.465  23.599  0.00  0.00    +0.006 A 
ENDBRANCH  13  14
BRANCH  13  20
ATOM     20  C   UNL     1       1.332   3.645  20.626  0.00  0.00    -0.019 A 
ATOM     21  C   UNL     1       0.122   4.301  20.338  0.00  0.00    +0.006 A 
ATOM     22  C   UNL     1      -0.273   4.532  19.017  0.00  0.00    +0.000 A 
ATOM     23  C   UNL     1       0.543   4.133  17.962  0.00  0.00    +0.000 A 
ATOM     24  C   UNL     1       1.767   3.533  18.225  0.00  0.00    +0.000 A 
ATOM     25  C   UNL     1       2.165   3.309  19.541  0.00  0.00    +0.006 A 
ENDBRANCH  13  20
ENDBRANCH  11  13
ENDBRANCH   7   9
ENDBRANCH   6   7
ENDBRANCH   2   6
ENDBRANCH   1   4
BRANCH   1  26
ATOM     26  C   UNL     1      -0.468   3.629  31.370  0.00  0.00    +0.163 C 
BRANCH  26  27
ATOM     27  O   UNL     1      -0.562   2.378  32.070  0.00  0.00    -0.388 OA
ATOM     28  H   UNL     1       0.317   2.007  32.183  0.00  0.00    +0.210 HD
ENDBRANCH  26  27
BRANCH  26  29
ATOM     29  C   UNL     1       0.933   3.817  30.763  0.00  0.00    +0.175 C 
BRANCH  29  30
ATOM     30  C   UNL     1       1.931   2.770  31.279  0.00  0.00    +0.176 C 
ATOM     31  O   UNL     1       3.079   3.476  31.824  0.00  0.00    -0.332 OA
ATOM     32  C   UNL     1       4.096   2.636  32.462  0.00  0.00    +0.277 C 
ATOM     33  C   UNL     1       4.575   1.532  31.488  0.00  0.00    +0.110 C 
ATOM     34  C   UNL     1       3.388   0.773  30.859  0.00  0.00    +0.143 C 
ATOM     35  C   UNL     1       2.390   1.744  30.226  0.00  0.00    +0.133 C 
BRANCH  35  36
ATOM     36  N   UNL     1       1.221   1.016  29.707  0.00  0.00    -0.308 N 
ATOM     37  H   UNL     1       0.705   0.433  30.351  0.00  0.00    +0.149 HD
ATOM     38  C   UNL     1       0.799   1.075  28.442  0.00  0.00    +0.210 C 
ATOM     39  C   UNL     1       1.623   1.951  27.480  0.00  0.00    +0.109 C 
ATOM     40  O   UNL     1      -0.193   0.466  28.038  0.00  0.00    -0.276 OA
ENDBRANCH  35  36
BRANCH  32  41
ATOM     41  C   UNL     1       3.541   1.985  33.746  0.00  0.00    +0.414 C 
ATOM     42  O   UNL     1       2.915   2.660  34.563  0.00  0.00    -0.240 OA
ATOM     43  O   UNL     1       3.718   0.786  33.966  0.00  0.00    -0.240 OA
ENDBRANCH  32  41
BRANCH  34  44
ATOM     44  O   UNL     1       3.866  -0.128  29.860  0.00  0.00    -0.390 OA
ATOM     45  H   UNL     1       4.257  -0.897  30.281  0.00  0.00    +0.210 HD
ENDBRANCH  34  44
BRANCH  32  46
ATOM     46  O   UNL     1       5.231   3.477  32.793  0.00  0.00    -0.343 OA
ATOM     47  C   UNL     1       6.517   2.807  32.773  0.00  0.00    +0.198 C 
ENDBRANCH  32  46
ENDBRANCH  29  30
BRANCH  29  48
ATOM     48  O   UNL     1       1.420   5.145  31.040  0.00  0.00    -0.387 OA
ATOM     49  H   UNL     1       1.400   5.668  30.235  0.00  0.00    +0.210 HD
ENDBRANCH  29  48
ENDBRANCH  26  29
ENDBRANCH   1  26
TORSDOF 16
