REMARK VINA RESULT:    -6.563      8.580     13.587
REMARK INTER + INTRA:         -13.763
REMARK INTER:                 -11.466
REMARK INTRA:                  -2.297
REMARK UNBOUND:                -1.444
REMARK  Name = lig_assembled_16.pdb
REMARK  19 active torsions:
REMARK  status: ('A' for Active; 'I' for Inactive)
REMARK    1  A    between atoms: _2  and  _9
REMARK    2  A    between atoms: _4  and  _22
REMARK    3  A    between atoms: _6  and  _7
REMARK    4  A    between atoms: _6  and  _22
REMARK    5  A    between atoms: _9  and  _10
REMARK    6  A    between atoms: _13  and  _14
REMARK    7  A    between atoms: _14  and  _16
REMARK    8  A    between atoms: _18  and  _38
REMARK    9  A    between atoms: _20  and  _26
REMARK   10  A    between atoms: _21  and  _25
REMARK   11  A    between atoms: _25  and  _26
REMARK   12  A    between atoms: _28  and  _29
REMARK   13  A    between atoms: _30  and  _31
REMARK   14  A    between atoms: _32  and  _34
REMARK   15  A    between atoms: _34  and  _35
REMARK   16  A    between atoms: _34  and  _36
REMARK   17  A    between atoms: _36  and  _37
REMARK   18  A    between atoms: _36  and  _38
REMARK   19  A    between atoms: _39  and  _41
REMARK                            x       y       z     vdW  Elec       q    Type
REMARK                         _______ _______ _______ _____ _____    ______ ____
ROOT
ATOM      1  C   UNL     1      17.828   1.410  26.671  0.00  0.00    +0.163 C 
ENDROOT
BRANCH   1   2
ATOM      2  O   UNL     1      18.384   0.336  27.447  0.00  0.00    -0.388 OA
ATOM      3  H   UNL     1      18.835  -0.281  26.865  0.00  0.00    +0.210 HD
ENDBRANCH   1   2
BRANCH   1   4
ATOM      4  C   UNL     1      16.570   0.949  25.916  0.00  0.00    +0.175 C 
BRANCH   4   5
ATOM      5  C   UNL     1      16.912   0.060  24.711  0.00  0.00    +0.176 C 
ATOM      6  O   UNL     1      17.439  -1.197  25.219  0.00  0.00    -0.332 OA
ATOM      7  C   UNL     1      17.725  -2.219  24.207  0.00  0.00    +0.277 C 
ATOM      8  C   UNL     1      18.672  -1.654  23.120  0.00  0.00    +0.110 C 
ATOM      9  C   UNL     1      18.169  -0.302  22.573  0.00  0.00    +0.143 C 
ATOM     10  C   UNL     1      17.901   0.685  23.710  0.00  0.00    +0.133 C 
BRANCH  10  11
ATOM     11  N   UNL     1      17.340   1.939  23.183  0.00  0.00    -0.308 N 
ATOM     12  H   UNL     1      16.404   1.914  22.804  0.00  0.00    +0.149 HD
ATOM     13  C   UNL     1      17.988   3.107  23.172  0.00  0.00    +0.210 C 
ATOM     14  C   UNL     1      19.423   3.105  23.731  0.00  0.00    +0.109 C 
ATOM     15  O   UNL     1      17.487   4.145  22.737  0.00  0.00    -0.276 OA
ENDBRANCH  10  11
BRANCH   7  16
ATOM     16  C   UNL     1      16.421  -2.715  23.548  0.00  0.00    +0.414 C 
ATOM     17  O   UNL     1      15.329  -2.397  24.017  0.00  0.00    -0.240 OA
ATOM     18  O   UNL     1      16.461  -3.432  22.547  0.00  0.00    -0.240 OA
ENDBRANCH   7  16
BRANCH   7  19
ATOM     19  O   UNL     1      18.392  -3.327  24.864  0.00  0.00    -0.343 OA
ATOM     20  C   UNL     1      17.919  -3.619  26.203  0.00  0.00    +0.198 C 
ENDBRANCH   7  19
BRANCH   9  21
ATOM     21  O   UNL     1      19.144   0.253  21.689  0.00  0.00    -0.390 OA
ATOM     22  H   UNL     1      19.531   1.035  22.088  0.00  0.00    +0.210 HD
ENDBRANCH   9  21
ENDBRANCH   4   5
BRANCH   4  23
ATOM     23  O   UNL     1      15.801   2.091  25.488  0.00  0.00    -0.387 OA
ATOM     24  H   UNL     1      15.279   2.420  26.224  0.00  0.00    +0.210 HD
ENDBRANCH   4  23
ENDBRANCH   1   4
BRANCH   1  25
ATOM     25  C   UNL     1      17.476   2.582  27.581  0.00  0.00    +0.141 C 
BRANCH  25  28
ATOM     26  C   UNL     1      18.684   4.618  26.872  0.00  0.00    +0.401 C 
ATOM     27  O   UNL     1      19.726   4.317  27.459  0.00  0.00    -0.226 OA
ATOM     28  N   UNL     1      17.581   3.869  26.881  0.00  0.00    -0.279 N 
ATOM     29  H   UNL     1      16.772   4.205  26.378  0.00  0.00    +0.152 HD
BRANCH  26  30
ATOM     30  O   UNL     1      18.630   5.842  26.136  0.00  0.00    -0.444 OA
BRANCH  30  31
ATOM     31  C   UNL     1      19.894   6.506  26.218  0.00  0.00    +0.292 C 
BRANCH  31  33
ATOM     32  N   UNL     1      18.983   8.712  26.880  0.00  0.00    -0.131 NA
ATOM     33  C   UNL     1      19.811   7.651  27.142  0.00  0.00    +0.120 A 
ATOM     34  C   UNL     1      20.450   7.863  28.343  0.00  0.00    +0.137 A 
ATOM     35  N   UNL     1      19.898   9.021  28.804  0.00  0.00    -0.247 N 
ATOM     36  N   UNL     1      19.057   9.557  27.901  0.00  0.00    -0.065 NA
BRANCH  35  37
ATOM     37  C   UNL     1      20.102   9.655  30.090  0.00  0.00    +0.180 C 
BRANCH  37  38
ATOM     38  C   UNL     1      18.864   9.561  30.953  0.00  0.00    -0.026 A 
ATOM     39  C   UNL     1      18.254  10.718  31.459  0.00  0.00    +0.006 A 
ATOM     40  C   UNL     1      17.088  10.626  32.225  0.00  0.00    +0.015 A 
ATOM     41  C   UNL     1      16.524   9.380  32.507  0.00  0.00    +0.059 A 
ATOM     42  C   UNL     1      17.138   8.214  32.025  0.00  0.00    +0.015 A 
ATOM     43  C   UNL     1      18.308   8.309  31.264  0.00  0.00    +0.006 A 
BRANCH  41  44
ATOM     44  C   UNL     1      15.244   9.345  33.263  0.00  0.00    +0.337 C 
ATOM     45  O   UNL     1      14.766   8.309  33.696  0.00  0.00    -0.245 OA
BRANCH  44  46
ATOM     46  O   UNL     1      14.648  10.545  33.395  0.00  0.00    -0.477 OA
ATOM     47  H   UNL     1      13.980  10.601  34.102  0.00  0.00    +0.295 HD
ENDBRANCH  44  46
ENDBRANCH  41  44
ENDBRANCH  37  38
ENDBRANCH  35  37
ENDBRANCH  31  33
ENDBRANCH  30  31
ENDBRANCH  26  30
ENDBRANCH  25  28
ENDBRANCH   1  25
TORSDOF 17
