REMARK VINA RESULT:    -6.539     14.368     18.671
REMARK INTER + INTRA:         -14.296
REMARK INTER:                 -12.107
REMARK INTRA:                  -2.189
REMARK UNBOUND:                -2.597
REMARK  Name = lig_assembled_89.pdb
REMARK  19 active torsions:
REMARK  status: ('A' for Active; 'I' for Inactive)
REMARK    1  A    between atoms: _2  and  _12
REMARK    2  A    between atoms: _5  and  _20
REMARK    3  A    between atoms: _7  and  _29
REMARK    4  A    between atoms: _9  and  _10
REMARK    5  A    between atoms: _9  and  _29
REMARK    6  A    between atoms: _20  and  _21
REMARK    7  A    between atoms: _20  and  _22
REMARK    8  A    between atoms: _25  and  _45
REMARK    9  A    between atoms: _27  and  _33
REMARK   10  A    between atoms: _28  and  _32
REMARK   11  A    between atoms: _32  and  _33
REMARK   12  A    between atoms: _35  and  _36
REMARK   13  A    between atoms: _37  and  _38
REMARK   14  A    between atoms: _39  and  _41
REMARK   15  A    between atoms: _41  and  _42
REMARK   16  A    between atoms: _41  and  _43
REMARK   17  A    between atoms: _43  and  _44
REMARK   18  A    between atoms: _43  and  _45
REMARK   19  A    between atoms: _46  and  _48
REMARK                            x       y       z     vdW  Elec       q    Type
REMARK                         _______ _______ _______ _____ _____    ______ ____
ROOT
ATOM      1  C   UNL     1      19.886   9.854  26.146  0.00  0.00    +0.401 C 
ATOM      2  O   UNL     1      21.067  10.185  26.015  0.00  0.00    -0.226 OA
ATOM      3  N   UNL     1      19.409   8.651  25.821  0.00  0.00    -0.279 N 
ATOM      4  H   UNL     1      18.427   8.471  25.974  0.00  0.00    +0.152 HD
ENDROOT
BRANCH   3   5
ATOM      5  C   UNL     1      20.231   7.575  25.254  0.00  0.00    +0.141 C 
BRANCH   5   6
ATOM      6  C   UNL     1      19.377   6.476  24.631  0.00  0.00    +0.163 C 
BRANCH   6   7
ATOM      7  O   UNL     1      18.613   7.007  23.536  0.00  0.00    -0.388 OA
ATOM      8  H   UNL     1      18.230   6.285  23.032  0.00  0.00    +0.210 HD
ENDBRANCH   6   7
BRANCH   6   9
ATOM      9  C   UNL     1      20.283   5.324  24.163  0.00  0.00    +0.175 C 
BRANCH   9  10
ATOM     10  C   UNL     1      19.638   3.950  24.394  0.00  0.00    +0.176 C 
ATOM     11  O   UNL     1      18.563   3.792  23.427  0.00  0.00    -0.332 OA
ATOM     12  C   UNL     1      17.896   2.486  23.428  0.00  0.00    +0.277 C 
ATOM     13  C   UNL     1      17.378   2.145  24.847  0.00  0.00    +0.110 C 
ATOM     14  C   UNL     1      18.477   2.329  25.914  0.00  0.00    +0.143 C 
ATOM     15  C   UNL     1      19.106   3.720  25.821  0.00  0.00    +0.133 C 
BRANCH  15  16
ATOM     16  N   UNL     1      20.209   3.853  26.784  0.00  0.00    -0.308 N 
ATOM     17  H   UNL     1      21.043   3.304  26.625  0.00  0.00    +0.149 HD
ATOM     18  C   UNL     1      20.182   4.650  27.855  0.00  0.00    +0.210 C 
ATOM     19  C   UNL     1      18.887   5.453  28.084  0.00  0.00    +0.109 C 
ATOM     20  O   UNL     1      21.128   4.752  28.638  0.00  0.00    -0.276 OA
ENDBRANCH  15  16
BRANCH  12  21
ATOM     21  C   UNL     1      18.859   1.380  22.951  0.00  0.00    +0.414 C 
ATOM     22  O   UNL     1      18.779   0.244  23.417  0.00  0.00    -0.240 OA
ATOM     23  O   UNL     1      19.716   1.622  22.099  0.00  0.00    -0.240 OA
ENDBRANCH  12  21
BRANCH  14  24
ATOM     24  O   UNL     1      17.919   2.151  27.216  0.00  0.00    -0.390 OA
ATOM     25  H   UNL     1      17.577   1.258  27.300  0.00  0.00    +0.210 HD
ENDBRANCH  14  24
BRANCH  12  26
ATOM     26  O   UNL     1      16.758   2.563  22.532  0.00  0.00    -0.343 OA
ATOM     27  C   UNL     1      16.805   3.652  21.575  0.00  0.00    +0.198 C 
ENDBRANCH  12  26
ENDBRANCH   9  10
BRANCH   9  28
ATOM     28  O   UNL     1      21.559   5.393  24.830  0.00  0.00    -0.387 OA
ATOM     29  H   UNL     1      21.578   4.758  25.551  0.00  0.00    +0.210 HD
ENDBRANCH   9  28
ENDBRANCH   6   9
ENDBRANCH   5   6
ENDBRANCH   3   5
BRANCH   1  30
ATOM     30  O   UNL     1      18.955  10.798  26.680  0.00  0.00    -0.444 OA
BRANCH  30  31
ATOM     31  C   UNL     1      19.606  11.610  27.660  0.00  0.00    +0.292 C 
BRANCH  31  33
ATOM     32  N   UNL     1      19.982  11.568  30.096  0.00  0.00    -0.131 NA
ATOM     33  C   UNL     1      19.269  11.142  29.015  0.00  0.00    +0.121 A 
ATOM     34  C   UNL     1      18.271  10.299  29.441  0.00  0.00    +0.145 A 
ATOM     35  N   UNL     1      18.396  10.255  30.816  0.00  0.00    -0.199 N 
ATOM     36  N   UNL     1      19.441  11.032  31.182  0.00  0.00    -0.059 NA
BRANCH  35  37
ATOM     37  C   UNL     1      17.510   9.586  31.712  0.00  0.00    +0.186 A 
ATOM     38  C   UNL     1      17.544   8.289  32.181  0.00  0.00    +0.158 A 
ATOM     39  C   UNL     1      18.354   7.153  31.864  0.00  0.00    +0.280 A 
ATOM     40  O   UNL     1      18.982   7.067  30.817  0.00  0.00    -0.265 OA
ATOM     41  N   UNL     1      18.351   6.124  32.828  0.00  0.00    -0.302 N 
ATOM     42  C   UNL     1      17.274   6.033  33.789  0.00  0.00    +0.069 A 
ATOM     43  C   UNL     1      17.062   4.897  34.583  0.00  0.00    +0.028 A 
ATOM     44  C   UNL     1      15.977   4.822  35.468  0.00  0.00    +0.002 A 
ATOM     45  C   UNL     1      15.086   5.883  35.586  0.00  0.00    +0.002 A 
ATOM     46  C   UNL     1      15.275   7.031  34.823  0.00  0.00    +0.028 A 
ATOM     47  C   UNL     1      16.353   7.095  33.929  0.00  0.00    +0.072 A 
ATOM     48  N   UNL     1      16.566   8.235  33.138  0.00  0.00    -0.291 N 
ATOM     49  C   UNL     1      15.918   9.444  33.128  0.00  0.00    +0.207 A 
ATOM     50  N   UNL     1      16.469  10.291  32.286  0.00  0.00    -0.216 NA
BRANCH  41  51
ATOM     51  C   UNL     1      19.354   5.043  32.691  0.00  0.00    +0.085 C 
ATOM     52  C   UNL     1      20.807   5.551  32.616  0.00  0.00    +0.030 C 
ATOM     53  C   UNL     1      19.046   4.128  31.506  0.00  0.00    +0.030 C 
ENDBRANCH  41  51
ENDBRANCH  35  37
ENDBRANCH  31  33
ENDBRANCH  30  31
ENDBRANCH   1  30
TORSDOF 15
