REMARK VINA RESULT:    -5.909     14.576     18.167
REMARK INTER + INTRA:         -12.819
REMARK INTER:                 -10.458
REMARK INTRA:                  -2.362
REMARK UNBOUND:                -2.246
REMARK  Name = lig_assembled_5.pdb
REMARK  18 active torsions:
REMARK  status: ('A' for Active; 'I' for Inactive)
REMARK    1  A    between atoms: _2  and  _9
REMARK    2  A    between atoms: _4  and  _20
REMARK    3  A    between atoms: _6  and  _7
REMARK    4  A    between atoms: _6  and  _20
REMARK    5  A    between atoms: _12  and  _15
REMARK    6  A    between atoms: _13  and  _15
REMARK    7  A    between atoms: _16  and  _36
REMARK    8  A    between atoms: _18  and  _24
REMARK    9  A    between atoms: _19  and  _23
REMARK   10  A    between atoms: _23  and  _24
REMARK   11  A    between atoms: _26  and  _27
REMARK   12  A    between atoms: _28  and  _29
REMARK   13  A    between atoms: _30  and  _32
REMARK   14  A    between atoms: _32  and  _33
REMARK   15  A    between atoms: _32  and  _34
REMARK   16  A    between atoms: _34  and  _35
REMARK   17  A    between atoms: _34  and  _36
REMARK   18  A    between atoms: _37  and  _39
REMARK                            x       y       z     vdW  Elec       q    Type
REMARK                         _______ _______ _______ _____ _____    ______ ____
ROOT
ATOM      1  C   UNL     1      17.197   1.148  26.231  0.00  0.00    +0.163 C 
ENDROOT
BRANCH   1   2
ATOM      2  O   UNL     1      16.123   0.255  26.569  0.00  0.00    -0.388 OA
ATOM      3  H   UNL     1      16.463  -0.639  26.649  0.00  0.00    +0.210 HD
ENDBRANCH   1   2
BRANCH   1   4
ATOM      4  C   UNL     1      16.735   2.143  25.171  0.00  0.00    +0.141 C 
BRANCH   4   7
ATOM      5  C   UNL     1      18.193   3.500  23.709  0.00  0.00    +0.401 C 
ATOM      6  O   UNL     1      17.825   2.946  22.670  0.00  0.00    -0.226 OA
ATOM      7  N   UNL     1      17.740   3.184  24.923  0.00  0.00    -0.279 N 
ATOM      8  H   UNL     1      18.109   3.689  25.716  0.00  0.00    +0.152 HD
BRANCH   5   9
ATOM      9  O   UNL     1      19.166   4.545  23.631  0.00  0.00    -0.444 OA
BRANCH   9  10
ATOM     10  C   UNL     1      18.503   5.810  23.549  0.00  0.00    +0.292 C 
BRANCH  10  12
ATOM     11  N   UNL     1      20.217   7.241  24.617  0.00  0.00    -0.131 NA
ATOM     12  C   UNL     1      18.964   6.700  24.632  0.00  0.00    +0.121 A 
ATOM     13  C   UNL     1      18.302   7.133  25.756  0.00  0.00    +0.143 A 
ATOM     14  N   UNL     1      19.190   7.970  26.394  0.00  0.00    -0.220 N 
ATOM     15  N   UNL     1      20.350   8.004  25.693  0.00  0.00    -0.060 NA
BRANCH  14  16
ATOM     16  C   UNL     1      18.999   8.736  27.573  0.00  0.00    +0.067 A 
ATOM     17  C   UNL     1      19.157   8.157  28.838  0.00  0.00    +0.031 A 
ATOM     18  C   UNL     1      18.905   8.912  29.986  0.00  0.00    +0.048 A 
ATOM     19  C   UNL     1      18.515  10.249  29.893  0.00  0.00    +0.120 A 
ATOM     20  C   UNL     1      18.373  10.834  28.635  0.00  0.00    +0.048 A 
ATOM     21  C   UNL     1      18.612  10.081  27.477  0.00  0.00    +0.031 A 
BRANCH  19  22
ATOM     22  O   UNL     1      18.241  10.853  31.089  0.00  0.00    -0.495 OA
ATOM     23  C   UNL     1      17.636  10.037  32.082  0.00  0.00    +0.277 C 
ENDBRANCH  19  22
ENDBRANCH  14  16
ENDBRANCH  10  12
ENDBRANCH   9  10
ENDBRANCH   5   9
ENDBRANCH   4   7
ENDBRANCH   1   4
BRANCH   1  24
ATOM     24  C   UNL     1      18.416   0.369  25.707  0.00  0.00    +0.175 C 
BRANCH  24  25
ATOM     25  C   UNL     1      18.018  -0.710  24.689  0.00  0.00    +0.176 C 
ATOM     26  O   UNL     1      17.685  -1.919  25.426  0.00  0.00    -0.332 OA
ATOM     27  C   UNL     1      17.177  -3.033  24.621  0.00  0.00    +0.277 C 
ATOM     28  C   UNL     1      18.168  -3.372  23.480  0.00  0.00    +0.110 C 
ATOM     29  C   UNL     1      18.576  -2.113  22.687  0.00  0.00    +0.143 C 
ATOM     30  C   UNL     1      19.087  -1.017  23.624  0.00  0.00    +0.133 C 
BRANCH  30  31
ATOM     31  N   UNL     1      19.390   0.208  22.866  0.00  0.00    -0.308 N 
ATOM     32  H   UNL     1      18.619   0.702  22.440  0.00  0.00    +0.149 HD
ATOM     33  C   UNL     1      20.618   0.708  22.705  0.00  0.00    +0.210 C 
ATOM     34  C   UNL     1      21.775  -0.083  23.344  0.00  0.00    +0.109 C 
ATOM     35  O   UNL     1      20.841   1.744  22.077  0.00  0.00    -0.276 OA
ENDBRANCH  30  31
BRANCH  27  36
ATOM     36  C   UNL     1      15.798  -2.690  24.020  0.00  0.00    +0.414 C 
ATOM     37  O   UNL     1      15.240  -3.478  23.258  0.00  0.00    -0.240 OA
ATOM     38  O   UNL     1      15.243  -1.626  24.298  0.00  0.00    -0.240 OA
ENDBRANCH  27  36
BRANCH  27  39
ATOM     39  O   UNL     1      17.058  -4.194  25.484  0.00  0.00    -0.343 OA
ATOM     40  C   UNL     1      16.370  -3.956  26.737  0.00  0.00    +0.198 C 
ENDBRANCH  27  39
BRANCH  29  41
ATOM     41  O   UNL     1      19.600  -2.445  21.749  0.00  0.00    -0.390 OA
ATOM     42  H   UNL     1      19.782  -1.686  21.190  0.00  0.00    +0.210 HD
ENDBRANCH  29  41
ENDBRANCH  24  25
BRANCH  24  43
ATOM     43  O   UNL     1      19.135  -0.225  26.806  0.00  0.00    -0.387 OA
ATOM     44  H   UNL     1      19.543   0.466  27.333  0.00  0.00    +0.210 HD
ENDBRANCH  24  43
ENDBRANCH   1  24
TORSDOF 15
