REMARK VINA RESULT:    -6.025      9.224     18.334
REMARK INTER + INTRA:         -14.128
REMARK INTER:                 -11.654
REMARK INTRA:                  -2.474
REMARK UNBOUND:                -2.643
REMARK  Name = lig_assembled_21.pdb
REMARK  20 active torsions:
REMARK  status: ('A' for Active; 'I' for Inactive)
REMARK    1  A    between atoms: _2  and  _9
REMARK    2  A    between atoms: _4  and  _23
REMARK    3  A    between atoms: _6  and  _7
REMARK    4  A    between atoms: _6  and  _23
REMARK    5  A    between atoms: _9  and  _10
REMARK    6  A    between atoms: _11  and  _18
REMARK    7  A    between atoms: _12  and  _13
REMARK    8  A    between atoms: _12  and  _18
REMARK    9  A    between atoms: _19  and  _39
REMARK   10  A    between atoms: _21  and  _27
REMARK   11  A    between atoms: _22  and  _26
REMARK   12  A    between atoms: _26  and  _27
REMARK   13  A    between atoms: _29  and  _30
REMARK   14  A    between atoms: _31  and  _32
REMARK   15  A    between atoms: _33  and  _35
REMARK   16  A    between atoms: _35  and  _36
REMARK   17  A    between atoms: _35  and  _37
REMARK   18  A    between atoms: _37  and  _38
REMARK   19  A    between atoms: _37  and  _39
REMARK   20  A    between atoms: _40  and  _42
REMARK                            x       y       z     vdW  Elec       q    Type
REMARK                         _______ _______ _______ _____ _____    ______ ____
ROOT
ATOM      1  C   UNL     1      -2.531   8.400  13.820  0.00  0.00    +0.163 C 
ENDROOT
BRANCH   1   2
ATOM      2  O   UNL     1      -1.160   8.822  13.727  0.00  0.00    -0.388 OA
ATOM      3  H   UNL     1      -0.636   8.125  13.326  0.00  0.00    +0.210 HD
ENDBRANCH   1   2
BRANCH   1   4
ATOM      4  C   UNL     1      -3.331   8.853  12.586  0.00  0.00    +0.175 C 
BRANCH   4   5
ATOM      5  C   UNL     1      -3.457  10.381  12.508  0.00  0.00    +0.176 C 
ATOM      6  O   UNL     1      -2.176  10.914  12.072  0.00  0.00    -0.332 OA
ATOM      7  C   UNL     1      -2.137  12.361  11.838  0.00  0.00    +0.277 C 
ATOM      8  C   UNL     1      -2.621  13.125  13.094  0.00  0.00    +0.110 C 
ATOM      9  C   UNL     1      -3.965  12.573  13.614  0.00  0.00    +0.143 C 
ATOM     10  C   UNL     1      -3.894  11.060  13.820  0.00  0.00    +0.133 C 
BRANCH  10  11
ATOM     11  N   UNL     1      -5.205  10.533  14.232  0.00  0.00    -0.308 N 
ATOM     12  H   UNL     1      -5.948  10.529  13.548  0.00  0.00    +0.149 HD
ATOM     13  C   UNL     1      -5.476  10.060  15.451  0.00  0.00    +0.210 C 
ATOM     14  C   UNL     1      -4.330  10.104  16.479  0.00  0.00    +0.109 C 
ATOM     15  O   UNL     1      -6.580   9.612  15.764  0.00  0.00    -0.276 OA
ENDBRANCH  10  11
BRANCH   7  16
ATOM     16  C   UNL     1      -3.019  12.743  10.630  0.00  0.00    +0.414 C 
ATOM     17  O   UNL     1      -3.035  12.033   9.625  0.00  0.00    -0.240 OA
ATOM     18  O   UNL     1      -3.713  13.760  10.661  0.00  0.00    -0.240 OA
ENDBRANCH   7  16
BRANCH   9  19
ATOM     19  O   UNL     1      -4.297  13.201  14.853  0.00  0.00    -0.390 OA
ATOM     20  H   UNL     1      -3.641  12.971  15.515  0.00  0.00    +0.210 HD
ENDBRANCH   9  19
BRANCH   7  21
ATOM     21  O   UNL     1      -0.761  12.737  11.576  0.00  0.00    -0.343 OA
ATOM     22  C   UNL     1      -0.424  14.105  11.918  0.00  0.00    +0.198 C 
ENDBRANCH   7  21
ENDBRANCH   4   5
BRANCH   4  23
ATOM     23  O   UNL     1      -4.638   8.246  12.592  0.00  0.00    -0.387 OA
ATOM     24  H   UNL     1      -4.685   7.580  11.902  0.00  0.00    +0.210 HD
ENDBRANCH   4  23
ENDBRANCH   1   4
BRANCH   1  25
ATOM     25  C   UNL     1      -2.602   6.881  13.943  0.00  0.00    +0.141 C 
BRANCH  25  28
ATOM     26  C   UNL     1      -1.926   6.338  16.257  0.00  0.00    +0.401 C 
ATOM     27  O   UNL     1      -0.729   6.560  16.060  0.00  0.00    -0.226 OA
ATOM     28  N   UNL     1      -2.870   6.456  15.323  0.00  0.00    -0.279 N 
ATOM     29  H   UNL     1      -3.824   6.242  15.578  0.00  0.00    +0.152 HD
BRANCH  26  30
ATOM     30  O   UNL     1      -2.350   5.921  17.558  0.00  0.00    -0.444 OA
BRANCH  30  31
ATOM     31  C   UNL     1      -2.449   4.495  17.594  0.00  0.00    +0.292 C 
BRANCH  31  33
ATOM     32  N   UNL     1      -0.854   2.638  17.930  0.00  0.00    -0.131 NA
ATOM     33  C   UNL     1      -1.245   3.916  18.217  0.00  0.00    +0.120 A 
ATOM     34  C   UNL     1      -0.340   4.477  19.091  0.00  0.00    +0.137 A 
ATOM     35  N   UNL     1       0.630   3.520  19.224  0.00  0.00    -0.247 N 
ATOM     36  N   UNL     1       0.292   2.405  18.552  0.00  0.00    -0.065 NA
BRANCH  35  37
ATOM     37  C   UNL     1       1.906   3.683  19.913  0.00  0.00    +0.184 C 
BRANCH  37  38
ATOM     38  C   UNL     1       1.830   3.787  21.417  0.00  0.00    +0.016 A 
ATOM     39  C   UNL     1       1.826   2.647  22.241  0.00  0.00    +0.137 A 
ATOM     40  C   UNL     1       1.759   2.764  23.630  0.00  0.00    +0.047 A 
ATOM     41  C   UNL     1       1.712   4.029  24.216  0.00  0.00    +0.004 A 
ATOM     42  C   UNL     1       1.700   5.170  23.416  0.00  0.00    +0.001 A 
ATOM     43  C   UNL     1       1.762   5.051  22.027  0.00  0.00    +0.009 A 
BRANCH  39  44
ATOM     44  O   UNL     1       1.807   1.390  21.592  0.00  0.00    -0.426 OA
BRANCH  44  45
ATOM     45  C   UNL     1       1.013   0.329  22.033  0.00  0.00    +0.309 C 
ATOM     46  O   UNL     1       1.350  -0.596  22.760  0.00  0.00    -0.251 OA
ATOM     47  C   UNL     1      -0.387   0.528  21.531  0.00  0.00    +0.136 C 
ENDBRANCH  44  45
ENDBRANCH  39  44
ENDBRANCH  37  38
ENDBRANCH  35  37
ENDBRANCH  31  33
ENDBRANCH  30  31
ENDBRANCH  26  30
ENDBRANCH  25  28
ENDBRANCH   1  25
TORSDOF 17
