REMARK VINA RESULT:    -6.049      0.000      0.000
REMARK INTER + INTRA:         -14.691
REMARK INTER:                 -11.223
REMARK INTRA:                  -3.468
REMARK UNBOUND:                -3.868
REMARK  Name = lig_assembled_85.pdb
REMARK  19 active torsions:
REMARK  status: ('A' for Active; 'I' for Inactive)
REMARK    1  A    between atoms: _2  and  _10
REMARK    2  A    between atoms: _3  and  _6
REMARK    3  A    between atoms: _3  and  _17
REMARK    4  A    between atoms: _5  and  _23
REMARK    5  A    between atoms: _7  and  _8
REMARK    6  A    between atoms: _7  and  _23
REMARK    7  A    between atoms: _15  and  _16
REMARK    8  A    between atoms: _19  and  _39
REMARK    9  A    between atoms: _21  and  _27
REMARK   10  A    between atoms: _22  and  _26
REMARK   11  A    between atoms: _26  and  _27
REMARK   12  A    between atoms: _29  and  _30
REMARK   13  A    between atoms: _31  and  _32
REMARK   14  A    between atoms: _33  and  _35
REMARK   15  A    between atoms: _35  and  _36
REMARK   16  A    between atoms: _35  and  _37
REMARK   17  A    between atoms: _37  and  _38
REMARK   18  A    between atoms: _37  and  _39
REMARK   19  A    between atoms: _40  and  _42
REMARK                            x       y       z     vdW  Elec       q    Type
REMARK                         _______ _______ _______ _____ _____    ______ ____
ROOT
ATOM      1  C   UNL     1      17.191   2.818  21.409  0.00  0.00    +0.141 C 
ENDROOT
BRANCH   1   4
ATOM      2  C   UNL     1      18.354   0.647  21.204  0.00  0.00    +0.401 C 
ATOM      3  O   UNL     1      19.275   1.098  20.520  0.00  0.00    -0.226 OA
ATOM      4  N   UNL     1      17.335   1.378  21.658  0.00  0.00    -0.279 N 
ATOM      5  H   UNL     1      16.621   0.915  22.203  0.00  0.00    +0.152 HD
BRANCH   2   6
ATOM      6  O   UNL     1      18.355  -0.743  21.540  0.00  0.00    -0.444 OA
BRANCH   6   7
ATOM      7  C   UNL     1      18.111  -0.896  22.941  0.00  0.00    +0.292 C 
BRANCH   7   9
ATOM      8  N   UNL     1      18.405  -3.341  23.112  0.00  0.00    -0.131 NA
ATOM      9  C   UNL     1      17.596  -2.247  23.224  0.00  0.00    +0.121 A 
ATOM     10  C   UNL     1      16.355  -2.642  23.668  0.00  0.00    +0.143 A 
ATOM     11  N   UNL     1      16.457  -4.003  23.819  0.00  0.00    -0.219 N 
ATOM     12  N   UNL     1      17.712  -4.400  23.502  0.00  0.00    -0.060 NA
BRANCH  11  13
ATOM     13  C   UNL     1      15.512  -4.926  24.319  0.00  0.00    +0.080 A 
ATOM     14  C   UNL     1      15.227  -5.103  25.682  0.00  0.00    +0.062 A 
ATOM     15  C   UNL     1      14.453  -6.228  26.050  0.00  0.00    +0.016 A 
ATOM     16  C   UNL     1      13.957  -7.128  25.101  0.00  0.00    +0.021 A 
ATOM     17  C   UNL     1      14.189  -6.894  23.754  0.00  0.00    +0.043 A 
ATOM     18 CL   UNL     1      13.619  -8.009  22.575  0.00  0.00    -0.083 Cl
ATOM     19  C   UNL     1      14.936  -5.789  23.358  0.00  0.00    +0.048 A 
BRANCH  14  20
ATOM     20  C   UNL     1      15.702  -4.296  26.845  0.00  0.00    +0.248 C 
ATOM     21  O   UNL     1      14.889  -3.473  27.275  0.00  0.00    -0.270 OA
ATOM     22  N   UNL     1      16.987  -4.391  27.389  0.00  0.00    -0.304 N 
ATOM     23  C   UNL     1      18.012  -5.383  27.091  0.00  0.00    +0.132 C 
ATOM     24  C   UNL     1      17.280  -3.516  28.519  0.00  0.00    +0.132 C 
ENDBRANCH  14  20
ENDBRANCH  11  13
ENDBRANCH   7   9
ENDBRANCH   6   7
ENDBRANCH   2   6
ENDBRANCH   1   4
BRANCH   1  25
ATOM     25  C   UNL     1      17.012   3.603  22.703  0.00  0.00    +0.163 C 
BRANCH  25  26
ATOM     26  O   UNL     1      15.983   3.001  23.505  0.00  0.00    -0.388 OA
ATOM     27  H   UNL     1      15.365   2.535  22.937  0.00  0.00    +0.210 HD
ENDBRANCH  25  26
BRANCH  25  28
ATOM     28  C   UNL     1      18.347   3.650  23.466  0.00  0.00    +0.175 C 
BRANCH  28  29
ATOM     29  C   UNL     1      18.522   2.442  24.399  0.00  0.00    +0.176 C 
ATOM     30  O   UNL     1      17.861   2.750  25.657  0.00  0.00    -0.332 OA
ATOM     31  C   UNL     1      17.834   1.664  26.641  0.00  0.00    +0.277 C 
ATOM     32  C   UNL     1      19.267   1.146  26.915  0.00  0.00    +0.110 C 
ATOM     33  C   UNL     1      20.021   0.835  25.605  0.00  0.00    +0.143 C 
ATOM     34  C   UNL     1      19.984   2.032  24.654  0.00  0.00    +0.133 C 
BRANCH  34  35
ATOM     35  N   UNL     1      20.630   1.694  23.376  0.00  0.00    -0.308 N 
ATOM     36  H   UNL     1      20.182   1.005  22.789  0.00  0.00    +0.149 HD
ATOM     37  C   UNL     1      21.770   2.239  22.941  0.00  0.00    +0.210 C 
ATOM     38  C   UNL     1      22.441   3.268  23.871  0.00  0.00    +0.109 C 
ATOM     39  O   UNL     1      22.280   1.948  21.859  0.00  0.00    -0.276 OA
ENDBRANCH  34  35
BRANCH  31  40
ATOM     40  C   UNL     1      16.951   0.499  26.145  0.00  0.00    +0.414 C 
ATOM     41  O   UNL     1      15.993   0.719  25.406  0.00  0.00    -0.240 OA
ATOM     42  O   UNL     1      17.197  -0.659  26.485  0.00  0.00    -0.240 OA
ENDBRANCH  31  40
BRANCH  33  43
ATOM     43  O   UNL     1      21.380   0.508  25.898  0.00  0.00    -0.390 OA
ATOM     44  H   UNL     1      21.703  -0.125  25.252  0.00  0.00    +0.210 HD
ENDBRANCH  33  43
BRANCH  31  45
ATOM     45  O   UNL     1      17.293   2.193  27.879  0.00  0.00    -0.343 OA
ATOM     46  C   UNL     1      17.761   3.519  28.233  0.00  0.00    +0.198 C 
ENDBRANCH  31  45
ENDBRANCH  28  29
BRANCH  28  47
ATOM     47  O   UNL     1      18.448   4.876  24.216  0.00  0.00    -0.387 OA
ATOM     48  H   UNL     1      17.621   5.040  24.676  0.00  0.00    +0.210 HD
ENDBRANCH  28  47
ENDBRANCH  25  28
ENDBRANCH   1  25
TORSDOF 15
