REMARK VINA RESULT:    -5.749     13.910     16.100
REMARK INTER + INTRA:         -13.693
REMARK INTER:                 -11.875
REMARK INTRA:                  -1.817
REMARK UNBOUND:                -3.239
REMARK  Name = lig_assembled_88.pdb
REMARK  18 active torsions:
REMARK  status: ('A' for Active; 'I' for Inactive)
REMARK    1  A    between atoms: _2  and  _9
REMARK    2  A    between atoms: _4  and  _20
REMARK    3  A    between atoms: _5  and  _15
REMARK    4  A    between atoms: _6  and  _7
REMARK    5  A    between atoms: _6  and  _20
REMARK    6  A    between atoms: _9  and  _10
REMARK    7  A    between atoms: _16  and  _36
REMARK    8  A    between atoms: _18  and  _24
REMARK    9  A    between atoms: _19  and  _23
REMARK   10  A    between atoms: _23  and  _24
REMARK   11  A    between atoms: _26  and  _27
REMARK   12  A    between atoms: _28  and  _29
REMARK   13  A    between atoms: _30  and  _32
REMARK   14  A    between atoms: _32  and  _33
REMARK   15  A    between atoms: _32  and  _34
REMARK   16  A    between atoms: _34  and  _35
REMARK   17  A    between atoms: _34  and  _36
REMARK   18  A    between atoms: _37  and  _39
REMARK                            x       y       z     vdW  Elec       q    Type
REMARK                         _______ _______ _______ _____ _____    ______ ____
ROOT
ATOM      1  C   UNL     1      18.987   7.303  30.158  0.00  0.00    +0.163 C 
ENDROOT
BRANCH   1   2
ATOM      2  O   UNL     1      18.453   5.969  30.144  0.00  0.00    -0.388 OA
ATOM      3  H   UNL     1      17.497   6.008  30.059  0.00  0.00    +0.210 HD
ENDBRANCH   1   2
BRANCH   1   4
ATOM      4  C   UNL     1      19.485   7.682  31.563  0.00  0.00    +0.175 C 
BRANCH   4   5
ATOM      5  C   UNL     1      18.435   8.476  32.355  0.00  0.00    +0.176 C 
ATOM      6  O   UNL     1      17.375   7.557  32.737  0.00  0.00    -0.332 OA
ATOM      7  C   UNL     1      16.328   8.119  33.596  0.00  0.00    +0.277 C 
ATOM      8  C   UNL     1      15.716   9.383  32.946  0.00  0.00    +0.110 C 
ATOM      9  C   UNL     1      16.807  10.377  32.494  0.00  0.00    +0.143 C 
ATOM     10  C   UNL     1      17.845   9.686  31.608  0.00  0.00    +0.133 C 
BRANCH  10  11
ATOM     11  N   UNL     1      18.925  10.621  31.256  0.00  0.00    -0.308 N 
ATOM     12  H   UNL     1      19.541  10.931  31.995  0.00  0.00    +0.149 HD
ATOM     13  C   UNL     1      19.146  11.086  30.023  0.00  0.00    +0.210 C 
ATOM     14  C   UNL     1      18.175  10.616  28.924  0.00  0.00    +0.109 C 
ATOM     15  O   UNL     1      20.068  11.857  29.755  0.00  0.00    -0.276 OA
ENDBRANCH  10  11
BRANCH   7  16
ATOM     16  C   UNL     1      16.895   8.476  34.986  0.00  0.00    +0.414 C 
ATOM     17  O   UNL     1      16.418   9.411  35.628  0.00  0.00    -0.240 OA
ATOM     18  O   UNL     1      17.828   7.830  35.464  0.00  0.00    -0.240 OA
ENDBRANCH   7  16
BRANCH   7  19
ATOM     19  O   UNL     1      15.281   7.124  33.736  0.00  0.00    -0.343 OA
ATOM     20  C   UNL     1      15.735   5.748  33.693  0.00  0.00    +0.198 C 
ENDBRANCH   7  19
BRANCH   9  21
ATOM     21  O   UNL     1      16.209  11.452  31.768  0.00  0.00    -0.390 OA
ATOM     22  H   UNL     1      16.586  11.491  30.885  0.00  0.00    +0.210 HD
ENDBRANCH   9  21
ENDBRANCH   4   5
BRANCH   4  23
ATOM     23  O   UNL     1      20.711   8.436  31.469  0.00  0.00    -0.387 OA
ATOM     24  H   UNL     1      20.748   8.882  30.620  0.00  0.00    +0.210 HD
ENDBRANCH   4  23
ENDBRANCH   1   4
BRANCH   1  25
ATOM     25  C   UNL     1      20.136   7.415  29.162  0.00  0.00    +0.141 C 
BRANCH  25  28
ATOM     26  C   UNL     1      20.671   5.995  27.212  0.00  0.00    +0.401 C 
ATOM     27  O   UNL     1      21.820   5.749  27.587  0.00  0.00    -0.226 OA
ATOM     28  N   UNL     1      19.817   6.769  27.883  0.00  0.00    -0.279 N 
ATOM     29  H   UNL     1      18.899   6.920  27.489  0.00  0.00    +0.152 HD
BRANCH  26  30
ATOM     30  O   UNL     1      20.206   5.430  25.983  0.00  0.00    -0.444 OA
BRANCH  30  31
ATOM     31  C   UNL     1      19.637   6.459  25.169  0.00  0.00    +0.292 C 
BRANCH  31  33
ATOM     32  N   UNL     1      17.797   6.650  23.523  0.00  0.00    -0.131 NA
ATOM     33  C   UNL     1      18.736   5.878  24.157  0.00  0.00    +0.120 A 
ATOM     34  C   UNL     1      18.639   4.584  23.697  0.00  0.00    +0.137 A 
ATOM     35  N   UNL     1      17.575   4.619  22.844  0.00  0.00    -0.247 N 
ATOM     36  N   UNL     1      17.104   5.872  22.703  0.00  0.00    -0.065 NA
BRANCH  35  37
ATOM     37  C   UNL     1      16.912   3.502  22.189  0.00  0.00    +0.184 C 
BRANCH  37  38
ATOM     38  C   UNL     1      17.125   2.181  22.901  0.00  0.00    +0.017 A 
ATOM     39  C   UNL     1      16.604   1.921  24.183  0.00  0.00    +0.024 A 
ATOM     40  C   UNL     1      16.821   0.690  24.810  0.00  0.00    +0.019 A 
ATOM     41 BR   UNL     1      16.147   0.397  26.552  0.00  0.00    -0.050 Br
ATOM     42  C   UNL     1      17.529  -0.321  24.168  0.00  0.00    +0.034 A 
ATOM     43  C   UNL     1      18.010  -0.095  22.881  0.00  0.00    +0.061 A 
ATOM     44 BR   UNL     1      18.943  -1.489  21.997  0.00  0.00    -0.046 Br
ATOM     45  C   UNL     1      17.806   1.141  22.253  0.00  0.00    +0.136 A 
BRANCH  45  46
ATOM     46  O   UNL     1      18.262   1.367  20.980  0.00  0.00    -0.505 OA
ATOM     47  H   UNL     1      17.605   0.995  20.362  0.00  0.00    +0.292 HD
ENDBRANCH  45  46
ENDBRANCH  37  38
ENDBRANCH  35  37
ENDBRANCH  31  33
ENDBRANCH  30  31
ENDBRANCH  26  30
ENDBRANCH  25  28
ENDBRANCH   1  25
TORSDOF 16
