REMARK VINA RESULT:    -6.384      4.268      5.481
REMARK INTER + INTRA:         -13.751
REMARK INTER:                 -11.564
REMARK INTRA:                  -2.186
REMARK UNBOUND:                -1.955
REMARK  Name = lig_assembled_78.pdb
REMARK  18 active torsions:
REMARK  status: ('A' for Active; 'I' for Inactive)
REMARK    1  A    between atoms: _2  and  _9
REMARK    2  A    between atoms: _4  and  _21
REMARK    3  A    between atoms: _6  and  _7
REMARK    4  A    between atoms: _6  and  _21
REMARK    5  A    between atoms: _9  and  _41
REMARK    6  A    between atoms: _10  and  _41
REMARK    7  A    between atoms: _17  and  _37
REMARK    8  A    between atoms: _19  and  _25
REMARK    9  A    between atoms: _20  and  _24
REMARK   10  A    between atoms: _24  and  _25
REMARK   11  A    between atoms: _27  and  _28
REMARK   12  A    between atoms: _29  and  _30
REMARK   13  A    between atoms: _31  and  _33
REMARK   14  A    between atoms: _33  and  _34
REMARK   15  A    between atoms: _33  and  _35
REMARK   16  A    between atoms: _35  and  _36
REMARK   17  A    between atoms: _35  and  _37
REMARK   18  A    between atoms: _38  and  _40
REMARK                            x       y       z     vdW  Elec       q    Type
REMARK                         _______ _______ _______ _____ _____    ______ ____
ROOT
ATOM      1  C   UNL     1       7.542   2.524  34.471  0.00  0.00    +0.163 C 
ENDROOT
BRANCH   1   2
ATOM      2  O   UNL     1       8.232   2.417  35.727  0.00  0.00    -0.388 OA
ATOM      3  H   UNL     1       7.660   1.994  36.372  0.00  0.00    +0.210 HD
ENDBRANCH   1   2
BRANCH   1   4
ATOM      4  C   UNL     1       7.824   3.880  33.801  0.00  0.00    +0.175 C 
BRANCH   4   5
ATOM      5  C   UNL     1       7.213   5.050  34.586  0.00  0.00    +0.176 C 
ATOM      6  O   UNL     1       7.971   5.207  35.817  0.00  0.00    -0.332 OA
ATOM      7  C   UNL     1       7.594   6.352  36.651  0.00  0.00    +0.277 C 
ATOM      8  C   UNL     1       6.080   6.315  36.970  0.00  0.00    +0.110 C 
ATOM      9  C   UNL     1       5.234   6.117  35.695  0.00  0.00    +0.143 C 
ATOM     10  C   UNL     1       5.713   4.901  34.901  0.00  0.00    +0.133 C 
BRANCH  10  11
ATOM     11  N   UNL     1       4.957   4.774  33.646  0.00  0.00    -0.308 N 
ATOM     12  H   UNL     1       5.128   5.457  32.921  0.00  0.00    +0.149 HD
ATOM     13  C   UNL     1       4.059   3.815  33.401  0.00  0.00    +0.210 C 
ATOM     14  C   UNL     1       3.803   2.805  34.535  0.00  0.00    +0.109 C 
ATOM     15  O   UNL     1       3.452   3.725  32.334  0.00  0.00    -0.276 OA
ENDBRANCH  10  11
BRANCH   7  16
ATOM     16  C   UNL     1       7.940   7.680  35.946  0.00  0.00    +0.414 C 
ATOM     17  O   UNL     1       8.256   8.669  36.606  0.00  0.00    -0.240 OA
ATOM     18  O   UNL     1       7.903   7.762  34.717  0.00  0.00    -0.240 OA
ENDBRANCH   7  16
BRANCH   7  19
ATOM     19  O   UNL     1       8.327   6.258  37.900  0.00  0.00    -0.343 OA
ATOM     20  C   UNL     1       9.401   5.284  37.907  0.00  0.00    +0.198 C 
ENDBRANCH   7  19
BRANCH   9  21
ATOM     21  O   UNL     1       3.862   5.937  36.049  0.00  0.00    -0.390 OA
ATOM     22  H   UNL     1       3.327   5.906  35.253  0.00  0.00    +0.210 HD
ENDBRANCH   9  21
ENDBRANCH   4   5
BRANCH   4  23
ATOM     23  O   UNL     1       7.330   3.877  32.447  0.00  0.00    -0.387 OA
ATOM     24  H   UNL     1       6.397   4.105  32.446  0.00  0.00    +0.210 HD
ENDBRANCH   4  23
ENDBRANCH   1   4
BRANCH   1  25
ATOM     25  C   UNL     1       7.975   1.396  33.540  0.00  0.00    +0.141 C 
BRANCH  25  28
ATOM     26  C   UNL     1       5.940   0.502  32.459  0.00  0.00    +0.401 C 
ATOM     27  O   UNL     1       5.818   1.455  31.687  0.00  0.00    -0.226 OA
ATOM     28  N   UNL     1       6.915   0.395  33.363  0.00  0.00    -0.279 N 
ATOM     29  H   UNL     1       6.926  -0.421  33.959  0.00  0.00    +0.152 HD
BRANCH  26  30
ATOM     30  O   UNL     1       4.988  -0.563  32.405  0.00  0.00    -0.444 OA
BRANCH  30  31
ATOM     31  C   UNL     1       3.730  -0.056  31.951  0.00  0.00    +0.292 C 
BRANCH  31  33
ATOM     32  N   UNL     1       1.963  -0.773  30.368  0.00  0.00    -0.131 NA
ATOM     33  C   UNL     1       3.274  -0.803  30.764  0.00  0.00    +0.120 A 
ATOM     34  C   UNL     1       3.988  -1.598  29.895  0.00  0.00    +0.139 A 
ATOM     35  N   UNL     1       3.068  -1.972  28.961  0.00  0.00    -0.230 N 
ATOM     36  N   UNL     1       1.843  -1.513  29.273  0.00  0.00    -0.064 NA
BRANCH  35  37
ATOM     37  C   UNL     1       3.248  -2.817  27.806  0.00  0.00    +0.316 C 
BRANCH  37  38
ATOM     38  S   UNL     1       3.542  -1.915  26.307  0.00  0.00    +0.017 S 
ATOM     39  O   UNL     1       2.890  -2.579  25.196  0.00  0.00    -0.168 OA
ATOM     40  O   UNL     1       3.306  -0.508  26.578  0.00  0.00    -0.168 OA
BRANCH  38  41
ATOM     41  C   UNL     1       5.290  -2.102  26.025  0.00  0.00    +0.090 A 
ATOM     42  C   UNL     1       5.789  -1.985  24.723  0.00  0.00    +0.027 A 
ATOM     43  C   UNL     1       7.160  -2.104  24.502  0.00  0.00    +0.002 A 
ATOM     44  C   UNL     1       8.026  -2.320  25.575  0.00  0.00    +0.000 A 
ATOM     45  C   UNL     1       7.525  -2.416  26.874  0.00  0.00    +0.002 A 
ATOM     46  C   UNL     1       6.153  -2.307  27.105  0.00  0.00    +0.027 A 
ENDBRANCH  38  41
ENDBRANCH  37  38
ENDBRANCH  35  37
ENDBRANCH  31  33
ENDBRANCH  30  31
ENDBRANCH  26  30
ENDBRANCH  25  28
ENDBRANCH   1  25
TORSDOF 16
