REMARK VINA RESULT:    -5.708     15.248     18.201
REMARK INTER + INTRA:         -12.370
REMARK INTER:                 -11.073
REMARK INTRA:                  -1.298
REMARK UNBOUND:                -2.491
REMARK  Name = lig_assembled_57.pdb
REMARK  17 active torsions:
REMARK  status: ('A' for Active; 'I' for Inactive)
REMARK    1  A    between atoms: _2  and  _10
REMARK    2  A    between atoms: _3  and  _13
REMARK    3  A    between atoms: _5  and  _19
REMARK    4  A    between atoms: _7  and  _8
REMARK    5  A    between atoms: _7  and  _19
REMARK    6  A    between atoms: _15  and  _35
REMARK    7  A    between atoms: _17  and  _23
REMARK    8  A    between atoms: _18  and  _22
REMARK    9  A    between atoms: _22  and  _23
REMARK   10  A    between atoms: _25  and  _26
REMARK   11  A    between atoms: _27  and  _28
REMARK   12  A    between atoms: _29  and  _31
REMARK   13  A    between atoms: _31  and  _32
REMARK   14  A    between atoms: _31  and  _33
REMARK   15  A    between atoms: _33  and  _34
REMARK   16  A    between atoms: _33  and  _35
REMARK   17  A    between atoms: _36  and  _38
REMARK                            x       y       z     vdW  Elec       q    Type
REMARK                         _______ _______ _______ _____ _____    ______ ____
ROOT
ATOM      1  C   UNL     1      18.606   2.378  24.768  0.00  0.00    +0.163 C 
ENDROOT
BRANCH   1   2
ATOM      2  O   UNL     1      18.906   2.696  26.137  0.00  0.00    -0.388 OA
ATOM      3  H   UNL     1      19.661   3.288  26.171  0.00  0.00    +0.210 HD
ENDBRANCH   1   2
BRANCH   1   4
ATOM      4  C   UNL     1      18.780   3.616  23.895  0.00  0.00    +0.141 C 
BRANCH   4   7
ATOM      5  C   UNL     1      18.289   6.025  24.143  0.00  0.00    +0.401 C 
ATOM      6  O   UNL     1      18.030   6.191  22.949  0.00  0.00    -0.226 OA
ATOM      7  N   UNL     1      18.655   4.856  24.671  0.00  0.00    -0.279 N 
ATOM      8  H   UNL     1      18.857   4.821  25.660  0.00  0.00    +0.152 HD
BRANCH   5   9
ATOM      9  O   UNL     1      18.204   7.140  25.034  0.00  0.00    -0.444 OA
BRANCH   9  10
ATOM     10  C   UNL     1      19.469   7.340  25.671  0.00  0.00    +0.292 C 
BRANCH  10  12
ATOM     11  N   UNL     1      18.963   6.237  27.822  0.00  0.00    -0.131 NA
ATOM     12  C   UNL     1      19.298   7.369  27.135  0.00  0.00    +0.120 A 
ATOM     13  C   UNL     1      19.447   8.409  28.027  0.00  0.00    +0.137 A 
ATOM     14  N   UNL     1      19.279   7.828  29.248  0.00  0.00    -0.248 N 
ATOM     15  N   UNL     1      18.915   6.536  29.109  0.00  0.00    -0.065 NA
BRANCH  14  16
ATOM     16  C   UNL     1      19.486   8.350  30.595  0.00  0.00    +0.111 C 
ATOM     17  C   UNL     1      19.346   9.880  30.613  0.00  0.00    +0.042 C 
ATOM     18  C   UNL     1      17.878  10.285  30.494  0.00  0.00    +0.086 C 
ATOM     19  N   UNL     1      17.046   9.738  31.572  0.00  0.00    -0.305 NA
ATOM     20  C   UNL     1      17.163   8.285  31.690  0.00  0.00    +0.086 C 
ATOM     21  C   UNL     1      17.257  10.430  32.840  0.00  0.00    +0.104 C 
ATOM     22  C   UNL     1      18.602   7.749  31.700  0.00  0.00    +0.042 C 
ENDBRANCH  14  16
ENDBRANCH  10  12
ENDBRANCH   9  10
ENDBRANCH   5   9
ENDBRANCH   4   7
ENDBRANCH   1   4
BRANCH   1  23
ATOM     23  C   UNL     1      17.168   1.849  24.629  0.00  0.00    +0.175 C 
BRANCH  23  24
ATOM     24  C   UNL     1      17.133   0.351  24.295  0.00  0.00    +0.176 C 
ATOM     25  O   UNL     1      17.431  -0.386  25.513  0.00  0.00    -0.332 OA
ATOM     26  C   UNL     1      17.338  -1.845  25.410  0.00  0.00    +0.277 C 
ATOM     27  C   UNL     1      18.228  -2.364  24.254  0.00  0.00    +0.110 C 
ATOM     28  C   UNL     1      17.969  -1.589  22.945  0.00  0.00    +0.143 C 
ATOM     29  C   UNL     1      18.088  -0.081  23.167  0.00  0.00    +0.133 C 
BRANCH  29  30
ATOM     30  N   UNL     1      17.755   0.650  21.934  0.00  0.00    -0.308 N 
ATOM     31  H   UNL     1      16.781   0.709  21.670  0.00  0.00    +0.149 HD
ATOM     32  C   UNL     1      18.654   1.240  21.142  0.00  0.00    +0.210 C 
ATOM     33  C   UNL     1      20.131   1.109  21.559  0.00  0.00    +0.109 C 
ATOM     34  O   UNL     1      18.344   1.857  20.123  0.00  0.00    -0.276 OA
ENDBRANCH  29  30
BRANCH  26  35
ATOM     35  C   UNL     1      15.878  -2.285  25.175  0.00  0.00    +0.414 C 
ATOM     36  O   UNL     1      15.287  -2.952  26.023  0.00  0.00    -0.240 OA
ATOM     37  O   UNL     1      15.292  -1.973  24.137  0.00  0.00    -0.240 OA
ENDBRANCH  26  35
BRANCH  28  38
ATOM     38  O   UNL     1      18.912  -1.994  21.951  0.00  0.00    -0.390 OA
ATOM     39  H   UNL     1      19.802  -1.908  22.300  0.00  0.00    +0.210 HD
ENDBRANCH  28  38
BRANCH  26  40
ATOM     40  O   UNL     1      17.825  -2.414  26.653  0.00  0.00    -0.343 OA
ATOM     41  C   UNL     1      19.240  -2.219  26.903  0.00  0.00    +0.198 C 
ENDBRANCH  26  40
ENDBRANCH  23  24
BRANCH  23  42
ATOM     42  O   UNL     1      16.458   2.599  23.623  0.00  0.00    -0.387 OA
ATOM     43  H   UNL     1      15.768   3.120  24.039  0.00  0.00    +0.210 HD
ENDBRANCH  23  42
ENDBRANCH   1  23
TORSDOF 14
