REMARK VINA RESULT:    -6.413      2.177      4.176
REMARK INTER + INTRA:         -14.135
REMARK INTER:                 -11.025
REMARK INTRA:                  -3.110
REMARK UNBOUND:                -1.911
REMARK  Name = lig_assembled_26.pdb
REMARK  20 active torsions:
REMARK  status: ('A' for Active; 'I' for Inactive)
REMARK    1  A    between atoms: _2  and  _9
REMARK    2  A    between atoms: _4  and  _23
REMARK    3  A    between atoms: _6  and  _7
REMARK    4  A    between atoms: _6  and  _23
REMARK    5  A    between atoms: _9  and  _10
REMARK    6  A    between atoms: _9  and  _11
REMARK    7  A    between atoms: _11  and  _12
REMARK    8  A    between atoms: _12  and  _13
REMARK    9  A    between atoms: _19  and  _39
REMARK   10  A    between atoms: _21  and  _27
REMARK   11  A    between atoms: _22  and  _26
REMARK   12  A    between atoms: _26  and  _27
REMARK   13  A    between atoms: _29  and  _30
REMARK   14  A    between atoms: _31  and  _32
REMARK   15  A    between atoms: _33  and  _35
REMARK   16  A    between atoms: _35  and  _36
REMARK   17  A    between atoms: _35  and  _37
REMARK   18  A    between atoms: _37  and  _38
REMARK   19  A    between atoms: _37  and  _39
REMARK   20  A    between atoms: _40  and  _42
REMARK                            x       y       z     vdW  Elec       q    Type
REMARK                         _______ _______ _______ _____ _____    ______ ____
ROOT
ATOM      1  C   UNL     1       3.319   1.121  32.122  0.00  0.00    +0.163 C 
ENDROOT
BRANCH   1   2
ATOM      2  O   UNL     1       2.599   1.172  30.879  0.00  0.00    -0.388 OA
ATOM      3  H   UNL     1       1.908   1.836  30.936  0.00  0.00    +0.210 HD
ENDBRANCH   1   2
BRANCH   1   4
ATOM      4  C   UNL     1       4.460   2.152  32.139  0.00  0.00    +0.175 C 
BRANCH   4   5
ATOM      5  C   UNL     1       4.740   2.681  33.553  0.00  0.00    +0.176 C 
ATOM      6  O   UNL     1       4.677   4.133  33.508  0.00  0.00    -0.332 OA
ATOM      7  C   UNL     1       4.816   4.814  34.799  0.00  0.00    +0.277 C 
ATOM      8  C   UNL     1       6.119   4.369  35.508  0.00  0.00    +0.110 C 
ATOM      9  C   UNL     1       6.246   2.831  35.552  0.00  0.00    +0.143 C 
ATOM     10  C   UNL     1       6.082   2.227  34.157  0.00  0.00    +0.133 C 
BRANCH  10  11
ATOM     11  N   UNL     1       6.119   0.758  34.224  0.00  0.00    -0.308 N 
ATOM     12  H   UNL     1       5.382   0.290  34.733  0.00  0.00    +0.149 HD
ATOM     13  C   UNL     1       7.062   0.001  33.657  0.00  0.00    +0.210 C 
ATOM     14  C   UNL     1       8.186   0.745  32.911  0.00  0.00    +0.109 C 
ATOM     15  O   UNL     1       7.059  -1.229  33.718  0.00  0.00    -0.276 OA
ENDBRANCH  10  11
BRANCH   7  16
ATOM     16  C   UNL     1       3.606   4.515  35.708  0.00  0.00    +0.414 C 
ATOM     17  O   UNL     1       2.493   4.331  35.218  0.00  0.00    -0.240 OA
ATOM     18  O   UNL     1       3.743   4.459  36.931  0.00  0.00    -0.240 OA
ENDBRANCH   7  16
BRANCH   7  19
ATOM     19  O   UNL     1       4.898   6.241  34.548  0.00  0.00    -0.343 OA
ATOM     20  C   UNL     1       6.145   6.863  34.946  0.00  0.00    +0.198 C 
ENDBRANCH   7  19
BRANCH   9  21
ATOM     21  O   UNL     1       7.525   2.469  36.075  0.00  0.00    -0.390 OA
ATOM     22  H   UNL     1       8.205   3.002  35.657  0.00  0.00    +0.210 HD
ENDBRANCH   9  21
ENDBRANCH   4   5
BRANCH   4  23
ATOM     23  O   UNL     1       4.155   3.246  31.251  0.00  0.00    -0.387 OA
ATOM     24  H   UNL     1       4.337   4.078  31.694  0.00  0.00    +0.210 HD
ENDBRANCH   4  23
ENDBRANCH   1   4
BRANCH   1  25
ATOM     25  C   UNL     1       2.371   1.391  33.285  0.00  0.00    +0.141 C 
BRANCH  25  28
ATOM     26  C   UNL     1      -0.027   1.879  32.940  0.00  0.00    +0.401 C 
ATOM     27  O   UNL     1      -0.403   0.764  33.310  0.00  0.00    -0.226 OA
ATOM     28  N   UNL     1       1.252   2.255  32.890  0.00  0.00    -0.279 N 
ATOM     29  H   UNL     1       1.462   3.188  32.563  0.00  0.00    +0.152 HD
BRANCH  26  30
ATOM     30  O   UNL     1      -1.002   2.840  32.529  0.00  0.00    -0.444 OA
BRANCH  30  31
ATOM     31  C   UNL     1      -0.344   4.035  32.100  0.00  0.00    +0.292 C 
BRANCH  31  33
ATOM     32  N   UNL     1       1.531   3.908  30.480  0.00  0.00    -0.131 NA
ATOM     33  C   UNL     1       0.187   3.869  30.736  0.00  0.00    +0.120 A 
ATOM     34  C   UNL     1      -0.489   3.653  29.557  0.00  0.00    +0.137 A 
ATOM     35  N   UNL     1       0.491   3.598  28.613  0.00  0.00    -0.248 N 
ATOM     36  N   UNL     1       1.710   3.724  29.178  0.00  0.00    -0.065 NA
BRANCH  35  37
ATOM     37  C   UNL     1       0.386   3.358  27.182  0.00  0.00    +0.113 C 
ATOM     38  C   UNL     1      -0.774   4.096  26.499  0.00  0.00    +0.033 C 
BRANCH  37  39
ATOM     39  C   UNL     1       1.718   3.581  26.443  0.00  0.00    +0.106 C 
BRANCH  39  40
ATOM     40  C   UNL     1       1.896   2.710  25.214  0.00  0.00    +0.165 C 
ATOM     41  O   UNL     1       2.135   1.506  25.290  0.00  0.00    -0.292 OA
BRANCH  40  42
ATOM     42  C   UNL     1       1.819   3.345  23.863  0.00  0.00    +0.017 A 
ATOM     43  C   UNL     1       1.755   4.733  23.688  0.00  0.00    +0.011 A 
ATOM     44  C   UNL     1       1.726   5.274  22.400  0.00  0.00    +0.001 A 
ATOM     45  C   UNL     1       1.755   4.437  21.286  0.00  0.00    +0.000 A 
ATOM     46  C   UNL     1       1.807   3.056  21.452  0.00  0.00    +0.001 A 
ATOM     47  C   UNL     1       1.840   2.511  22.736  0.00  0.00    +0.011 A 
ENDBRANCH  40  42
ENDBRANCH  39  40
ENDBRANCH  37  39
ENDBRANCH  35  37
ENDBRANCH  31  33
ENDBRANCH  30  31
ENDBRANCH  26  30
ENDBRANCH  25  28
ENDBRANCH   1  25
TORSDOF 17
