REMARK VINA RESULT:    -7.321      2.013      4.034
REMARK INTER + INTRA:         -14.663
REMARK INTER:                 -11.583
REMARK INTRA:                  -3.080
REMARK UNBOUND:                -1.992
REMARK  Name = lig_assembled_25.pdb
REMARK  16 active torsions:
REMARK  status: ('A' for Active; 'I' for Inactive)
REMARK    1  A    between atoms: _2  and  _9
REMARK    2  A    between atoms: _4  and  _25
REMARK    3  A    between atoms: _6  and  _7
REMARK    4  A    between atoms: _6  and  _25
REMARK    5  A    between atoms: _21  and  _41
REMARK    6  A    between atoms: _23  and  _29
REMARK    7  A    between atoms: _24  and  _28
REMARK    8  A    between atoms: _28  and  _29
REMARK    9  A    between atoms: _31  and  _32
REMARK   10  A    between atoms: _33  and  _34
REMARK   11  A    between atoms: _35  and  _37
REMARK   12  A    between atoms: _37  and  _38
REMARK   13  A    between atoms: _37  and  _39
REMARK   14  A    between atoms: _39  and  _40
REMARK   15  A    between atoms: _39  and  _41
REMARK   16  A    between atoms: _42  and  _44
REMARK                            x       y       z     vdW  Elec       q    Type
REMARK                         _______ _______ _______ _____ _____    ______ ____
ROOT
ATOM      1  C   UNL     1      -1.490   3.424  31.950  0.00  0.00    +0.141 C 
ENDROOT
BRANCH   1   4
ATOM      2  C   UNL     1      -2.474   4.470  29.940  0.00  0.00    +0.401 C 
ATOM      3  O   UNL     1      -3.139   5.290  30.577  0.00  0.00    -0.226 OA
ATOM      4  N   UNL     1      -1.680   3.557  30.501  0.00  0.00    -0.279 N 
ATOM      5  H   UNL     1      -1.182   2.921  29.894  0.00  0.00    +0.152 HD
BRANCH   2   6
ATOM      6  O   UNL     1      -2.545   4.478  28.512  0.00  0.00    -0.444 OA
BRANCH   6   7
ATOM      7  C   UNL     1      -2.183   3.189  28.009  0.00  0.00    +0.292 C 
BRANCH   7   9
ATOM      8  N   UNL     1       0.128   4.061  27.984  0.00  0.00    -0.131 NA
ATOM      9  C   UNL     1      -0.813   3.216  27.461  0.00  0.00    +0.120 A 
ATOM     10  C   UNL     1      -0.254   2.507  26.421  0.00  0.00    +0.138 A 
ATOM     11  N   UNL     1       1.027   2.977  26.346  0.00  0.00    -0.240 N 
ATOM     12  N   UNL     1       1.252   3.906  27.300  0.00  0.00    -0.064 NA
BRANCH  11  13
ATOM     13  C   UNL     1       2.074   2.684  25.380  0.00  0.00    +0.170 C 
ATOM     14  C   UNL     1       1.900   3.460  24.081  0.00  0.00    -0.011 A 
ATOM     15  C   UNL     1       1.858   2.566  22.988  0.00  0.00    -0.012 A 
ATOM     16  C   UNL     1       1.977   1.210  23.485  0.00  0.00    -0.012 A 
ATOM     17  C   UNL     1       2.023   0.006  22.801  0.00  0.00    +0.009 A 
ATOM     18  C   UNL     1       2.176  -1.172  23.538  0.00  0.00    +0.001 A 
ATOM     19  C   UNL     1       2.275  -1.137  24.939  0.00  0.00    +0.000 A 
ATOM     20  C   UNL     1       2.227   0.075  25.631  0.00  0.00    +0.006 A 
ATOM     21  C   UNL     1       1.728   3.044  21.696  0.00  0.00    +0.009 A 
ATOM     22  C   UNL     1       1.641   4.427  21.503  0.00  0.00    +0.001 A 
ATOM     23  C   UNL     1       1.687   5.311  22.592  0.00  0.00    +0.000 A 
ATOM     24  C   UNL     1       1.821   4.833  23.896  0.00  0.00    +0.006 A 
ATOM     25  C   UNL     1       2.076   1.241  24.895  0.00  0.00    -0.011 A 
ENDBRANCH  11  13
ENDBRANCH   7   9
ENDBRANCH   6   7
ENDBRANCH   2   6
ENDBRANCH   1   4
BRANCH   1  26
ATOM     26  C   UNL     1      -0.167   4.028  32.408  0.00  0.00    +0.163 C 
BRANCH  26  27
ATOM     27  O   UNL     1       0.037   3.763  33.806  0.00  0.00    -0.388 OA
ATOM     28  H   UNL     1      -0.729   3.306  34.161  0.00  0.00    +0.210 HD
ENDBRANCH  26  27
BRANCH  26  29
ATOM     29  C   UNL     1       0.982   3.447  31.565  0.00  0.00    +0.175 C 
BRANCH  29  30
ATOM     30  C   UNL     1       2.184   3.039  32.429  0.00  0.00    +0.176 C 
ATOM     31  O   UNL     1       2.953   4.239  32.720  0.00  0.00    -0.332 OA
ATOM     32  C   UNL     1       4.089   4.058  33.629  0.00  0.00    +0.277 C 
ATOM     33  C   UNL     1       5.031   2.947  33.104  0.00  0.00    +0.110 C 
ATOM     34  C   UNL     1       4.254   1.662  32.751  0.00  0.00    +0.143 C 
ATOM     35  C   UNL     1       3.093   1.965  31.803  0.00  0.00    +0.133 C 
BRANCH  35  36
ATOM     36  N   UNL     1       2.308   0.748  31.543  0.00  0.00    -0.308 N 
ATOM     37  H   UNL     1       1.987   0.215  32.339  0.00  0.00    +0.149 HD
ATOM     38  C   UNL     1       1.993   0.302  30.324  0.00  0.00    +0.210 C 
ATOM     39  C   UNL     1       2.520   1.123  29.132  0.00  0.00    +0.109 C 
ATOM     40  O   UNL     1       1.322  -0.713  30.137  0.00  0.00    -0.276 OA
ENDBRANCH  35  36
BRANCH  32  41
ATOM     41  C   UNL     1       3.603   3.694  35.047  0.00  0.00    +0.414 C 
ATOM     42  O   UNL     1       4.156   2.796  35.681  0.00  0.00    -0.240 OA
ATOM     43  O   UNL     1       2.658   4.297  35.557  0.00  0.00    -0.240 OA
ENDBRANCH  32  41
BRANCH  34  44
ATOM     44  O   UNL     1       5.133   0.722  32.132  0.00  0.00    -0.390 OA
ATOM     45  H   UNL     1       6.041   0.929  32.367  0.00  0.00    +0.210 HD
ENDBRANCH  34  44
BRANCH  32  46
ATOM     46  O   UNL     1       4.831   5.304  33.673  0.00  0.00    -0.343 OA
ATOM     47  C   UNL     1       6.073   5.252  34.419  0.00  0.00    +0.198 C 
ENDBRANCH  32  46
ENDBRANCH  29  30
BRANCH  29  48
ATOM     48  O   UNL     1       1.391   4.398  30.562  0.00  0.00    -0.387 OA
ATOM     49  H   UNL     1       1.229   5.290  30.880  0.00  0.00    +0.210 HD
ENDBRANCH  29  48
ENDBRANCH  26  29
ENDBRANCH   1  26
TORSDOF 14
