REMARK VINA RESULT:    -6.546      1.411      2.025
REMARK INTER + INTRA:         -13.958
REMARK INTER:                 -12.501
REMARK INTRA:                  -1.457
REMARK UNBOUND:                -2.246
REMARK  Name = lig_assembled_5.pdb
REMARK  18 active torsions:
REMARK  status: ('A' for Active; 'I' for Inactive)
REMARK    1  A    between atoms: _2  and  _9
REMARK    2  A    between atoms: _4  and  _20
REMARK    3  A    between atoms: _6  and  _7
REMARK    4  A    between atoms: _6  and  _20
REMARK    5  A    between atoms: _12  and  _15
REMARK    6  A    between atoms: _13  and  _15
REMARK    7  A    between atoms: _16  and  _36
REMARK    8  A    between atoms: _18  and  _24
REMARK    9  A    between atoms: _19  and  _23
REMARK   10  A    between atoms: _23  and  _24
REMARK   11  A    between atoms: _26  and  _27
REMARK   12  A    between atoms: _28  and  _29
REMARK   13  A    between atoms: _30  and  _32
REMARK   14  A    between atoms: _32  and  _33
REMARK   15  A    between atoms: _32  and  _34
REMARK   16  A    between atoms: _34  and  _35
REMARK   17  A    between atoms: _34  and  _36
REMARK   18  A    between atoms: _37  and  _39
REMARK                            x       y       z     vdW  Elec       q    Type
REMARK                         _______ _______ _______ _____ _____    ______ ____
ROOT
ATOM      1  C   UNL     1       5.766   1.964  32.845  0.00  0.00    +0.163 C 
ENDROOT
BRANCH   1   2
ATOM      2  O   UNL     1       5.842   1.145  31.667  0.00  0.00    -0.388 OA
ATOM      3  H   UNL     1       5.511   0.266  31.866  0.00  0.00    +0.210 HD
ENDBRANCH   1   2
BRANCH   1   4
ATOM      4  C   UNL     1       4.565   2.900  32.754  0.00  0.00    +0.141 C 
BRANCH   4   7
ATOM      5  C   UNL     1       2.918   2.526  30.950  0.00  0.00    +0.401 C 
ATOM      6  O   UNL     1       2.141   1.888  31.664  0.00  0.00    -0.226 OA
ATOM      7  N   UNL     1       4.077   3.031  31.375  0.00  0.00    -0.279 N 
ATOM      8  H   UNL     1       4.651   3.531  30.711  0.00  0.00    +0.152 HD
BRANCH   5   9
ATOM      9  O   UNL     1       2.579   2.746  29.579  0.00  0.00    -0.444 OA
BRANCH   9  10
ATOM     10  C   UNL     1       1.228   3.207  29.489  0.00  0.00    +0.292 C 
BRANCH  10  12
ATOM     11  N   UNL     1      -0.221   4.272  27.789  0.00  0.00    -0.131 NA
ATOM     12  C   UNL     1       0.896   3.550  28.092  0.00  0.00    +0.121 A 
ATOM     13  C   UNL     1       1.570   3.255  26.931  0.00  0.00    +0.143 A 
ATOM     14  N   UNL     1       0.834   3.848  25.930  0.00  0.00    -0.220 N 
ATOM     15  N   UNL     1      -0.257   4.443  26.474  0.00  0.00    -0.060 NA
BRANCH  14  16
ATOM     16  C   UNL     1       1.110   3.908  24.539  0.00  0.00    +0.067 A 
ATOM     17  C   UNL     1       1.223   2.737  23.780  0.00  0.00    +0.031 A 
ATOM     18  C   UNL     1       1.556   2.815  22.426  0.00  0.00    +0.048 A 
ATOM     19  C   UNL     1       1.757   4.050  21.807  0.00  0.00    +0.120 A 
ATOM     20  C   UNL     1       1.628   5.218  22.556  0.00  0.00    +0.048 A 
ATOM     21  C   UNL     1       1.306   5.150  23.919  0.00  0.00    +0.031 A 
BRANCH  19  22
ATOM     22  O   UNL     1       2.138   3.981  20.496  0.00  0.00    -0.495 OA
ATOM     23  C   UNL     1       2.061   2.700  19.884  0.00  0.00    +0.277 C 
ENDBRANCH  19  22
ENDBRANCH  14  16
ENDBRANCH  10  12
ENDBRANCH   9  10
ENDBRANCH   5   9
ENDBRANCH   4   7
ENDBRANCH   1   4
BRANCH   1  24
ATOM     24  C   UNL     1       7.051   2.792  33.024  0.00  0.00    +0.175 C 
BRANCH  24  25
ATOM     25  C   UNL     1       7.013   3.649  34.298  0.00  0.00    +0.176 C 
ATOM     26  O   UNL     1       7.244   5.032  33.913  0.00  0.00    -0.332 OA
ATOM     27  C   UNL     1       7.138   6.017  34.994  0.00  0.00    +0.277 C 
ATOM     28  C   UNL     1       8.076   5.637  36.166  0.00  0.00    +0.110 C 
ATOM     29  C   UNL     1       7.889   4.165  36.589  0.00  0.00    +0.143 C 
ATOM     30  C   UNL     1       8.016   3.228  35.388  0.00  0.00    +0.133 C 
BRANCH  30  31
ATOM     31  N   UNL     1       7.751   1.837  35.788  0.00  0.00    -0.308 N 
ATOM     32  H   UNL     1       6.837   1.620  36.160  0.00  0.00    +0.149 HD
ATOM     33  C   UNL     1       8.638   0.844  35.693  0.00  0.00    +0.210 C 
ATOM     34  C   UNL     1      10.030   1.213  35.147  0.00  0.00    +0.109 C 
ATOM     35  O   UNL     1       8.383  -0.315  36.023  0.00  0.00    -0.276 OA
ENDBRANCH  30  31
BRANCH  27  36
ATOM     36  C   UNL     1       5.686   6.114  35.506  0.00  0.00    +0.414 C 
ATOM     37  O   UNL     1       4.744   5.953  34.731  0.00  0.00    -0.240 OA
ATOM     38  O   UNL     1       5.457   6.353  36.692  0.00  0.00    -0.240 OA
ENDBRANCH  27  36
BRANCH  27  39
ATOM     39  O   UNL     1       7.559   7.304  34.471  0.00  0.00    -0.343 OA
ATOM     40  C   UNL     1       8.184   8.184  35.440  0.00  0.00    +0.198 C 
ENDBRANCH  27  39
BRANCH  29  41
ATOM     41  O   UNL     1       8.873   3.816  37.564  0.00  0.00    -0.390 OA
ATOM     42  H   UNL     1       9.021   2.867  37.546  0.00  0.00    +0.210 HD
ENDBRANCH  29  41
ENDBRANCH  24  25
BRANCH  24  43
ATOM     43  O   UNL     1       7.268   3.628  31.869  0.00  0.00    -0.387 OA
ATOM     44  H   UNL     1       7.741   4.420  32.132  0.00  0.00    +0.210 HD
ENDBRANCH  24  43
ENDBRANCH   1  24
TORSDOF 15
