REMARK VINA RESULT:    -6.272     15.456     17.743
REMARK INTER + INTRA:         -12.702
REMARK INTER:                 -10.414
REMARK INTRA:                  -2.288
REMARK UNBOUND:                -1.847
REMARK  Name = lig_assembled_2.pdb
REMARK  16 active torsions:
REMARK  status: ('A' for Active; 'I' for Inactive)
REMARK    1  A    between atoms: _2  and  _9
REMARK    2  A    between atoms: _4  and  _18
REMARK    3  A    between atoms: _6  and  _7
REMARK    4  A    between atoms: _6  and  _18
REMARK    5  A    between atoms: _14  and  _34
REMARK    6  A    between atoms: _16  and  _22
REMARK    7  A    between atoms: _17  and  _21
REMARK    8  A    between atoms: _21  and  _22
REMARK    9  A    between atoms: _24  and  _25
REMARK   10  A    between atoms: _26  and  _27
REMARK   11  A    between atoms: _28  and  _30
REMARK   12  A    between atoms: _30  and  _31
REMARK   13  A    between atoms: _30  and  _32
REMARK   14  A    between atoms: _32  and  _33
REMARK   15  A    between atoms: _32  and  _34
REMARK   16  A    between atoms: _35  and  _37
REMARK                            x       y       z     vdW  Elec       q    Type
REMARK                         _______ _______ _______ _____ _____    ______ ____
ROOT
ATOM      1  C   UNL     1      18.029  -1.775  22.495  0.00  0.00    +0.163 C 
ENDROOT
BRANCH   1   2
ATOM      2  O   UNL     1      18.828  -2.963  22.616  0.00  0.00    -0.388 OA
ATOM      3  H   UNL     1      18.306  -3.727  22.361  0.00  0.00    +0.210 HD
ENDBRANCH   1   2
BRANCH   1   4
ATOM      4  C   UNL     1      18.737  -0.757  21.607  0.00  0.00    +0.141 C 
BRANCH   4   7
ATOM      5  C   UNL     1      17.694   1.361  20.877  0.00  0.00    +0.401 C 
ATOM      6  O   UNL     1      17.560   1.001  19.705  0.00  0.00    -0.226 OA
ATOM      7  N   UNL     1      18.239   0.606  21.832  0.00  0.00    -0.279 N 
ATOM      8  H   UNL     1      18.313   0.993  22.762  0.00  0.00    +0.152 HD
BRANCH   5   9
ATOM      9  O   UNL     1      17.248   2.665  21.258  0.00  0.00    -0.444 OA
BRANCH   9  10
ATOM     10  C   UNL     1      17.264   2.778  22.683  0.00  0.00    +0.292 C 
BRANCH  10  12
ATOM     11  N   UNL     1      17.173   5.245  22.515  0.00  0.00    -0.131 NA
ATOM     12  C   UNL     1      17.708   4.127  23.084  0.00  0.00    +0.121 A 
ATOM     13  C   UNL     1      18.644   4.503  24.021  0.00  0.00    +0.143 A 
ATOM     14  N   UNL     1      18.626   5.879  24.008  0.00  0.00    -0.220 N 
ATOM     15  N   UNL     1      17.740   6.305  23.076  0.00  0.00    -0.060 NA
BRANCH  14  16
ATOM     16  C   UNL     1      19.355   6.784  24.824  0.00  0.00    +0.067 A 
ATOM     17  C   UNL     1      20.510   7.417  24.344  0.00  0.00    +0.029 A 
ATOM     18  C   UNL     1      21.235   8.277  25.176  0.00  0.00    +0.022 A 
ATOM     19  C   UNL     1      20.809   8.506  26.483  0.00  0.00    +0.041 A 
ATOM     20 CL   UNL     1      21.720   9.546  27.506  0.00  0.00    -0.084 Cl
ATOM     21  C   UNL     1      19.655   7.893  26.965  0.00  0.00    +0.022 A 
ATOM     22  C   UNL     1      18.925   7.034  26.138  0.00  0.00    +0.029 A 
ENDBRANCH  14  16
ENDBRANCH  10  12
ENDBRANCH   9  10
ENDBRANCH   5   9
ENDBRANCH   4   7
ENDBRANCH   1   4
BRANCH   1  23
ATOM     23  C   UNL     1      17.757  -1.152  23.875  0.00  0.00    +0.175 C 
BRANCH  23  24
ATOM     24  C   UNL     1      17.766  -2.203  24.995  0.00  0.00    +0.176 C 
ATOM     25  O   UNL     1      16.713  -3.164  24.715  0.00  0.00    -0.332 OA
ATOM     26  C   UNL     1      16.639  -4.309  25.628  0.00  0.00    +0.277 C 
ATOM     27  C   UNL     1      16.528  -3.824  27.095  0.00  0.00    +0.110 C 
ATOM     28  C   UNL     1      17.609  -2.775  27.431  0.00  0.00    +0.143 C 
ATOM     29  C   UNL     1      17.599  -1.632  26.416  0.00  0.00    +0.133 C 
BRANCH  29  30
ATOM     30  N   UNL     1      18.689  -0.684  26.696  0.00  0.00    -0.308 N 
ATOM     31  H   UNL     1      19.634  -1.041  26.702  0.00  0.00    +0.149 HD
ATOM     32  C   UNL     1      18.511   0.616  26.944  0.00  0.00    +0.210 C 
ATOM     33  C   UNL     1      17.057   1.124  26.954  0.00  0.00    +0.109 C 
ATOM     34  O   UNL     1      19.444   1.390  27.161  0.00  0.00    -0.276 OA
ENDBRANCH  29  30
BRANCH  26  35
ATOM     35  C   UNL     1      17.881  -5.211  25.476  0.00  0.00    +0.414 C 
ATOM     36  O   UNL     1      18.524  -5.209  24.428  0.00  0.00    -0.240 OA
ATOM     37  O   UNL     1      18.240  -5.940  26.402  0.00  0.00    -0.240 OA
ENDBRANCH  26  35
BRANCH  28  38
ATOM     38  O   UNL     1      17.377  -2.246  28.737  0.00  0.00    -0.390 OA
ATOM     39  H   UNL     1      17.394  -2.960  29.380  0.00  0.00    +0.210 HD
ENDBRANCH  28  38
BRANCH  26  40
ATOM     40  O   UNL     1      15.443  -5.065  25.305  0.00  0.00    -0.343 OA
ATOM     41  C   UNL     1      15.173  -5.206  23.887  0.00  0.00    +0.198 C 
ENDBRANCH  26  40
ENDBRANCH  23  24
BRANCH  23  42
ATOM     42  O   UNL     1      16.499  -0.449  23.864  0.00  0.00    -0.387 OA
ATOM     43  H   UNL     1      16.512   0.220  23.175  0.00  0.00    +0.210 HD
ENDBRANCH  23  42
ENDBRANCH   1  23
TORSDOF 14
