REMARK VINA RESULT:    -5.397     15.988     18.372
REMARK INTER + INTRA:         -13.524
REMARK INTER:                 -11.184
REMARK INTRA:                  -2.340
REMARK UNBOUND:                -3.868
REMARK  Name = lig_assembled_85.pdb
REMARK  19 active torsions:
REMARK  status: ('A' for Active; 'I' for Inactive)
REMARK    1  A    between atoms: _2  and  _10
REMARK    2  A    between atoms: _3  and  _6
REMARK    3  A    between atoms: _3  and  _17
REMARK    4  A    between atoms: _5  and  _23
REMARK    5  A    between atoms: _7  and  _8
REMARK    6  A    between atoms: _7  and  _23
REMARK    7  A    between atoms: _15  and  _16
REMARK    8  A    between atoms: _19  and  _39
REMARK    9  A    between atoms: _21  and  _27
REMARK   10  A    between atoms: _22  and  _26
REMARK   11  A    between atoms: _26  and  _27
REMARK   12  A    between atoms: _29  and  _30
REMARK   13  A    between atoms: _31  and  _32
REMARK   14  A    between atoms: _33  and  _35
REMARK   15  A    between atoms: _35  and  _36
REMARK   16  A    between atoms: _35  and  _37
REMARK   17  A    between atoms: _37  and  _38
REMARK   18  A    between atoms: _37  and  _39
REMARK   19  A    between atoms: _40  and  _42
REMARK                            x       y       z     vdW  Elec       q    Type
REMARK                         _______ _______ _______ _____ _____    ______ ____
ROOT
ATOM      1  C   UNL     1       2.273   2.919  33.452  0.00  0.00    +0.141 C 
ENDROOT
BRANCH   1   4
ATOM      2  C   UNL     1       0.477   4.028  32.167  0.00  0.00    +0.401 C 
ATOM      3  O   UNL     1      -0.384   3.843  33.030  0.00  0.00    -0.226 OA
ATOM      4  N   UNL     1       1.743   3.625  32.279  0.00  0.00    -0.279 N 
ATOM      5  H   UNL     1       2.374   3.815  31.512  0.00  0.00    +0.152 HD
BRANCH   2   6
ATOM      6  O   UNL     1       0.118   4.712  30.963  0.00  0.00    -0.444 OA
BRANCH   6   7
ATOM      7  C   UNL     1      -0.487   3.790  30.053  0.00  0.00    +0.292 C 
BRANCH   7   9
ATOM      8  N   UNL     1       1.679   3.746  28.868  0.00  0.00    -0.131 NA
ATOM      9  C   UNL     1       0.315   3.691  28.821  0.00  0.00    +0.121 A 
ATOM     10  C   UNL     1      -0.088   3.484  27.521  0.00  0.00    +0.143 A 
ATOM     11  N   UNL     1       1.079   3.415  26.802  0.00  0.00    -0.219 N 
ATOM     12  N   UNL     1       2.135   3.550  27.639  0.00  0.00    -0.060 NA
BRANCH  11  13
ATOM     13  C   UNL     1       1.277   3.143  25.430  0.00  0.00    +0.080 A 
ATOM     14  C   UNL     1       1.607   1.880  24.917  0.00  0.00    +0.062 A 
ATOM     15  C   UNL     1       2.020   1.807  23.565  0.00  0.00    +0.016 A 
ATOM     16  C   UNL     1       2.078   2.941  22.748  0.00  0.00    +0.021 A 
ATOM     17  C   UNL     1       1.678   4.168  23.255  0.00  0.00    +0.043 A 
ATOM     18 CL   UNL     1       1.777   5.578  22.275  0.00  0.00    -0.083 Cl
ATOM     19  C   UNL     1       1.254   4.270  24.576  0.00  0.00    +0.048 A 
BRANCH  14  20
ATOM     20  C   UNL     1       1.662   0.569  25.631  0.00  0.00    +0.248 C 
ATOM     21  O   UNL     1       2.799   0.158  25.878  0.00  0.00    -0.270 OA
ATOM     22  N   UNL     1       0.534  -0.194  25.950  0.00  0.00    -0.304 N 
ATOM     23  C   UNL     1      -0.866   0.196  25.847  0.00  0.00    +0.132 C 
ATOM     24  C   UNL     1       0.779  -1.456  26.640  0.00  0.00    +0.132 C 
ENDBRANCH  14  20
ENDBRANCH  11  13
ENDBRANCH   7   9
ENDBRANCH   6   7
ENDBRANCH   2   6
ENDBRANCH   1   4
BRANCH   1  25
ATOM     25  C   UNL     1       3.588   3.523  33.933  0.00  0.00    +0.163 C 
BRANCH  25  26
ATOM     26  O   UNL     1       3.977   4.605  33.070  0.00  0.00    -0.388 OA
ATOM     27  H   UNL     1       4.000   4.298  32.161  0.00  0.00    +0.210 HD
ENDBRANCH  25  26
BRANCH  25  28
ATOM     28  C   UNL     1       3.432   4.006  35.385  0.00  0.00    +0.175 C 
BRANCH  28  29
ATOM     29  C   UNL     1       4.443   5.106  35.740  0.00  0.00    +0.176 C 
ATOM     30  O   UNL     1       5.716   4.758  35.129  0.00  0.00    -0.332 OA
ATOM     31  C   UNL     1       6.782   5.753  35.273  0.00  0.00    +0.277 C 
ATOM     32  C   UNL     1       6.997   6.103  36.766  0.00  0.00    +0.110 C 
ATOM     33  C   UNL     1       5.667   6.449  37.467  0.00  0.00    +0.143 C 
ATOM     34  C   UNL     1       4.629   5.348  37.250  0.00  0.00    +0.133 C 
BRANCH  34  35
ATOM     35  N   UNL     1       3.340   5.729  37.848  0.00  0.00    -0.308 N 
ATOM     36  H   UNL     1       2.824   6.484  37.417  0.00  0.00    +0.149 HD
ATOM     37  C   UNL     1       2.807   5.143  38.924  0.00  0.00    +0.210 C 
ATOM     38  C   UNL     1       3.629   4.014  39.573  0.00  0.00    +0.109 C 
ATOM     39  O   UNL     1       1.718   5.474  39.394  0.00  0.00    -0.276 OA
ENDBRANCH  34  35
BRANCH  31  40
ATOM     40  C   UNL     1       6.443   7.037  34.487  0.00  0.00    +0.414 C 
ATOM     41  O   UNL     1       7.281   7.929  34.364  0.00  0.00    -0.240 OA
ATOM     42  O   UNL     1       5.331   7.180  33.976  0.00  0.00    -0.240 OA
ENDBRANCH  31  40
BRANCH  33  43
ATOM     43  O   UNL     1       5.889   6.616  38.868  0.00  0.00    -0.390 OA
ATOM     44  H   UNL     1       6.609   7.236  39.007  0.00  0.00    +0.210 HD
ENDBRANCH  33  43
BRANCH  31  45
ATOM     45  O   UNL     1       8.009   5.175  34.758  0.00  0.00    -0.343 OA
ATOM     46  C   UNL     1       7.836   3.964  33.981  0.00  0.00    +0.198 C 
ENDBRANCH  31  45
ENDBRANCH  28  29
BRANCH  28  47
ATOM     47  O   UNL     1       3.566   2.896  36.295  0.00  0.00    -0.387 OA
ATOM     48  H   UNL     1       2.850   2.273  36.148  0.00  0.00    +0.210 HD
ENDBRANCH  28  47
ENDBRANCH  25  28
ENDBRANCH   1  25
TORSDOF 15
