REMARK VINA RESULT:    -5.282     24.099     26.058
REMARK INTER + INTRA:         -12.576
REMARK INTER:                 -10.590
REMARK INTRA:                  -1.986
REMARK UNBOUND:                -2.970
REMARK  Name = lig_assembled_22.pdb
REMARK  20 active torsions:
REMARK  status: ('A' for Active; 'I' for Inactive)
REMARK    1  A    between atoms: _2  and  _9
REMARK    2  A    between atoms: _4  and  _18
REMARK    3  A    between atoms: _5  and  _9
REMARK    4  A    between atoms: _5  and  _12
REMARK    5  A    between atoms: _6  and  _7
REMARK    6  A    between atoms: _6  and  _18
REMARK    7  A    between atoms: _9  and  _10
REMARK    8  A    between atoms: _9  and  _11
REMARK    9  A    between atoms: _14  and  _34
REMARK   10  A    between atoms: _16  and  _22
REMARK   11  A    between atoms: _17  and  _21
REMARK   12  A    between atoms: _21  and  _22
REMARK   13  A    between atoms: _24  and  _25
REMARK   14  A    between atoms: _26  and  _27
REMARK   15  A    between atoms: _28  and  _30
REMARK   16  A    between atoms: _30  and  _31
REMARK   17  A    between atoms: _30  and  _32
REMARK   18  A    between atoms: _32  and  _33
REMARK   19  A    between atoms: _32  and  _34
REMARK   20  A    between atoms: _35  and  _37
REMARK                            x       y       z     vdW  Elec       q    Type
REMARK                         _______ _______ _______ _____ _____    ______ ____
ROOT
ATOM      1  C   UNL     1      -1.349  18.801  12.311  0.00  0.00    +0.163 C 
ENDROOT
BRANCH   1   2
ATOM      2  O   UNL     1       0.067  18.912  12.530  0.00  0.00    -0.388 OA
ATOM      3  H   UNL     1       0.236  19.070  13.462  0.00  0.00    +0.210 HD
ENDBRANCH   1   2
BRANCH   1   4
ATOM      4  C   UNL     1      -2.091  19.820  13.170  0.00  0.00    +0.141 C 
BRANCH   4   7
ATOM      5  C   UNL     1      -0.979  20.947  15.067  0.00  0.00    +0.401 C 
ATOM      6  O   UNL     1      -0.810  22.007  14.461  0.00  0.00    -0.226 OA
ATOM      7  N   UNL     1      -1.563  19.871  14.539  0.00  0.00    -0.279 N 
ATOM      8  H   UNL     1      -1.647  19.044  15.113  0.00  0.00    +0.152 HD
BRANCH   5   9
ATOM      9  O   UNL     1      -0.525  20.840  16.419  0.00  0.00    -0.444 OA
BRANCH   9  10
ATOM     10  C   UNL     1      -1.365  21.625  17.269  0.00  0.00    +0.292 C 
BRANCH  10  12
ATOM     11  N   UNL     1      -0.443  21.398  19.548  0.00  0.00    -0.131 NA
ATOM     12  C   UNL     1      -1.393  21.054  18.628  0.00  0.00    +0.120 A 
ATOM     13  C   UNL     1      -2.270  20.158  19.202  0.00  0.00    +0.138 A 
ATOM     14  N   UNL     1      -1.800  19.997  20.475  0.00  0.00    -0.235 N 
ATOM     15  N   UNL     1      -0.697  20.746  20.671  0.00  0.00    -0.064 NA
BRANCH  14  16
ATOM     16  C   UNL     1      -2.311  19.148  21.553  0.00  0.00    +0.155 C 
ATOM     17  C   UNL     1      -3.580  18.375  21.134  0.00  0.00    +0.048 C 
ATOM     18  C   UNL     1      -2.661  20.039  22.760  0.00  0.00    +0.048 C 
BRANCH  16  19
ATOM     19  C   UNL     1      -1.257  18.117  21.964  0.00  0.00    +0.332 C 
ATOM     20  O   UNL     1      -1.281  16.937  21.631  0.00  0.00    -0.248 OA
BRANCH  19  21
ATOM     21  O   UNL     1      -0.255  18.591  22.744  0.00  0.00    -0.479 OA
ATOM     22  H   UNL     1       0.022  19.514  22.583  0.00  0.00    +0.295 HD
ENDBRANCH  19  21
ENDBRANCH  16  19
ENDBRANCH  14  16
ENDBRANCH  10  12
ENDBRANCH   9  10
ENDBRANCH   5   9
ENDBRANCH   4   7
ENDBRANCH   1   4
BRANCH   1  23
ATOM     23  C   UNL     1      -1.848  17.385  12.648  0.00  0.00    +0.175 C 
BRANCH  23  24
ATOM     24  C   UNL     1      -0.863  16.301  12.188  0.00  0.00    +0.176 C 
ATOM     25  O   UNL     1      -0.328  16.701  10.897  0.00  0.00    -0.332 OA
ATOM     26  C   UNL     1       0.717  15.832  10.346  0.00  0.00    +0.277 C 
ATOM     27  C   UNL     1       0.220  14.367  10.275  0.00  0.00    +0.110 C 
ATOM     28  C   UNL     1      -0.388  13.906  11.617  0.00  0.00    +0.143 C 
ATOM     29  C   UNL     1      -1.460  14.884  12.098  0.00  0.00    +0.133 C 
BRANCH  29  30
ATOM     30  N   UNL     1      -1.969  14.481  13.419  0.00  0.00    -0.308 N 
ATOM     31  H   UNL     1      -1.340  14.543  14.206  0.00  0.00    +0.149 HD
ATOM     32  C   UNL     1      -3.209  14.038  13.644  0.00  0.00    +0.210 C 
ATOM     33  C   UNL     1      -4.136  13.930  12.419  0.00  0.00    +0.109 C 
ATOM     34  O   UNL     1      -3.613  13.721  14.763  0.00  0.00    -0.276 OA
ENDBRANCH  29  30
BRANCH  26  35
ATOM     35  C   UNL     1       1.996  15.901  11.206  0.00  0.00    +0.414 C 
ATOM     36  O   UNL     1       3.003  15.280  10.871  0.00  0.00    -0.240 OA
ATOM     37  O   UNL     1       2.020  16.579  12.235  0.00  0.00    -0.240 OA
ENDBRANCH  26  35
BRANCH  26  38
ATOM     38  O   UNL     1       1.010  16.281   8.998  0.00  0.00    -0.343 OA
ATOM     39  C   UNL     1       1.390  17.676   8.887  0.00  0.00    +0.198 C 
ENDBRANCH  26  38
BRANCH  28  40
ATOM     40  O   UNL     1      -0.967  12.610  11.463  0.00  0.00    -0.390 OA
ATOM     41  H   UNL     1      -1.362  12.335  12.294  0.00  0.00    +0.210 HD
ENDBRANCH  28  40
ENDBRANCH  23  24
BRANCH  23  42
ATOM     42  O   UNL     1      -3.144  17.162  12.056  0.00  0.00    -0.387 OA
ATOM     43  H   UNL     1      -3.191  17.612  11.209  0.00  0.00    +0.210 HD
ENDBRANCH  23  42
ENDBRANCH   1  23
TORSDOF 16
