REMARK VINA RESULT:    -6.718     14.731     18.524
REMARK INTER + INTRA:         -13.777
REMARK INTER:                 -12.112
REMARK INTRA:                  -1.665
REMARK UNBOUND:                -2.150
REMARK  Name = lig_assembled_80.pdb
REMARK  16 active torsions:
REMARK  status: ('A' for Active; 'I' for Inactive)
REMARK    1  A    between atoms: _2  and  _10
REMARK    2  A    between atoms: _5  and  _24
REMARK    3  A    between atoms: _7  and  _8
REMARK    4  A    between atoms: _7  and  _24
REMARK    5  A    between atoms: _20  and  _40
REMARK    6  A    between atoms: _22  and  _28
REMARK    7  A    between atoms: _23  and  _27
REMARK    8  A    between atoms: _27  and  _28
REMARK    9  A    between atoms: _30  and  _31
REMARK   10  A    between atoms: _32  and  _33
REMARK   11  A    between atoms: _34  and  _36
REMARK   12  A    between atoms: _36  and  _37
REMARK   13  A    between atoms: _36  and  _38
REMARK   14  A    between atoms: _38  and  _39
REMARK   15  A    between atoms: _38  and  _40
REMARK   16  A    between atoms: _41  and  _43
REMARK                            x       y       z     vdW  Elec       q    Type
REMARK                         _______ _______ _______ _____ _____    ______ ____
ROOT
ATOM      1  C   UNL     1      18.626   2.394  25.902  0.00  0.00    +0.141 C 
ENDROOT
BRANCH   1   4
ATOM      2  C   UNL     1      19.805   4.458  25.226  0.00  0.00    +0.401 C 
ATOM      3  O   UNL     1      20.817   4.208  25.884  0.00  0.00    -0.226 OA
ATOM      4  N   UNL     1      18.730   3.669  25.181  0.00  0.00    -0.279 N 
ATOM      5  H   UNL     1      17.944   3.965  24.620  0.00  0.00    +0.152 HD
BRANCH   2   6
ATOM      6  O   UNL     1      19.755   5.664  24.460  0.00  0.00    -0.444 OA
BRANCH   6   7
ATOM      7  C   UNL     1      18.711   6.505  24.959  0.00  0.00    +0.292 C 
BRANCH   7   9
ATOM      8  N   UNL     1      20.285   8.035  26.078  0.00  0.00    -0.131 NA
ATOM      9  C   UNL     1      19.171   7.244  26.152  0.00  0.00    +0.120 A 
ATOM     10  C   UNL     1      18.649   7.302  27.425  0.00  0.00    +0.138 A 
ATOM     11  N   UNL     1      19.529   8.105  28.100  0.00  0.00    -0.239 N 
ATOM     12  N   UNL     1      20.490   8.572  27.273  0.00  0.00    -0.065 NA
BRANCH  11  13
ATOM     13  C   UNL     1      19.459   8.632  29.469  0.00  0.00    +0.195 C 
ATOM     14  C   UNL     1      18.603   9.891  29.457  0.00  0.00    +0.041 C 
ATOM     15  C   UNL     1      18.724  10.644  30.765  0.00  0.00    +0.039 C 
ATOM     16  C   UNL     1      17.763  10.082  31.766  0.00  0.00    -0.026 A 
ATOM     17  C   UNL     1      17.863   8.777  32.253  0.00  0.00    +0.037 A 
ATOM     18  C   UNL     1      16.998   8.362  33.280  0.00  0.00    +0.023 A 
ATOM     19  C   UNL     1      15.971   9.186  33.736  0.00  0.00    +0.002 A 
ATOM     20  C   UNL     1      15.824  10.457  33.199  0.00  0.00    +0.000 A 
ATOM     21  N   UNL     1      18.712   7.777  31.750  0.00  0.00    -0.284 N 
ATOM     22  H   UNL     1      18.669   6.893  32.249  0.00  0.00    +0.155 HD
ATOM     23  C   UNL     1      16.729  10.911  32.241  0.00  0.00    +0.005 A 
ATOM     24  C   UNL     1      19.115   7.534  30.468  0.00  0.00    +0.242 C 
ATOM     25  O   UNL     1      19.292   6.339  30.202  0.00  0.00    -0.273 OA
ENDBRANCH  11  13
ENDBRANCH   7   9
ENDBRANCH   6   7
ENDBRANCH   2   6
ENDBRANCH   1   4
BRANCH   1  26
ATOM     26  C   UNL     1      17.181   1.921  26.015  0.00  0.00    +0.163 C 
BRANCH  26  27
ATOM     27  O   UNL     1      16.382   2.930  26.655  0.00  0.00    -0.388 OA
ATOM     28  H   UNL     1      15.561   2.540  26.966  0.00  0.00    +0.210 HD
ENDBRANCH  26  27
BRANCH  26  29
ATOM     29  C   UNL     1      16.635   1.595  24.614  0.00  0.00    +0.175 C 
BRANCH  29  30
ATOM     30  C   UNL     1      17.690   0.917  23.727  0.00  0.00    +0.176 C 
ATOM     31  O   UNL     1      17.662   1.564  22.425  0.00  0.00    -0.332 OA
ATOM     32  C   UNL     1      18.681   1.116  21.472  0.00  0.00    +0.277 C 
ATOM     33  C   UNL     1      18.618  -0.421  21.294  0.00  0.00    +0.110 C 
ATOM     34  C   UNL     1      18.614  -1.151  22.653  0.00  0.00    +0.143 C 
ATOM     35  C   UNL     1      17.516  -0.604  23.567  0.00  0.00    +0.133 C 
BRANCH  35  36
ATOM     36  N   UNL     1      17.578  -1.247  24.889  0.00  0.00    -0.308 N 
ATOM     37  H   UNL     1      18.359  -1.019  25.489  0.00  0.00    +0.149 HD
ATOM     38  C   UNL     1      16.671  -2.113  25.348  0.00  0.00    +0.210 C 
ATOM     39  C   UNL     1      15.508  -2.461  24.400  0.00  0.00    +0.109 C 
ATOM     40  O   UNL     1      16.741  -2.625  26.466  0.00  0.00    -0.276 OA
ENDBRANCH  35  36
BRANCH  32  41
ATOM     41  C   UNL     1      20.091   1.522  21.948  0.00  0.00    +0.414 C 
ATOM     42  O   UNL     1      20.228   2.379  22.821  0.00  0.00    -0.240 OA
ATOM     43  O   UNL     1      21.091   0.994  21.461  0.00  0.00    -0.240 OA
ENDBRANCH  32  41
BRANCH  34  44
ATOM     44  O   UNL     1      18.402  -2.549  22.449  0.00  0.00    -0.390 OA
ATOM     45  H   UNL     1      17.878  -2.681  21.655  0.00  0.00    +0.210 HD
ENDBRANCH  34  44
BRANCH  32  46
ATOM     46  O   UNL     1      18.402   1.736  20.190  0.00  0.00    -0.343 OA
ATOM     47  C   UNL     1      17.000   1.776  19.822  0.00  0.00    +0.198 C 
ENDBRANCH  32  46
ENDBRANCH  29  30
BRANCH  29  48
ATOM     48  O   UNL     1      16.148   2.794  23.979  0.00  0.00    -0.387 OA
ATOM     49  H   UNL     1      15.491   2.562  23.319  0.00  0.00    +0.210 HD
ENDBRANCH  29  48
ENDBRANCH  26  29
ENDBRANCH   1  26
TORSDOF 14
