REMARK VINA RESULT:    -6.120      3.547      4.938
REMARK INTER + INTRA:         -15.292
REMARK INTER:                 -13.026
REMARK INTRA:                  -2.266
REMARK UNBOUND:                -3.269
REMARK  Name = lig_assembled_84.pdb
REMARK  21 active torsions:
REMARK  status: ('A' for Active; 'I' for Inactive)
REMARK    1  A    between atoms: _2  and  _11
REMARK    2  A    between atoms: _3  and  _14
REMARK    3  A    between atoms: _4  and  _17
REMARK    4  A    between atoms: _6  and  _28
REMARK    5  A    between atoms: _8  and  _9
REMARK    6  A    between atoms: _8  and  _28
REMARK    7  A    between atoms: _11  and  _12
REMARK    8  A    between atoms: _12  and  _13
REMARK    9  A    between atoms: _12  and  _14
REMARK   10  A    between atoms: _24  and  _44
REMARK   11  A    between atoms: _26  and  _32
REMARK   12  A    between atoms: _27  and  _31
REMARK   13  A    between atoms: _31  and  _32
REMARK   14  A    between atoms: _34  and  _35
REMARK   15  A    between atoms: _36  and  _37
REMARK   16  A    between atoms: _38  and  _40
REMARK   17  A    between atoms: _40  and  _41
REMARK   18  A    between atoms: _40  and  _42
REMARK   19  A    between atoms: _42  and  _43
REMARK   20  A    between atoms: _42  and  _44
REMARK   21  A    between atoms: _45  and  _47
REMARK                            x       y       z     vdW  Elec       q    Type
REMARK                         _______ _______ _______ _____ _____    ______ ____
ROOT
ATOM      1  C   UNL     1       6.978  -0.043  32.866  0.00  0.00    +0.401 C 
ATOM      2  O   UNL     1       7.315  -0.382  34.003  0.00  0.00    -0.226 OA
ATOM      3  N   UNL     1       6.227   1.026  32.599  0.00  0.00    -0.279 N 
ATOM      4  H   UNL     1       6.011   1.228  31.633  0.00  0.00    +0.152 HD
ENDROOT
BRANCH   1   5
ATOM      5  O   UNL     1       7.410  -0.826  31.751  0.00  0.00    -0.444 OA
BRANCH   5   6
ATOM      6  C   UNL     1       6.288  -1.505  31.179  0.00  0.00    +0.292 C 
BRANCH   6   8
ATOM      7  N   UNL     1       7.406  -3.503  30.228  0.00  0.00    -0.131 NA
ATOM      8  C   UNL     1       6.707  -2.339  30.037  0.00  0.00    +0.120 A 
ATOM      9  C   UNL     1       6.541  -2.131  28.686  0.00  0.00    +0.137 A 
ATOM     10  N   UNL     1       7.216  -3.165  28.109  0.00  0.00    -0.251 N 
ATOM     11  N   UNL     1       7.715  -4.000  29.037  0.00  0.00    -0.065 NA
BRANCH  10  12
ATOM     12  C   UNL     1       7.538  -3.342  26.706  0.00  0.00    +0.149 C 
BRANCH  12  13
ATOM     13  C   UNL     1       6.645  -2.539  25.745  0.00  0.00    +0.021 C 
ATOM     14  C   UNL     1       7.375  -2.236  24.429  0.00  0.00    +0.010 C 
BRANCH  13  15
ATOM     15  C   UNL     1       5.337  -3.303  25.426  0.00  0.00    +0.089 C 
BRANCH  15  16
ATOM     16  N   UNL     1       4.124  -2.477  25.339  0.00  0.00    -0.299 NA
ATOM     17  C   UNL     1       3.882  -2.076  23.927  0.00  0.00    +0.103 C 
ATOM     18  C   UNL     1       2.570  -1.279  23.777  0.00  0.00    +0.120 C 
ATOM     19  N   UNL     1       2.617  -0.085  24.630  0.00  0.00    -0.327 N 
ATOM     20  C   UNL     1       2.909  -0.363  26.044  0.00  0.00    +0.120 C 
ATOM     21  C   UNL     1       4.186  -1.244  26.164  0.00  0.00    +0.103 C 
BRANCH  19  22
ATOM     22  C   UNL     1       2.355   1.178  24.154  0.00  0.00    +0.030 A 
ATOM     23  C   UNL     1       2.442   2.308  24.989  0.00  0.00    +0.024 A 
ATOM     24  C   UNL     1       2.155   3.597  24.528  0.00  0.00    +0.022 A 
ATOM     25  C   UNL     1       1.778   3.785  23.209  0.00  0.00    +0.041 A 
ATOM     26 CL   UNL     1       1.418   5.367  22.637  0.00  0.00    -0.084 Cl
ATOM     27  C   UNL     1       1.683   2.696  22.350  0.00  0.00    +0.022 A 
ATOM     28  C   UNL     1       1.968   1.408  22.825  0.00  0.00    +0.024 A 
ENDBRANCH  19  22
ENDBRANCH  15  16
ENDBRANCH  13  15
ENDBRANCH  12  13
ENDBRANCH  10  12
ENDBRANCH   6   8
ENDBRANCH   5   6
ENDBRANCH   1   5
BRANCH   3  29
ATOM     29  C   UNL     1       5.696   1.926  33.630  0.00  0.00    +0.141 C 
BRANCH  29  30
ATOM     30  C   UNL     1       5.903   3.393  33.266  0.00  0.00    +0.163 C 
BRANCH  30  31
ATOM     31  O   UNL     1       4.959   4.213  33.973  0.00  0.00    -0.388 OA
ATOM     32  H   UNL     1       4.929   5.086  33.573  0.00  0.00    +0.210 HD
ENDBRANCH  30  31
BRANCH  30  33
ATOM     33  C   UNL     1       7.347   3.806  33.597  0.00  0.00    +0.175 C 
BRANCH  33  34
ATOM     34  C   UNL     1       7.466   4.415  35.002  0.00  0.00    +0.176 C 
ATOM     35  O   UNL     1       7.375   5.860  34.872  0.00  0.00    -0.332 OA
ATOM     36  C   UNL     1       7.363   6.611  36.131  0.00  0.00    +0.277 C 
ATOM     37  C   UNL     1       8.595   6.240  36.993  0.00  0.00    +0.110 C 
ATOM     38  C   UNL     1       8.752   4.711  37.134  0.00  0.00    +0.143 C 
ATOM     39  C   UNL     1       8.748   4.031  35.764  0.00  0.00    +0.133 C 
BRANCH  39  40
ATOM     40  N   UNL     1       8.811   2.569  35.915  0.00  0.00    -0.308 N 
ATOM     41  H   UNL     1       7.994   2.096  36.274  0.00  0.00    +0.149 HD
ATOM     42  C   UNL     1       9.878   1.826  35.608  0.00  0.00    +0.210 C 
ATOM     43  C   UNL     1      11.117   2.579  35.088  0.00  0.00    +0.109 C 
ATOM     44  O   UNL     1       9.897   0.601  35.731  0.00  0.00    -0.276 OA
ENDBRANCH  39  40
BRANCH  36  45
ATOM     45  C   UNL     1       6.072   6.325  36.926  0.00  0.00    +0.414 C 
ATOM     46  O   UNL     1       5.029   6.048  36.336  0.00  0.00    -0.240 OA
ATOM     47  O   UNL     1       6.074   6.371  38.157  0.00  0.00    -0.240 OA
ENDBRANCH  36  45
BRANCH  36  48
ATOM     48  O   UNL     1       7.437   8.024  35.812  0.00  0.00    -0.343 OA
ATOM     49  C   UNL     1       7.793   8.324  34.438  0.00  0.00    +0.198 C 
ENDBRANCH  36  48
BRANCH  38  50
ATOM     50  O   UNL     1       9.977   4.413  37.804  0.00  0.00    -0.390 OA
ATOM     51  H   UNL     1      10.278   3.538  37.548  0.00  0.00    +0.210 HD
ENDBRANCH  38  50
ENDBRANCH  33  34
BRANCH  33  52
ATOM     52  O   UNL     1       7.837   4.735  32.610  0.00  0.00    -0.387 OA
ATOM     53  H   UNL     1       8.784   4.851  32.721  0.00  0.00    +0.210 HD
ENDBRANCH  33  52
ENDBRANCH  30  33
ENDBRANCH  29  30
ENDBRANCH   3  29
TORSDOF 18
