REMARK VINA RESULT:    -6.031      2.484     10.720
REMARK INTER + INTRA:         -15.510
REMARK INTER:                 -11.708
REMARK INTRA:                  -3.802
REMARK UNBOUND:                -3.133
REMARK  Name = lig_assembled_90.pdb
REMARK  22 active torsions:
REMARK  status: ('A' for Active; 'I' for Inactive)
REMARK    1  A    between atoms: _2  and  _13
REMARK    2  A    between atoms: _3  and  _15
REMARK    3  A    between atoms: _4  and  _17
REMARK    4  A    between atoms: _8  and  _28
REMARK    5  A    between atoms: _10  and  _11
REMARK    6  A    between atoms: _10  and  _28
REMARK    7  A    between atoms: _13  and  _14
REMARK    8  A    between atoms: _15  and  _16
REMARK    9  A    between atoms: _16  and  _17
REMARK   10  A    between atoms: _16  and  _22
REMARK   11  A    between atoms: _24  and  _44
REMARK   12  A    between atoms: _26  and  _32
REMARK   13  A    between atoms: _27  and  _31
REMARK   14  A    between atoms: _31  and  _32
REMARK   15  A    between atoms: _34  and  _35
REMARK   16  A    between atoms: _36  and  _37
REMARK   17  A    between atoms: _38  and  _40
REMARK   18  A    between atoms: _40  and  _41
REMARK   19  A    between atoms: _40  and  _42
REMARK   20  A    between atoms: _42  and  _43
REMARK   21  A    between atoms: _42  and  _44
REMARK   22  A    between atoms: _45  and  _47
REMARK                            x       y       z     vdW  Elec       q    Type
REMARK                         _______ _______ _______ _____ _____    ______ ____
ROOT
ATOM      1  C   UNL     1      19.138  10.794  27.783  0.00  0.00    +0.401 C 
ATOM      2  O   UNL     1      17.911  10.911  27.785  0.00  0.00    -0.226 OA
ATOM      3  N   UNL     1      19.895  10.863  28.879  0.00  0.00    -0.279 N 
ATOM      4  H   UNL     1      20.893  10.745  28.778  0.00  0.00    +0.152 HD
ENDROOT
BRANCH   3   5
ATOM      5  C   UNL     1      19.359  11.100  30.225  0.00  0.00    +0.141 C 
BRANCH   5   6
ATOM      6  C   UNL     1      19.587   9.907  31.147  0.00  0.00    +0.163 C 
BRANCH   6   7
ATOM      7  O   UNL     1      19.694  10.351  32.509  0.00  0.00    -0.388 OA
ATOM      8  H   UNL     1      19.857   9.597  33.081  0.00  0.00    +0.210 HD
ENDBRANCH   6   7
BRANCH   6   9
ATOM      9  C   UNL     1      18.432   8.904  30.984  0.00  0.00    +0.175 C 
BRANCH   9  10
ATOM     10  C   UNL     1      18.562   7.711  31.944  0.00  0.00    +0.176 C 
ATOM     11  O   UNL     1      18.674   6.503  31.143  0.00  0.00    -0.332 OA
ATOM     12  C   UNL     1      18.913   5.266  31.891  0.00  0.00    +0.277 C 
ATOM     13  C   UNL     1      17.829   5.074  32.980  0.00  0.00    +0.110 C 
ATOM     14  C   UNL     1      17.652   6.344  33.838  0.00  0.00    +0.143 C 
ATOM     15  C   UNL     1      17.412   7.571  32.958  0.00  0.00    +0.133 C 
BRANCH  15  16
ATOM     16  N   UNL     1      17.332   8.788  33.781  0.00  0.00    -0.308 N 
ATOM     17  H   UNL     1      18.170   9.094  34.254  0.00  0.00    +0.149 HD
ATOM     18  C   UNL     1      16.223   9.516  33.943  0.00  0.00    +0.210 C 
ATOM     19  C   UNL     1      14.956   9.010  33.230  0.00  0.00    +0.109 C 
ATOM     20  O   UNL     1      16.189  10.539  34.627  0.00  0.00    -0.276 OA
ENDBRANCH  15  16
BRANCH  12  21
ATOM     21  C   UNL     1      20.308   5.287  32.551  0.00  0.00    +0.414 C 
ATOM     22  O   UNL     1      21.281   5.713  31.930  0.00  0.00    -0.240 OA
ATOM     23  O   UNL     1      20.460   4.878  33.703  0.00  0.00    -0.240 OA
ENDBRANCH  12  21
BRANCH  14  24
ATOM     24  O   UNL     1      16.545   6.177  34.725  0.00  0.00    -0.390 OA
ATOM     25  H   UNL     1      16.868   5.980  35.607  0.00  0.00    +0.210 HD
ENDBRANCH  14  24
BRANCH  12  26
ATOM     26  O   UNL     1      18.829   4.155  30.962  0.00  0.00    -0.343 OA
ATOM     27  C   UNL     1      18.898   4.522  29.561  0.00  0.00    +0.198 C 
ENDBRANCH  12  26
ENDBRANCH   9  10
BRANCH   9  28
ATOM     28  O   UNL     1      18.366   8.439  29.621  0.00  0.00    -0.387 OA
ATOM     29  H   UNL     1      19.251   8.400  29.253  0.00  0.00    +0.210 HD
ENDBRANCH   9  28
ENDBRANCH   6   9
ENDBRANCH   5   6
ENDBRANCH   3   5
BRANCH   1  30
ATOM     30  O   UNL     1      19.813  10.566  26.543  0.00  0.00    -0.444 OA
BRANCH  30  31
ATOM     31  C   UNL     1      20.659   9.420  26.663  0.00  0.00    +0.292 C 
BRANCH  31  33
ATOM     32  N   UNL     1      19.094   7.519  26.962  0.00  0.00    -0.131 NA
ATOM     33  C   UNL     1      19.967   8.215  26.167  0.00  0.00    +0.120 A 
ATOM     34  C   UNL     1      20.043   7.598  24.938  0.00  0.00    +0.137 A 
ATOM     35  N   UNL     1      19.178   6.549  25.042  0.00  0.00    -0.242 N 
ATOM     36  N   UNL     1      18.623   6.493  26.265  0.00  0.00    -0.065 NA
BRANCH  35  37
ATOM     37  C   UNL     1      18.912   5.512  24.075  0.00  0.00    +0.240 C 
BRANCH  37  38
ATOM     38  C   UNL     1      19.134   4.139  24.665  0.00  0.00    +0.235 C 
ATOM     39  O   UNL     1      20.143   3.473  24.436  0.00  0.00    -0.274 OA
ATOM     40  N   UNL     1      18.148   3.702  25.530  0.00  0.00    -0.311 N 
ATOM     41  H   UNL     1      17.229   4.137  25.480  0.00  0.00    +0.149 HD
BRANCH  40  42
ATOM     42  C   UNL     1      18.203   2.362  26.098  0.00  0.00    +0.137 C 
BRANCH  42  43
ATOM     43  C   UNL     1      16.799   1.852  26.455  0.00  0.00    +0.151 C 
BRANCH  43  44
ATOM     44  O   UNL     1      16.111   2.876  27.185  0.00  0.00    -0.388 OA
ATOM     45  H   UNL     1      16.179   2.683  28.142  0.00  0.00    +0.210 HD
ENDBRANCH  43  44
BRANCH  43  46
ATOM     46  C   UNL     1      16.012   1.434  25.207  0.00  0.00    +0.162 C 
BRANCH  46  47
ATOM     47  N   UNL     1      16.833   0.702  24.251  0.00  0.00    -0.269 N 
ATOM     48  C   UNL     1      17.294  -0.576  24.481  0.00  0.00    +0.113 A 
ATOM     49  C   UNL     1      18.057  -0.900  23.385  0.00  0.00    +0.137 A 
ATOM     50  N   UNL     1      18.083   0.138  22.490  0.00  0.00    -0.172 NA
ATOM     51  C   UNL     1      17.330   1.084  23.029  0.00  0.00    +0.450 A 
ATOM     52  N   UNL     1      17.098   2.350  22.378  0.00  0.00    +0.120 N 
ATOM     53  O   UNL     1      16.293   3.130  22.906  0.00  0.00    +0.045 OA
ATOM     54  O   UNL     1      17.728   2.577  21.337  0.00  0.00    -0.573 OA
ENDBRANCH  46  47
ENDBRANCH  43  46
ENDBRANCH  42  43
ENDBRANCH  40  42
ENDBRANCH  37  38
ENDBRANCH  35  37
ENDBRANCH  31  33
ENDBRANCH  30  31
ENDBRANCH   1  30
TORSDOF 20
