REMARK VINA RESULT:    -6.459     26.086     28.698
REMARK INTER + INTRA:         -16.511
REMARK INTER:                 -13.203
REMARK INTRA:                  -3.308
REMARK UNBOUND:                -3.256
REMARK  Name = lig_assembled_47.pdb
REMARK  22 active torsions:
REMARK  status: ('A' for Active; 'I' for Inactive)
REMARK    1  A    between atoms: _2  and  _9
REMARK    2  A    between atoms: _4  and  _30
REMARK    3  A    between atoms: _6  and  _7
REMARK    4  A    between atoms: _6  and  _30
REMARK    5  A    between atoms: _9  and  _10
REMARK    6  A    between atoms: _10  and  _11
REMARK    7  A    between atoms: _10  and  _12
REMARK    8  A    between atoms: _11  and  _24
REMARK    9  A    between atoms: _12  and  _13
REMARK   10  A    between atoms: _12  and  _19
REMARK   11  A    between atoms: _26  and  _46
REMARK   12  A    between atoms: _28  and  _34
REMARK   13  A    between atoms: _29  and  _33
REMARK   14  A    between atoms: _33  and  _34
REMARK   15  A    between atoms: _36  and  _37
REMARK   16  A    between atoms: _38  and  _39
REMARK   17  A    between atoms: _40  and  _42
REMARK   18  A    between atoms: _42  and  _43
REMARK   19  A    between atoms: _42  and  _44
REMARK   20  A    between atoms: _44  and  _45
REMARK   21  A    between atoms: _44  and  _46
REMARK   22  A    between atoms: _47  and  _49
REMARK                            x       y       z     vdW  Elec       q    Type
REMARK                         _______ _______ _______ _____ _____    ______ ____
ROOT
ATOM      1  C   UNL     1      17.962   1.377  20.640  0.00  0.00    +0.401 C 
ATOM      2  O   UNL     1      18.282   2.122  19.710  0.00  0.00    -0.226 OA
ATOM      3  N   UNL     1      17.219   1.759  21.679  0.00  0.00    -0.279 N 
ATOM      4  H   UNL     1      17.001   1.072  22.388  0.00  0.00    +0.152 HD
ENDROOT
BRANCH   3   5
ATOM      5  C   UNL     1      16.700   3.121  21.852  0.00  0.00    +0.141 C 
BRANCH   5   6
ATOM      6  C   UNL     1      17.696   4.022  22.575  0.00  0.00    +0.163 C 
BRANCH   6   7
ATOM      7  O   UNL     1      17.062   5.257  22.946  0.00  0.00    -0.388 OA
ATOM      8  H   UNL     1      16.178   5.077  23.276  0.00  0.00    +0.210 HD
ENDBRANCH   6   7
BRANCH   6   9
ATOM      9  C   UNL     1      18.245   3.292  23.812  0.00  0.00    +0.175 C 
BRANCH   9  10
ATOM     10  C   UNL     1      18.307   4.208  25.044  0.00  0.00    +0.176 C 
ATOM     11  O   UNL     1      19.560   4.942  24.992  0.00  0.00    -0.332 OA
ATOM     12  C   UNL     1      19.748   5.951  26.040  0.00  0.00    +0.277 C 
ATOM     13  C   UNL     1      19.571   5.315  27.440  0.00  0.00    +0.110 C 
ATOM     14  C   UNL     1      18.266   4.497  27.534  0.00  0.00    +0.143 C 
ATOM     15  C   UNL     1      18.173   3.481  26.395  0.00  0.00    +0.133 C 
BRANCH  15  16
ATOM     16  N   UNL     1      16.887   2.767  26.444  0.00  0.00    -0.308 N 
ATOM     17  H   UNL     1      16.041   3.318  26.403  0.00  0.00    +0.149 HD
ATOM     18  C   UNL     1      16.765   1.441  26.539  0.00  0.00    +0.210 C 
ATOM     19  C   UNL     1      18.073   0.632  26.626  0.00  0.00    +0.109 C 
ATOM     20  O   UNL     1      15.674   0.869  26.563  0.00  0.00    -0.276 OA
ENDBRANCH  15  16
BRANCH  12  21
ATOM     21  C   UNL     1      18.744   7.110  25.869  0.00  0.00    +0.414 C 
ATOM     22  O   UNL     1      17.996   7.143  24.892  0.00  0.00    -0.240 OA
ATOM     23  O   UNL     1      18.681   8.010  26.707  0.00  0.00    -0.240 OA
ENDBRANCH  12  21
BRANCH  12  24
ATOM     24  O   UNL     1      21.102   6.460  25.936  0.00  0.00    -0.343 OA
ATOM     25  C   UNL     1      21.400   7.163  24.704  0.00  0.00    +0.198 C 
ENDBRANCH  12  24
BRANCH  14  26
ATOM     26  O   UNL     1      18.217   3.808  28.784  0.00  0.00    -0.390 OA
ATOM     27  H   UNL     1      17.321   3.828  29.126  0.00  0.00    +0.210 HD
ENDBRANCH  14  26
ENDBRANCH   9  10
BRANCH   9  28
ATOM     28  O   UNL     1      19.551   2.750  23.530  0.00  0.00    -0.387 OA
ATOM     29  H   UNL     1      20.223   3.392  23.772  0.00  0.00    +0.210 HD
ENDBRANCH   9  28
ENDBRANCH   6   9
ENDBRANCH   5   6
ENDBRANCH   3   5
BRANCH   1  30
ATOM     30  O   UNL     1      18.400   0.016  20.621  0.00  0.00    -0.444 OA
BRANCH  30  31
ATOM     31  C   UNL     1      19.450  -0.162  21.576  0.00  0.00    +0.292 C 
BRANCH  31  33
ATOM     32  N   UNL     1      19.557  -2.600  22.034  0.00  0.00    -0.131 NA
ATOM     33  C   UNL     1      19.195  -1.339  22.432  0.00  0.00    +0.120 A 
ATOM     34  C   UNL     1      18.581  -1.418  23.662  0.00  0.00    +0.137 A 
ATOM     35  N   UNL     1      18.556  -2.754  23.935  0.00  0.00    -0.251 N 
ATOM     36  N   UNL     1      19.162  -3.459  22.965  0.00  0.00    -0.065 NA
BRANCH  35  37
ATOM     37  C   UNL     1      17.850  -3.438  25.009  0.00  0.00    +0.160 C 
BRANCH  37  38
ATOM     38  C   UNL     1      16.717  -2.615  25.629  0.00  0.00    +0.131 C 
BRANCH  38  39
ATOM     39  C   UNL     1      15.664  -2.400  24.550  0.00  0.00    +0.311 C 
ATOM     40  O   UNL     1      15.344  -3.269  23.753  0.00  0.00    -0.251 OA
BRANCH  39  41
ATOM     41  O   UNL     1      15.001  -1.225  24.572  0.00  0.00    -0.480 OA
ATOM     42  H   UNL     1      14.137  -1.184  25.014  0.00  0.00    +0.295 HD
ENDBRANCH  39  41
ENDBRANCH  38  39
BRANCH  38  43
ATOM     43  C   UNL     1      16.103  -3.226  26.929  0.00  0.00    +0.064 C 
BRANCH  43  44
ATOM     44  C   UNL     1      15.303  -4.517  26.742  0.00  0.00    -0.039 A 
ATOM     45  C   UNL     1      14.005  -4.618  27.279  0.00  0.00    +0.004 A 
ATOM     46  C   UNL     1      13.247  -5.784  27.126  0.00  0.00    +0.000 A 
ATOM     47  C   UNL     1      13.778  -6.878  26.449  0.00  0.00    +0.000 A 
ATOM     48  C   UNL     1      15.066  -6.805  25.929  0.00  0.00    +0.000 A 
ATOM     49  C   UNL     1      15.819  -5.632  26.065  0.00  0.00    +0.004 A 
ENDBRANCH  43  44
BRANCH  43  50
ATOM     50  C   UNL     1      17.176  -3.339  28.020  0.00  0.00    -0.039 A 
ATOM     51  C   UNL     1      17.419  -4.569  28.652  0.00  0.00    +0.004 A 
ATOM     52  C   UNL     1      18.269  -4.642  29.761  0.00  0.00    +0.000 A 
ATOM     53  C   UNL     1      18.905  -3.497  30.234  0.00  0.00    +0.000 A 
ATOM     54  C   UNL     1      18.705  -2.280  29.596  0.00  0.00    +0.000 A 
ATOM     55  C   UNL     1      17.847  -2.202  28.499  0.00  0.00    +0.004 A 
ENDBRANCH  43  50
ENDBRANCH  38  43
ENDBRANCH  37  38
ENDBRANCH  35  37
ENDBRANCH  31  33
ENDBRANCH  30  31
ENDBRANCH   1  30
TORSDOF 20
