REMARK VINA RESULT:    -6.398     13.227     17.977
REMARK INTER + INTRA:         -13.104
REMARK INTER:                 -11.343
REMARK INTRA:                  -1.761
REMARK UNBOUND:                -2.031
REMARK  Name = lig_assembled_42.pdb
REMARK  16 active torsions:
REMARK  status: ('A' for Active; 'I' for Inactive)
REMARK    1  A    between atoms: _2  and  _9
REMARK    2  A    between atoms: _4  and  _21
REMARK    3  A    between atoms: _6  and  _7
REMARK    4  A    between atoms: _6  and  _21
REMARK    5  A    between atoms: _17  and  _37
REMARK    6  A    between atoms: _19  and  _25
REMARK    7  A    between atoms: _20  and  _24
REMARK    8  A    between atoms: _24  and  _25
REMARK    9  A    between atoms: _27  and  _28
REMARK   10  A    between atoms: _29  and  _30
REMARK   11  A    between atoms: _31  and  _33
REMARK   12  A    between atoms: _33  and  _34
REMARK   13  A    between atoms: _33  and  _35
REMARK   14  A    between atoms: _35  and  _36
REMARK   15  A    between atoms: _35  and  _37
REMARK   16  A    between atoms: _38  and  _40
REMARK                            x       y       z     vdW  Elec       q    Type
REMARK                         _______ _______ _______ _____ _____    ______ ____
ROOT
ATOM      1  C   UNL     1      19.333   4.881  25.100  0.00  0.00    +0.163 C 
ENDROOT
BRANCH   1   2
ATOM      2  O   UNL     1      18.266   4.755  26.055  0.00  0.00    -0.388 OA
ATOM      3  H   UNL     1      18.141   3.829  26.276  0.00  0.00    +0.210 HD
ENDBRANCH   1   2
BRANCH   1   4
ATOM      4  C   UNL     1      19.271   6.247  24.425  0.00  0.00    +0.141 C 
BRANCH   4   7
ATOM      5  C   UNL     1      19.386   7.958  26.204  0.00  0.00    +0.401 C 
ATOM      6  O   UNL     1      20.594   7.808  26.401  0.00  0.00    -0.226 OA
ATOM      7  N   UNL     1      18.685   7.266  25.305  0.00  0.00    -0.279 N 
ATOM      8  H   UNL     1      17.696   7.453  25.224  0.00  0.00    +0.152 HD
BRANCH   5   9
ATOM      9  O   UNL     1      18.670   8.923  26.980  0.00  0.00    -0.444 OA
BRANCH   9  10
ATOM     10  C   UNL     1      19.478   9.344  28.082  0.00  0.00    +0.292 C 
BRANCH  10  12
ATOM     11  N   UNL     1      17.875  10.590  29.507  0.00  0.00    -0.131 NA
ATOM     12  C   UNL     1      18.658   9.492  29.299  0.00  0.00    +0.121 A 
ATOM     13  C   UNL     1      18.528   8.640  30.369  0.00  0.00    +0.143 A 
ATOM     14  N   UNL     1      17.644   9.262  31.218  0.00  0.00    -0.220 N 
ATOM     15  N   UNL     1      17.260  10.444  30.676  0.00  0.00    -0.060 NA
BRANCH  14  16
ATOM     16  C   UNL     1      17.167   8.809  32.474  0.00  0.00    +0.071 A 
ATOM     17  C   UNL     1      16.348   7.671  32.545  0.00  0.00    +0.077 A 
ATOM     18  C   UNL     1      15.910   7.270  33.789  0.00  0.00    +0.168 A 
ATOM     19  O   UNL     1      15.118   6.193  34.029  0.00  0.00    -0.453 OA
ATOM     20  C   UNL     1      14.999   6.262  35.465  0.00  0.00    +0.466 C 
ATOM     21  O   UNL     1      15.711   7.377  36.046  0.00  0.00    -0.453 OA
ATOM     22  C   UNL     1      16.250   7.946  34.935  0.00  0.00    +0.166 A 
ATOM     23  C   UNL     1      17.050   9.067  34.904  0.00  0.00    +0.051 A 
ATOM     24  C   UNL     1      17.515   9.505  33.656  0.00  0.00    +0.031 A 
ENDBRANCH  14  16
ENDBRANCH  10  12
ENDBRANCH   9  10
ENDBRANCH   5   9
ENDBRANCH   4   7
ENDBRANCH   1   4
BRANCH   1  25
ATOM     25  C   UNL     1      19.248   3.776  24.032  0.00  0.00    +0.175 C 
BRANCH  25  26
ATOM     26  C   UNL     1      18.369   2.601  24.485  0.00  0.00    +0.176 C 
ATOM     27  O   UNL     1      18.802   2.206  25.816  0.00  0.00    -0.332 OA
ATOM     28  C   UNL     1      18.002   1.158  26.458  0.00  0.00    +0.277 C 
ATOM     29  C   UNL     1      17.912  -0.089  25.545  0.00  0.00    +0.110 C 
ATOM     30  C   UNL     1      17.486   0.285  24.110  0.00  0.00    +0.143 C 
ATOM     31  C   UNL     1      18.382   1.385  23.540  0.00  0.00    +0.133 C 
BRANCH  31  32
ATOM     32  N   UNL     1      17.913   1.793  22.207  0.00  0.00    -0.308 N 
ATOM     33  H   UNL     1      17.035   2.290  22.147  0.00  0.00    +0.149 HD
ATOM     34  C   UNL     1      18.571   1.551  21.070  0.00  0.00    +0.210 C 
ATOM     35  C   UNL     1      19.893   0.769  21.192  0.00  0.00    +0.109 C 
ATOM     36  O   UNL     1      18.161   1.918  19.969  0.00  0.00    -0.276 OA
ENDBRANCH  31  32
BRANCH  28  37
ATOM     37  C   UNL     1      16.581   1.670  26.772  0.00  0.00    +0.414 C 
ATOM     38  O   UNL     1      15.601   0.966  26.533  0.00  0.00    -0.240 OA
ATOM     39  O   UNL     1      16.415   2.787  27.266  0.00  0.00    -0.240 OA
ENDBRANCH  28  37
BRANCH  30  40
ATOM     40  O   UNL     1      17.562  -0.867  23.269  0.00  0.00    -0.390 OA
ATOM     41  H   UNL     1      17.140  -1.611  23.705  0.00  0.00    +0.210 HD
ENDBRANCH  30  40
BRANCH  28  42
ATOM     42  O   UNL     1      18.667   0.777  27.689  0.00  0.00    -0.343 OA
ATOM     43  C   UNL     1      19.659   1.720  28.167  0.00  0.00    +0.198 C 
ENDBRANCH  28  42
ENDBRANCH  25  26
BRANCH  25  44
ATOM     44  O   UNL     1      20.569   3.308  23.696  0.00  0.00    -0.387 OA
ATOM     45  H   UNL     1      20.778   2.532  24.223  0.00  0.00    +0.210 HD
ENDBRANCH  25  44
ENDBRANCH   1  25
TORSDOF 14
