REMARK VINA RESULT:    -5.524     12.774     14.306
REMARK INTER + INTRA:         -15.676
REMARK INTER:                 -12.951
REMARK INTRA:                  -2.725
REMARK UNBOUND:                -2.725
REMARK  Name = lig_assembled_30.pdb
REMARK  27 active torsions:
REMARK  status: ('A' for Active; 'I' for Inactive)
REMARK    1  A    between atoms: _2  and  _9
REMARK    2  A    between atoms: _4  and  _25
REMARK    3  A    between atoms: _5  and  _18
REMARK    4  A    between atoms: _5  and  _19
REMARK    5  A    between atoms: _6  and  _7
REMARK    6  A    between atoms: _6  and  _25
REMARK    7  A    between atoms: _9  and  _10
REMARK    8  A    between atoms: _10  and  _11
REMARK    9  A    between atoms: _11  and  _12
REMARK   10  A    between atoms: _12  and  _13
REMARK   11  A    between atoms: _13  and  _14
REMARK   12  A    between atoms: _14  and  _15
REMARK   13  A    between atoms: _15  and  _16
REMARK   14  A    between atoms: _16  and  _17
REMARK   15  A    between atoms: _17  and  _18
REMARK   16  A    between atoms: _21  and  _41
REMARK   17  A    between atoms: _23  and  _29
REMARK   18  A    between atoms: _24  and  _28
REMARK   19  A    between atoms: _28  and  _29
REMARK   20  A    between atoms: _31  and  _32
REMARK   21  A    between atoms: _33  and  _34
REMARK   22  A    between atoms: _35  and  _37
REMARK   23  A    between atoms: _37  and  _38
REMARK   24  A    between atoms: _37  and  _39
REMARK   25  A    between atoms: _39  and  _40
REMARK   26  A    between atoms: _39  and  _41
REMARK   27  A    between atoms: _42  and  _44
REMARK                            x       y       z     vdW  Elec       q    Type
REMARK                         _______ _______ _______ _____ _____    ______ ____
ROOT
ATOM      1  C   UNL     1       5.301  -0.430  33.045  0.00  0.00    +0.401 C 
ATOM      2  O   UNL     1       5.805  -0.320  34.165  0.00  0.00    -0.226 OA
ATOM      3  N   UNL     1       4.525   0.498  32.482  0.00  0.00    -0.279 N 
ATOM      4  H   UNL     1       4.166   0.320  31.555  0.00  0.00    +0.152 HD
ENDROOT
BRANCH   1   5
ATOM      5  O   UNL     1       5.554  -1.613  32.283  0.00  0.00    -0.444 OA
BRANCH   5   6
ATOM      6  C   UNL     1       6.735  -1.433  31.497  0.00  0.00    +0.292 C 
BRANCH   6   8
ATOM      7  N   UNL     1       7.392  -1.996  29.178  0.00  0.00    -0.131 NA
ATOM      8  C   UNL     1       6.427  -1.594  30.065  0.00  0.00    +0.120 A 
ATOM      9  C   UNL     1       5.245  -1.397  29.387  0.00  0.00    +0.137 A 
ATOM     10  N   UNL     1       5.558  -1.694  28.095  0.00  0.00    -0.251 N 
ATOM     11  N   UNL     1       6.846  -2.052  27.970  0.00  0.00    -0.065 NA
BRANCH  10  12
ATOM     12  C   UNL     1       4.700  -1.618  26.933  0.00  0.00    +0.145 C 
BRANCH  12  13
ATOM     13  C   UNL     1       3.553  -0.639  27.156  0.00  0.00    +0.023 C 
BRANCH  13  14
ATOM     14  C   UNL     1       2.539  -0.676  26.014  0.00  0.00    +0.002 C 
BRANCH  14  15
ATOM     15  C   UNL     1       3.121  -0.005  24.770  0.00  0.00    +0.000 C 
BRANCH  15  16
ATOM     16  C   UNL     1       2.343   1.250  24.386  0.00  0.00    +0.000 C 
BRANCH  16  17
ATOM     17  C   UNL     1       1.329   0.943  23.282  0.00  0.00    +0.000 C 
BRANCH  17  18
ATOM     18  C   UNL     1       1.188   2.126  22.328  0.00  0.00    +0.000 C 
BRANCH  18  19
ATOM     19  C   UNL     1       2.123   3.274  22.711  0.00  0.00    +0.001 C 
BRANCH  19  20
ATOM     20  C   UNL     1       1.347   4.587  22.801  0.00  0.00    +0.011 C 
BRANCH  20  21
ATOM     21  C   UNL     1       1.091   4.999  24.249  0.00  0.00    +0.120 C 
BRANCH  21  22
ATOM     22  C   UNL     1      -0.371   4.870  24.610  0.00  0.00    +0.305 C 
ATOM     23  O   UNL     1      -1.105   3.952  24.276  0.00  0.00    -0.251 OA
BRANCH  22  24
ATOM     24  O   UNL     1      -0.808   5.902  25.366  0.00  0.00    -0.481 OA
ATOM     25  H   UNL     1      -0.501   5.869  26.291  0.00  0.00    +0.295 HD
ENDBRANCH  22  24
ENDBRANCH  21  22
ENDBRANCH  20  21
ENDBRANCH  19  20
ENDBRANCH  18  19
ENDBRANCH  17  18
ENDBRANCH  16  17
ENDBRANCH  15  16
ENDBRANCH  14  15
ENDBRANCH  13  14
ENDBRANCH  12  13
ENDBRANCH  10  12
ENDBRANCH   6   8
ENDBRANCH   5   6
ENDBRANCH   1   5
BRANCH   3  26
ATOM     26  C   UNL     1       4.163   1.762  33.135  0.00  0.00    +0.141 C 
BRANCH  26  27
ATOM     27  C   UNL     1       4.864   2.954  32.493  0.00  0.00    +0.163 C 
BRANCH  27  28
ATOM     28  O   UNL     1       4.138   4.162  32.775  0.00  0.00    -0.388 OA
ATOM     29  H   UNL     1       3.588   4.389  32.022  0.00  0.00    +0.210 HD
ENDBRANCH  27  28
BRANCH  27  30
ATOM     30  C   UNL     1       6.308   3.045  33.016  0.00  0.00    +0.175 C 
BRANCH  30  31
ATOM     31  C   UNL     1       6.398   3.834  34.330  0.00  0.00    +0.176 C 
ATOM     32  O   UNL     1       6.286   5.248  34.012  0.00  0.00    -0.332 OA
ATOM     33  C   UNL     1       6.246   6.156  35.162  0.00  0.00    +0.277 C 
ATOM     34  C   UNL     1       7.471   5.921  36.080  0.00  0.00    +0.110 C 
ATOM     35  C   UNL     1       7.649   4.426  36.421  0.00  0.00    +0.143 C 
ATOM     36  C   UNL     1       7.675   3.574  35.151  0.00  0.00    +0.133 C 
BRANCH  36  37
ATOM     37  N   UNL     1       7.758   2.145  35.492  0.00  0.00    -0.308 N 
ATOM     38  H   UNL     1       6.977   1.731  35.982  0.00  0.00    +0.149 HD
ATOM     39  C   UNL     1       8.797   1.359  35.196  0.00  0.00    +0.210 C 
ATOM     40  C   UNL     1       9.981   2.027  34.472  0.00  0.00    +0.109 C 
ATOM     41  O   UNL     1       8.832   0.162  35.481  0.00  0.00    -0.276 OA
ENDBRANCH  36  37
BRANCH  33  42
ATOM     42  C   UNL     1       4.948   5.954  35.972  0.00  0.00    +0.414 C 
ATOM     43  O   UNL     1       4.900   6.282  37.157  0.00  0.00    -0.240 OA
ATOM     44  O   UNL     1       3.951   5.464  35.442  0.00  0.00    -0.240 OA
ENDBRANCH  33  42
BRANCH  35  45
ATOM     45  O   UNL     1       8.869   4.238  37.139  0.00  0.00    -0.390 OA
ATOM     46  H   UNL     1       8.703   4.322  38.081  0.00  0.00    +0.210 HD
ENDBRANCH  35  45
BRANCH  33  47
ATOM     47  O   UNL     1       6.303   7.517  34.663  0.00  0.00    -0.343 OA
ATOM     48  C   UNL     1       7.626   8.109  34.651  0.00  0.00    +0.198 C 
ENDBRANCH  33  47
ENDBRANCH  30  31
BRANCH  30  49
ATOM     49  O   UNL     1       7.161   3.642  32.019  0.00  0.00    -0.387 OA
ATOM     50  H   UNL     1       8.038   3.255  32.073  0.00  0.00    +0.210 HD
ENDBRANCH  30  49
ENDBRANCH  27  30
ENDBRANCH  26  27
ENDBRANCH   3  26
TORSDOF 25
