REMARK VINA RESULT:    -6.645      5.972     11.489
REMARK INTER + INTRA:         -13.651
REMARK INTER:                 -10.815
REMARK INTRA:                  -2.836
REMARK UNBOUND:                -2.150
REMARK  Name = lig_assembled_80.pdb
REMARK  16 active torsions:
REMARK  status: ('A' for Active; 'I' for Inactive)
REMARK    1  A    between atoms: _2  and  _10
REMARK    2  A    between atoms: _5  and  _24
REMARK    3  A    between atoms: _7  and  _8
REMARK    4  A    between atoms: _7  and  _24
REMARK    5  A    between atoms: _20  and  _40
REMARK    6  A    between atoms: _22  and  _28
REMARK    7  A    between atoms: _23  and  _27
REMARK    8  A    between atoms: _27  and  _28
REMARK    9  A    between atoms: _30  and  _31
REMARK   10  A    between atoms: _32  and  _33
REMARK   11  A    between atoms: _34  and  _36
REMARK   12  A    between atoms: _36  and  _37
REMARK   13  A    between atoms: _36  and  _38
REMARK   14  A    between atoms: _38  and  _39
REMARK   15  A    between atoms: _38  and  _40
REMARK   16  A    between atoms: _41  and  _43
REMARK                            x       y       z     vdW  Elec       q    Type
REMARK                         _______ _______ _______ _____ _____    ______ ____
ROOT
ATOM      1  C   UNL     1      -2.273   3.812  24.237  0.00  0.00    +0.141 C 
ENDROOT
BRANCH   1   4
ATOM      2  C   UNL     1      -0.555   4.606  25.825  0.00  0.00    +0.401 C 
ATOM      3  O   UNL     1      -0.876   5.793  25.725  0.00  0.00    -0.226 OA
ATOM      4  N   UNL     1      -1.150   3.614  25.162  0.00  0.00    -0.279 N 
ATOM      5  H   UNL     1      -0.809   2.674  25.303  0.00  0.00    +0.152 HD
BRANCH   2   6
ATOM      6  O   UNL     1       0.521   4.249  26.697  0.00  0.00    -0.444 OA
BRANCH   6   7
ATOM      7  C   UNL     1       0.066   3.281  27.646  0.00  0.00    +0.292 C 
BRANCH   7   9
ATOM      8  N   UNL     1      -0.480   1.039  26.781  0.00  0.00    -0.131 NA
ATOM      9  C   UNL     1       0.464   1.922  27.228  0.00  0.00    +0.120 A 
ATOM     10  C   UNL     1       1.705   1.325  27.191  0.00  0.00    +0.138 A 
ATOM     11  N   UNL     1       1.440   0.051  26.764  0.00  0.00    -0.239 N 
ATOM     12  N   UNL     1       0.127  -0.101  26.484  0.00  0.00    -0.065 NA
BRANCH  11  13
ATOM     13  C   UNL     1       2.366  -1.035  26.422  0.00  0.00    +0.195 C 
ATOM     14  C   UNL     1       3.117  -0.647  25.156  0.00  0.00    +0.041 C 
ATOM     15  C   UNL     1       3.870  -1.831  24.585  0.00  0.00    +0.039 C 
ATOM     16  C   UNL     1       5.202  -1.957  25.256  0.00  0.00    -0.026 A 
ATOM     17  C   UNL     1       5.335  -2.247  26.615  0.00  0.00    +0.037 A 
ATOM     18  C   UNL     1       6.617  -2.470  27.146  0.00  0.00    +0.023 A 
ATOM     19  C   UNL     1       7.760  -2.291  26.369  0.00  0.00    +0.002 A 
ATOM     20  C   UNL     1       7.632  -1.930  25.036  0.00  0.00    +0.000 A 
ATOM     21  N   UNL     1       4.291  -2.260  27.556  0.00  0.00    -0.284 N 
ATOM     22  H   UNL     1       4.572  -2.519  28.497  0.00  0.00    +0.155 HD
ATOM     23  C   UNL     1       6.363  -1.789  24.477  0.00  0.00    +0.005 A 
ATOM     24  C   UNL     1       3.175  -1.477  27.636  0.00  0.00    +0.242 C 
ATOM     25  O   UNL     1       2.794  -1.239  28.788  0.00  0.00    -0.273 OA
ENDBRANCH  11  13
ENDBRANCH   7   9
ENDBRANCH   6   7
ENDBRANCH   2   6
ENDBRANCH   1   4
BRANCH   1  26
ATOM     26  C   UNL     1      -1.940   3.335  22.828  0.00  0.00    +0.163 C 
BRANCH  26  27
ATOM     27  O   UNL     1      -3.060   2.628  22.270  0.00  0.00    -0.388 OA
ATOM     28  H   UNL     1      -3.269   1.872  22.823  0.00  0.00    +0.210 HD
ENDBRANCH  26  27
BRANCH  26  29
ATOM     29  C   UNL     1      -1.561   4.542  21.953  0.00  0.00    +0.175 C 
BRANCH  29  30
ATOM     30  C   UNL     1      -0.626   4.149  20.799  0.00  0.00    +0.176 C 
ATOM     31  O   UNL     1      -1.424   3.474  19.788  0.00  0.00    -0.332 OA
ATOM     32  C   UNL     1      -0.715   3.116  18.556  0.00  0.00    +0.277 C 
ATOM     33  C   UNL     1       0.542   2.272  18.880  0.00  0.00    +0.110 C 
ATOM     34  C   UNL     1       1.406   2.935  19.974  0.00  0.00    +0.143 C 
ATOM     35  C   UNL     1       0.568   3.267  21.209  0.00  0.00    +0.133 C 
BRANCH  35  36
ATOM     36  N   UNL     1       1.382   3.976  22.208  0.00  0.00    -0.308 N 
ATOM     37  H   UNL     1       1.627   4.939  22.021  0.00  0.00    +0.149 HD
ATOM     38  C   UNL     1       1.819   3.431  23.347  0.00  0.00    +0.210 C 
ATOM     39  C   UNL     1       1.451   1.956  23.591  0.00  0.00    +0.109 C 
ATOM     40  O   UNL     1       2.487   4.054  24.173  0.00  0.00    -0.276 OA
ENDBRANCH  35  36
BRANCH  32  41
ATOM     41  C   UNL     1      -0.300   4.381  17.777  0.00  0.00    +0.414 C 
ATOM     42  O   UNL     1       0.646   4.343  16.991  0.00  0.00    -0.240 OA
ATOM     43  O   UNL     1      -0.911   5.439  17.934  0.00  0.00    -0.240 OA
ENDBRANCH  32  41
BRANCH  34  44
ATOM     44  O   UNL     1       2.467   2.056  20.348  0.00  0.00    -0.390 OA
ATOM     45  H   UNL     1       3.106   2.001  19.633  0.00  0.00    +0.210 HD
ENDBRANCH  34  44
BRANCH  32  46
ATOM     46  O   UNL     1      -1.608   2.312  17.742  0.00  0.00    -0.343 OA
ATOM     47  C   UNL     1      -1.017   1.108  17.192  0.00  0.00    +0.198 C 
ENDBRANCH  32  46
ENDBRANCH  29  30
BRANCH  29  48
ATOM     48  O   UNL     1      -0.948   5.567  22.760  0.00  0.00    -0.387 OA
ATOM     49  H   UNL     1      -0.096   5.803  22.387  0.00  0.00    +0.210 HD
ENDBRANCH  29  48
ENDBRANCH  26  29
ENDBRANCH   1  26
TORSDOF 14
