REMARK VINA RESULT:    -6.270      5.084      6.456
REMARK INTER + INTRA:         -12.987
REMARK INTER:                 -11.184
REMARK INTRA:                  -1.802
REMARK UNBOUND:                -2.135
REMARK  Name = lig_assembled_51.pdb
REMARK  16 active torsions:
REMARK  status: ('A' for Active; 'I' for Inactive)
REMARK    1  A    between atoms: _2  and  _9
REMARK    2  A    between atoms: _4  and  _22
REMARK    3  A    between atoms: _6  and  _7
REMARK    4  A    between atoms: _6  and  _22
REMARK    5  A    between atoms: _18  and  _38
REMARK    6  A    between atoms: _20  and  _26
REMARK    7  A    between atoms: _21  and  _25
REMARK    8  A    between atoms: _25  and  _26
REMARK    9  A    between atoms: _28  and  _29
REMARK   10  A    between atoms: _30  and  _31
REMARK   11  A    between atoms: _32  and  _34
REMARK   12  A    between atoms: _34  and  _35
REMARK   13  A    between atoms: _34  and  _36
REMARK   14  A    between atoms: _36  and  _37
REMARK   15  A    between atoms: _36  and  _38
REMARK   16  A    between atoms: _39  and  _41
REMARK                            x       y       z     vdW  Elec       q    Type
REMARK                         _______ _______ _______ _____ _____    ______ ____
ROOT
ATOM      1  C   UNL     1       7.050   2.969  32.894  0.00  0.00    +0.163 C 
ENDROOT
BRANCH   1   2
ATOM      2  O   UNL     1       7.779   4.145  32.507  0.00  0.00    -0.388 OA
ATOM      3  H   UNL     1       8.720   3.994  32.631  0.00  0.00    +0.210 HD
ENDBRANCH   1   2
BRANCH   1   4
ATOM      4  C   UNL     1       5.769   2.856  32.075  0.00  0.00    +0.141 C 
BRANCH   4   7
ATOM      5  C   UNL     1       4.132   1.116  31.445  0.00  0.00    +0.401 C 
ATOM      6  O   UNL     1       3.306   1.919  31.003  0.00  0.00    -0.226 OA
ATOM      7  N   UNL     1       5.306   1.467  31.970  0.00  0.00    -0.279 N 
ATOM      8  H   UNL     1       5.912   0.736  32.315  0.00  0.00    +0.152 HD
BRANCH   5   9
ATOM      9  O   UNL     1       3.830  -0.281  31.406  0.00  0.00    -0.444 OA
BRANCH   9  10
ATOM     10  C   UNL     1       4.998  -1.032  31.753  0.00  0.00    +0.292 C 
BRANCH  10  12
ATOM     11  N   UNL     1       7.072  -1.561  30.511  0.00  0.00    -0.131 NA
ATOM     12  C   UNL     1       5.708  -1.468  30.538  0.00  0.00    +0.120 A 
ATOM     13  C   UNL     1       5.210  -1.834  29.308  0.00  0.00    +0.137 A 
ATOM     14  N   UNL     1       6.321  -2.135  28.569  0.00  0.00    -0.245 N 
ATOM     15  N   UNL     1       7.437  -1.969  29.304  0.00  0.00    -0.065 NA
BRANCH  14  16
ATOM     16  C   UNL     1       6.377  -2.572  27.172  0.00  0.00    +0.066 C 
ATOM     17  C   UNL     1       6.049  -4.088  27.074  0.00  0.00    +0.034 C 
ATOM     18  C   UNL     1       6.057  -4.557  25.609  0.00  0.00    -0.008 C 
ATOM     19  C   UNL     1       5.012  -3.755  24.815  0.00  0.00    +0.007 C 
ATOM     20  C   UNL     1       5.348  -2.256  24.864  0.00  0.00    -0.008 C 
ATOM     21  C   UNL     1       6.744  -2.028  24.265  0.00  0.00    +0.007 C 
ATOM     22  C   UNL     1       7.792  -2.820  25.062  0.00  0.00    -0.008 C 
ATOM     23  C   UNL     1       7.448  -4.316  25.006  0.00  0.00    +0.007 C 
ATOM     24  C   UNL     1       5.339  -1.782  26.327  0.00  0.00    +0.034 C 
ATOM     25  C   UNL     1       7.778  -2.350  26.527  0.00  0.00    +0.034 C 
ENDBRANCH  14  16
ENDBRANCH  10  12
ENDBRANCH   9  10
ENDBRANCH   5   9
ENDBRANCH   4   7
ENDBRANCH   1   4
BRANCH   1  26
ATOM     26  C   UNL     1       6.701   3.006  34.392  0.00  0.00    +0.175 C 
BRANCH  26  27
ATOM     27  C   UNL     1       6.251   4.402  34.846  0.00  0.00    +0.176 C 
ATOM     28  O   UNL     1       7.426   5.121  35.312  0.00  0.00    -0.332 OA
ATOM     29  C   UNL     1       7.204   6.520  35.690  0.00  0.00    +0.277 C 
ATOM     30  C   UNL     1       6.074   6.624  36.744  0.00  0.00    +0.110 C 
ATOM     31  C   UNL     1       4.815   5.848  36.306  0.00  0.00    +0.143 C 
ATOM     32  C   UNL     1       5.160   4.406  35.933  0.00  0.00    +0.133 C 
BRANCH  32  33
ATOM     33  N   UNL     1       3.968   3.702  35.435  0.00  0.00    -0.308 N 
ATOM     34  H   UNL     1       3.527   4.055  34.598  0.00  0.00    +0.149 HD
ATOM     35  C   UNL     1       3.430   2.627  36.018  0.00  0.00    +0.210 C 
ATOM     36  C   UNL     1       4.109   2.129  37.307  0.00  0.00    +0.109 C 
ATOM     37  O   UNL     1       2.439   2.049  35.570  0.00  0.00    -0.276 OA
ENDBRANCH  32  33
BRANCH  29  38
ATOM     38  C   UNL     1       6.837   7.369  34.455  0.00  0.00    +0.414 C 
ATOM     39  O   UNL     1       5.882   8.143  34.496  0.00  0.00    -0.240 OA
ATOM     40  O   UNL     1       7.495   7.279  33.418  0.00  0.00    -0.240 OA
ENDBRANCH  29  38
BRANCH  31  41
ATOM     41  O   UNL     1       3.859   5.843  37.367  0.00  0.00    -0.390 OA
ATOM     42  H   UNL     1       3.371   6.670  37.363  0.00  0.00    +0.210 HD
ENDBRANCH  31  41
BRANCH  29  43
ATOM     43  O   UNL     1       8.429   7.025  36.282  0.00  0.00    -0.343 OA
ATOM     44  C   UNL     1       8.268   7.662  37.574  0.00  0.00    +0.198 C 
ENDBRANCH  29  43
ENDBRANCH  26  27
BRANCH  26  45
ATOM     45  O   UNL     1       7.829   2.568  35.176  0.00  0.00    -0.387 OA
ATOM     46  H   UNL     1       7.594   1.774  35.660  0.00  0.00    +0.210 HD
ENDBRANCH  26  45
ENDBRANCH   1  26
TORSDOF 14
