REMARK VINA RESULT:    -6.207     13.934     17.778
REMARK INTER + INTRA:         -13.547
REMARK INTER:                 -10.854
REMARK INTRA:                  -2.694
REMARK UNBOUND:                -2.078
REMARK  Name = lig_assembled_14.pdb
REMARK  18 active torsions:
REMARK  status: ('A' for Active; 'I' for Inactive)
REMARK    1  A    between atoms: _2  and  _10
REMARK    2  A    between atoms: _3  and  _11
REMARK    3  A    between atoms: _5  and  _19
REMARK    4  A    between atoms: _7  and  _8
REMARK    5  A    between atoms: _7  and  _19
REMARK    6  A    between atoms: _10  and  _11
REMARK    7  A    between atoms: _15  and  _35
REMARK    8  A    between atoms: _17  and  _23
REMARK    9  A    between atoms: _18  and  _22
REMARK   10  A    between atoms: _22  and  _23
REMARK   11  A    between atoms: _25  and  _26
REMARK   12  A    between atoms: _27  and  _28
REMARK   13  A    between atoms: _29  and  _31
REMARK   14  A    between atoms: _31  and  _32
REMARK   15  A    between atoms: _31  and  _33
REMARK   16  A    between atoms: _33  and  _34
REMARK   17  A    between atoms: _33  and  _35
REMARK   18  A    between atoms: _36  and  _38
REMARK                            x       y       z     vdW  Elec       q    Type
REMARK                         _______ _______ _______ _____ _____    ______ ____
ROOT
ATOM      1  C   UNL     1       3.129   2.856  36.120  0.00  0.00    +0.163 C 
ENDROOT
BRANCH   1   2
ATOM      2  O   UNL     1       3.123   1.487  35.682  0.00  0.00    -0.388 OA
ATOM      3  H   UNL     1       2.303   1.068  35.954  0.00  0.00    +0.210 HD
ENDBRANCH   1   2
BRANCH   1   4
ATOM      4  C   UNL     1       4.551   3.442  36.074  0.00  0.00    +0.175 C 
BRANCH   4   5
ATOM      5  C   UNL     1       5.306   3.027  34.802  0.00  0.00    +0.176 C 
ATOM      6  O   UNL     1       6.012   1.788  35.086  0.00  0.00    -0.332 OA
ATOM      7  C   UNL     1       6.709   1.182  33.947  0.00  0.00    +0.277 C 
ATOM      8  C   UNL     1       7.679   2.201  33.300  0.00  0.00    +0.110 C 
ATOM      9  C   UNL     1       6.980   3.546  33.009  0.00  0.00    +0.143 C 
ATOM     10  C   UNL     1       6.285   4.085  34.260  0.00  0.00    +0.133 C 
BRANCH  10  11
ATOM     11  N   UNL     1       5.551   5.322  33.950  0.00  0.00    -0.308 N 
ATOM     12  H   UNL     1       4.772   5.259  33.310  0.00  0.00    +0.149 HD
ATOM     13  C   UNL     1       5.847   6.521  34.458  0.00  0.00    +0.210 C 
ATOM     14  C   UNL     1       7.057   6.587  35.409  0.00  0.00    +0.109 C 
ATOM     15  O   UNL     1       5.205   7.537  34.191  0.00  0.00    -0.276 OA
ENDBRANCH  10  11
BRANCH   7  16
ATOM     16  C   UNL     1       5.701   0.686  32.890  0.00  0.00    +0.414 C 
ATOM     17  O   UNL     1       6.048   0.550  31.718  0.00  0.00    -0.240 OA
ATOM     18  O   UNL     1       4.541   0.422  33.209  0.00  0.00    -0.240 OA
ENDBRANCH   7  16
BRANCH   9  19
ATOM     19  O   UNL     1       7.941   4.500  32.557  0.00  0.00    -0.390 OA
ATOM     20  H   UNL     1       8.751   4.047  32.310  0.00  0.00    +0.210 HD
ENDBRANCH   9  19
BRANCH   7  21
ATOM     21  O   UNL     1       7.487   0.062  34.443  0.00  0.00    -0.343 OA
ATOM     22  C   UNL     1       7.051  -0.470  35.719  0.00  0.00    +0.198 C 
ENDBRANCH   7  21
ENDBRANCH   4   5
BRANCH   4  23
ATOM     23  O   UNL     1       5.292   3.042  37.244  0.00  0.00    -0.387 OA
ATOM     24  H   UNL     1       5.792   3.790  37.578  0.00  0.00    +0.210 HD
ENDBRANCH   4  23
ENDBRANCH   1   4
BRANCH   1  25
ATOM     25  C   UNL     1       2.205   3.690  35.239  0.00  0.00    +0.141 C 
BRANCH  25  28
ATOM     26  C   UNL     1       2.206   3.253  32.807  0.00  0.00    +0.401 C 
ATOM     27  O   UNL     1       2.980   4.177  32.546  0.00  0.00    -0.226 OA
ATOM     28  N   UNL     1       1.786   2.958  34.038  0.00  0.00    -0.279 N 
ATOM     29  H   UNL     1       1.144   2.186  34.150  0.00  0.00    +0.152 HD
BRANCH  26  30
ATOM     30  O   UNL     1       1.713   2.438  31.741  0.00  0.00    -0.444 OA
BRANCH  30  31
ATOM     31  C   UNL     1       2.722   2.302  30.737  0.00  0.00    +0.292 C 
BRANCH  31  33
ATOM     32  N   UNL     1       1.575   3.745  29.086  0.00  0.00    -0.131 NA
ATOM     33  C   UNL     1       2.153   2.542  29.398  0.00  0.00    +0.120 A 
ATOM     34  C   UNL     1       2.074   1.708  28.305  0.00  0.00    +0.137 A 
ATOM     35  N   UNL     1       1.427   2.456  27.370  0.00  0.00    -0.250 N 
ATOM     36  N   UNL     1       1.136   3.682  27.838  0.00  0.00    -0.065 NA
BRANCH  35  37
ATOM     37  C   UNL     1       1.005   2.062  26.043  0.00  0.00    +0.160 C 
BRANCH  37  38
ATOM     38  C   UNL     1       2.022   2.477  24.973  0.00  0.00    +0.107 C 
BRANCH  38  39
ATOM     39  N   UNL     1       1.446   3.363  23.946  0.00  0.00    -0.301 NA
ATOM     40  C   UNL     1       1.881   4.757  24.079  0.00  0.00    +0.084 C 
ATOM     41  C   UNL     1       1.520   5.344  22.730  0.00  0.00    +0.017 C 
ATOM     42  C   UNL     1       1.836   4.226  21.753  0.00  0.00    +0.017 C 
ATOM     43  C   UNL     1       1.837   2.950  22.590  0.00  0.00    +0.084 C 
ENDBRANCH  38  39
ENDBRANCH  37  38
ENDBRANCH  35  37
ENDBRANCH  31  33
ENDBRANCH  30  31
ENDBRANCH  26  30
ENDBRANCH  25  28
ENDBRANCH   1  25
TORSDOF 16
