REMARK VINA RESULT:    -7.368      1.767      2.588
REMARK INTER + INTRA:         -14.581
REMARK INTER:                 -13.152
REMARK INTRA:                  -1.428
REMARK UNBOUND:                -1.828
REMARK  Name = lig_assembled_70.pdb
REMARK  16 active torsions:
REMARK  status: ('A' for Active; 'I' for Inactive)
REMARK    1  A    between atoms: _2  and  _10
REMARK    2  A    between atoms: _5  and  _22
REMARK    3  A    between atoms: _7  and  _8
REMARK    4  A    between atoms: _7  and  _22
REMARK    5  A    between atoms: _18  and  _38
REMARK    6  A    between atoms: _20  and  _26
REMARK    7  A    between atoms: _21  and  _25
REMARK    8  A    between atoms: _25  and  _26
REMARK    9  A    between atoms: _28  and  _29
REMARK   10  A    between atoms: _30  and  _31
REMARK   11  A    between atoms: _32  and  _34
REMARK   12  A    between atoms: _34  and  _35
REMARK   13  A    between atoms: _34  and  _36
REMARK   14  A    between atoms: _36  and  _37
REMARK   15  A    between atoms: _36  and  _38
REMARK   16  A    between atoms: _39  and  _41
REMARK                            x       y       z     vdW  Elec       q    Type
REMARK                         _______ _______ _______ _____ _____    ______ ____
ROOT
ATOM      1  C   UNL     1       6.565   2.663  33.494  0.00  0.00    +0.163 C 
ENDROOT
BRANCH   1   2
ATOM      2  O   UNL     1       6.444   2.226  32.130  0.00  0.00    -0.388 OA
ATOM      3  H   UNL     1       5.996   2.902  31.615  0.00  0.00    +0.210 HD
ENDBRANCH   1   2
BRANCH   1   4
ATOM      4  C   UNL     1       5.304   3.407  33.917  0.00  0.00    +0.141 C 
BRANCH   4   7
ATOM      5  C   UNL     1       3.156   3.403  32.695  0.00  0.00    +0.401 C 
ATOM      6  O   UNL     1       2.549   2.787  33.573  0.00  0.00    -0.226 OA
ATOM      7  N   UNL     1       4.447   3.730  32.770  0.00  0.00    -0.279 N 
ATOM      8  H   UNL     1       4.859   4.228  31.993  0.00  0.00    +0.152 HD
BRANCH   5   9
ATOM      9  O   UNL     1       2.455   3.798  31.513  0.00  0.00    -0.444 OA
BRANCH   9  10
ATOM     10  C   UNL     1       1.962   2.637  30.839  0.00  0.00    +0.292 C 
BRANCH  10  12
ATOM     11  N   UNL     1       0.693   3.928  29.146  0.00  0.00    -0.131 NA
ATOM     12  C   UNL     1       1.609   2.960  29.444  0.00  0.00    +0.121 A 
ATOM     13  C   UNL     1       2.080   2.413  28.274  0.00  0.00    +0.143 A 
ATOM     14  N   UNL     1       1.426   3.095  27.274  0.00  0.00    -0.218 N 
ATOM     15  N   UNL     1       0.583   3.998  27.824  0.00  0.00    -0.060 NA
BRANCH  14  16
ATOM     16  C   UNL     1       1.573   2.954  25.878  0.00  0.00    +0.086 A 
ATOM     17  C   UNL     1       1.657   1.696  25.303  0.00  0.00    +0.139 A 
ATOM     18  N   UNL     1       1.753   1.487  23.965  0.00  0.00    -0.253 NA
ATOM     19  C   UNL     1       1.757   2.558  23.150  0.00  0.00    +0.071 A 
ATOM     20  C   UNL     1       1.692   3.877  23.646  0.00  0.00    +0.002 A 
ATOM     21  C   UNL     1       1.698   4.973  22.765  0.00  0.00    +0.010 A 
ATOM     22  C   UNL     1       1.749   4.766  21.389  0.00  0.00    +0.001 A 
ATOM     23  C   UNL     1       1.805   3.469  20.893  0.00  0.00    +0.002 A 
ATOM     24  C   UNL     1       1.816   2.383  21.774  0.00  0.00    +0.028 A 
ATOM     25  C   UNL     1       1.607   4.063  25.032  0.00  0.00    +0.039 A 
ENDBRANCH  14  16
ENDBRANCH  10  12
ENDBRANCH   9  10
ENDBRANCH   5   9
ENDBRANCH   4   7
ENDBRANCH   1   4
BRANCH   1  26
ATOM     26  C   UNL     1       7.787   3.580  33.671  0.00  0.00    +0.175 C 
BRANCH  26  27
ATOM     27  C   UNL     1       7.828   4.226  35.063  0.00  0.00    +0.176 C 
ATOM     28  O   UNL     1       7.694   5.664  34.894  0.00  0.00    -0.332 OA
ATOM     29  C   UNL     1       7.606   6.443  36.132  0.00  0.00    +0.277 C 
ATOM     30  C   UNL     1       8.813   6.135  37.052  0.00  0.00    +0.110 C 
ATOM     31  C   UNL     1       9.015   4.616  37.237  0.00  0.00    +0.143 C 
ATOM     32  C   UNL     1       9.090   3.904  35.886  0.00  0.00    +0.133 C 
BRANCH  32  33
ATOM     33  N   UNL     1       9.195   2.449  36.075  0.00  0.00    -0.308 N 
ATOM     34  H   UNL     1       8.406   1.968  36.485  0.00  0.00    +0.149 HD
ATOM     35  C   UNL     1      10.265   1.722  35.742  0.00  0.00    +0.210 C 
ATOM     36  C   UNL     1      11.461   2.488  35.145  0.00  0.00    +0.109 C 
ATOM     37  O   UNL     1      10.319   0.502  35.899  0.00  0.00    -0.276 OA
ENDBRANCH  32  33
BRANCH  29  38
ATOM     38  C   UNL     1       6.294   6.132  36.882  0.00  0.00    +0.414 C 
ATOM     39  O   UNL     1       6.267   6.131  38.112  0.00  0.00    -0.240 OA
ATOM     40  O   UNL     1       5.262   5.883  36.257  0.00  0.00    -0.240 OA
ENDBRANCH  29  38
BRANCH  31  41
ATOM     41  O   UNL     1      10.221   4.376  37.963  0.00  0.00    -0.390 OA
ATOM     42  H   UNL     1      10.529   3.483  37.787  0.00  0.00    +0.210 HD
ENDBRANCH  31  41
BRANCH  29  43
ATOM     43  O   UNL     1       7.646   7.850  35.781  0.00  0.00    -0.343 OA
ATOM     44  C   UNL     1       7.450   8.136  34.373  0.00  0.00    +0.198 C 
ENDBRANCH  29  43
ENDBRANCH  26  27
BRANCH  26  45
ATOM     45  O   UNL     1       7.796   4.599  32.650  0.00  0.00    -0.387 OA
ATOM     46  H   UNL     1       8.576   5.148  32.753  0.00  0.00    +0.210 HD
ENDBRANCH  26  45
ENDBRANCH   1  26
TORSDOF 14
