REMARK VINA RESULT:    -5.462      2.914      4.825
REMARK INTER + INTRA:         -12.903
REMARK INTER:                 -10.809
REMARK INTRA:                  -2.094
REMARK UNBOUND:                -2.970
REMARK  Name = lig_assembled_22.pdb
REMARK  20 active torsions:
REMARK  status: ('A' for Active; 'I' for Inactive)
REMARK    1  A    between atoms: _2  and  _9
REMARK    2  A    between atoms: _4  and  _18
REMARK    3  A    between atoms: _5  and  _9
REMARK    4  A    between atoms: _5  and  _12
REMARK    5  A    between atoms: _6  and  _7
REMARK    6  A    between atoms: _6  and  _18
REMARK    7  A    between atoms: _9  and  _10
REMARK    8  A    between atoms: _9  and  _11
REMARK    9  A    between atoms: _14  and  _34
REMARK   10  A    between atoms: _16  and  _22
REMARK   11  A    between atoms: _17  and  _21
REMARK   12  A    between atoms: _21  and  _22
REMARK   13  A    between atoms: _24  and  _25
REMARK   14  A    between atoms: _26  and  _27
REMARK   15  A    between atoms: _28  and  _30
REMARK   16  A    between atoms: _30  and  _31
REMARK   17  A    between atoms: _30  and  _32
REMARK   18  A    between atoms: _32  and  _33
REMARK   19  A    between atoms: _32  and  _34
REMARK   20  A    between atoms: _35  and  _37
REMARK                            x       y       z     vdW  Elec       q    Type
REMARK                         _______ _______ _______ _____ _____    ______ ____
ROOT
ATOM      1  C   UNL     1      17.501   2.452  26.305  0.00  0.00    +0.163 C 
ENDROOT
BRANCH   1   2
ATOM      2  O   UNL     1      18.579   2.982  25.516  0.00  0.00    -0.388 OA
ATOM      3  H   UNL     1      18.890   2.309  24.906  0.00  0.00    +0.210 HD
ENDBRANCH   1   2
BRANCH   1   4
ATOM      4  C   UNL     1      17.789   2.660  27.788  0.00  0.00    +0.141 C 
BRANCH   4   7
ATOM      5  C   UNL     1      18.826   4.874  28.145  0.00  0.00    +0.401 C 
ATOM      6  O   UNL     1      19.958   4.500  27.832  0.00  0.00    -0.226 OA
ATOM      7  N   UNL     1      17.755   4.080  28.159  0.00  0.00    -0.279 N 
ATOM      8  H   UNL     1      16.869   4.478  28.440  0.00  0.00    +0.152 HD
BRANCH   5   9
ATOM      9  O   UNL     1      18.626   6.238  28.525  0.00  0.00    -0.444 OA
BRANCH   9  10
ATOM     10  C   UNL     1      19.341   6.508  29.733  0.00  0.00    +0.292 C 
BRANCH  10  12
ATOM     11  N   UNL     1      18.077   8.592  30.130  0.00  0.00    -0.131 NA
ATOM     12  C   UNL     1      18.555   7.402  30.603  0.00  0.00    +0.120 A 
ATOM     13  C   UNL     1      18.176   7.259  31.921  0.00  0.00    +0.138 A 
ATOM     14  N   UNL     1      17.468   8.396  32.192  0.00  0.00    -0.235 N 
ATOM     15  N   UNL     1      17.419   9.193  31.107  0.00  0.00    -0.064 NA
BRANCH  14  16
ATOM     16  C   UNL     1      16.830   8.817  33.441  0.00  0.00    +0.155 C 
ATOM     17  C   UNL     1      16.907  10.346  33.648  0.00  0.00    +0.048 C 
ATOM     18  C   UNL     1      17.546   8.130  34.618  0.00  0.00    +0.048 C 
BRANCH  16  19
ATOM     19  C   UNL     1      15.349   8.426  33.441  0.00  0.00    +0.332 C 
ATOM     20  O   UNL     1      14.891   7.468  34.052  0.00  0.00    -0.248 OA
BRANCH  19  21
ATOM     21  O   UNL     1      14.540   9.223  32.703  0.00  0.00    -0.479 OA
ATOM     22  H   UNL     1      14.882   9.506  31.833  0.00  0.00    +0.295 HD
ENDBRANCH  19  21
ENDBRANCH  16  19
ENDBRANCH  14  16
ENDBRANCH  10  12
ENDBRANCH   9  10
ENDBRANCH   5   9
ENDBRANCH   4   7
ENDBRANCH   1   4
BRANCH   1  23
ATOM     23  C   UNL     1      17.300   0.953  26.026  0.00  0.00    +0.175 C 
BRANCH  23  24
ATOM     24  C   UNL     1      17.874   0.537  24.663  0.00  0.00    +0.176 C 
ATOM     25  O   UNL     1      17.369   1.465  23.664  0.00  0.00    -0.332 OA
ATOM     26  C   UNL     1      17.898   1.286  22.308  0.00  0.00    +0.277 C 
ATOM     27  C   UNL     1      17.677  -0.169  21.829  0.00  0.00    +0.110 C 
ATOM     28  C   UNL     1      18.170  -1.193  22.873  0.00  0.00    +0.143 C 
ATOM     29  C   UNL     1      17.560  -0.912  24.247  0.00  0.00    +0.133 C 
BRANCH  29  30
ATOM     30  N   UNL     1      18.103  -1.840  25.251  0.00  0.00    -0.308 N 
ATOM     31  H   UNL     1      19.087  -1.772  25.474  0.00  0.00    +0.149 HD
ATOM     32  C   UNL     1      17.382  -2.767  25.888  0.00  0.00    +0.210 C 
ATOM     33  C   UNL     1      15.893  -2.863  25.508  0.00  0.00    +0.109 C 
ATOM     34  O   UNL     1      17.861  -3.521  26.736  0.00  0.00    -0.276 OA
ENDBRANCH  29  30
BRANCH  26  35
ATOM     35  C   UNL     1      19.403   1.623  22.259  0.00  0.00    +0.414 C 
ATOM     36  O   UNL     1      19.914   2.307  23.145  0.00  0.00    -0.240 OA
ATOM     37  O   UNL     1      20.105   1.210  21.335  0.00  0.00    -0.240 OA
ENDBRANCH  26  35
BRANCH  26  38
ATOM     38  O   UNL     1      17.170   2.175  21.422  0.00  0.00    -0.343 OA
ATOM     39  C   UNL     1      16.776   3.440  22.011  0.00  0.00    +0.198 C 
ENDBRANCH  26  38
BRANCH  28  40
ATOM     40  O   UNL     1      17.811  -2.513  22.460  0.00  0.00    -0.390 OA
ATOM     41  H   UNL     1      18.088  -3.144  23.128  0.00  0.00    +0.210 HD
ENDBRANCH  28  40
ENDBRANCH  23  24
BRANCH  23  42
ATOM     42  O   UNL     1      15.900   0.617  26.099  0.00  0.00    -0.387 OA
ATOM     43  H   UNL     1      15.560   0.467  25.214  0.00  0.00    +0.210 HD
ENDBRANCH  23  42
ENDBRANCH   1  23
TORSDOF 16
