REMARK VINA RESULT:    -6.648      1.365      3.657
REMARK INTER + INTRA:         -13.919
REMARK INTER:                 -12.465
REMARK INTRA:                  -1.454
REMARK UNBOUND:                -2.413
REMARK  Name = lig_assembled_8.pdb
REMARK  16 active torsions:
REMARK  status: ('A' for Active; 'I' for Inactive)
REMARK    1  A    between atoms: _2  and  _9
REMARK    2  A    between atoms: _4  and  _18
REMARK    3  A    between atoms: _6  and  _7
REMARK    4  A    between atoms: _6  and  _18
REMARK    5  A    between atoms: _14  and  _34
REMARK    6  A    between atoms: _16  and  _22
REMARK    7  A    between atoms: _17  and  _21
REMARK    8  A    between atoms: _21  and  _22
REMARK    9  A    between atoms: _24  and  _25
REMARK   10  A    between atoms: _26  and  _27
REMARK   11  A    between atoms: _28  and  _30
REMARK   12  A    between atoms: _30  and  _31
REMARK   13  A    between atoms: _30  and  _32
REMARK   14  A    between atoms: _32  and  _33
REMARK   15  A    between atoms: _32  and  _34
REMARK   16  A    between atoms: _35  and  _37
REMARK                            x       y       z     vdW  Elec       q    Type
REMARK                         _______ _______ _______ _____ _____    ______ ____
ROOT
ATOM      1  C   UNL     1       3.494   3.186  32.372  0.00  0.00    +0.163 C 
ENDROOT
BRANCH   1   2
ATOM      2  O   UNL     1       3.939   3.256  31.007  0.00  0.00    -0.388 OA
ATOM      3  H   UNL     1       3.713   2.440  30.554  0.00  0.00    +0.210 HD
ENDBRANCH   1   2
BRANCH   1   4
ATOM      4  C   UNL     1       2.035   3.620  32.468  0.00  0.00    +0.141 C 
BRANCH   4   7
ATOM      5  C   UNL     1       0.191   4.261  30.954  0.00  0.00    +0.401 C 
ATOM      6  O   UNL     1      -0.590   4.535  31.868  0.00  0.00    -0.226 OA
ATOM      7  N   UNL     1       1.435   3.821  31.143  0.00  0.00    -0.279 N 
ATOM      8  H   UNL     1       1.997   3.613  30.329  0.00  0.00    +0.152 HD
BRANCH   5   9
ATOM      9  O   UNL     1      -0.244   4.413  29.600  0.00  0.00    -0.444 OA
BRANCH   9  10
ATOM     10  C   UNL     1      -0.022   3.193  28.887  0.00  0.00    +0.292 C 
BRANCH  10  12
ATOM     11  N   UNL     1       2.095   3.699  27.724  0.00  0.00    -0.131 NA
ATOM     12  C   UNL     1       0.760   3.451  27.664  0.00  0.00    +0.121 A 
ATOM     13  C   UNL     1       0.359   3.486  26.349  0.00  0.00    +0.143 A 
ATOM     14  N   UNL     1       1.507   3.742  25.619  0.00  0.00    -0.219 N 
ATOM     15  N   UNL     1       2.534   3.878  26.487  0.00  0.00    -0.060 NA
BRANCH  14  16
ATOM     16  C   UNL     1       1.646   3.837  24.199  0.00  0.00    +0.081 A 
ATOM     17  C   UNL     1       1.604   5.122  23.612  0.00  0.00    +0.029 A 
ATOM     18  C   UNL     1       1.709   5.299  22.230  0.00  0.00    +0.002 A 
ATOM     19  C   UNL     1       1.861   4.200  21.400  0.00  0.00    +0.001 A 
ATOM     20  C   UNL     1       1.913   2.924  21.955  0.00  0.00    +0.017 A 
ATOM     21  C   UNL     1       1.810   2.728  23.346  0.00  0.00    +0.043 A 
ATOM     22 BR   UNL     1       1.915   0.897  23.865  0.00  0.00    -0.048 Br
ENDBRANCH  14  16
ENDBRANCH  10  12
ENDBRANCH   9  10
ENDBRANCH   5   9
ENDBRANCH   4   7
ENDBRANCH   1   4
BRANCH   1  23
ATOM     23  C   UNL     1       4.358   4.079  33.278  0.00  0.00    +0.175 C 
BRANCH  23  24
ATOM     24  C   UNL     1       5.722   3.444  33.585  0.00  0.00    +0.176 C 
ATOM     25  O   UNL     1       5.490   2.085  34.045  0.00  0.00    -0.332 OA
ATOM     26  C   UNL     1       6.693   1.283  34.287  0.00  0.00    +0.277 C 
ATOM     27  C   UNL     1       7.642   2.013  35.269  0.00  0.00    +0.110 C 
ATOM     28  C   UNL     1       7.893   3.473  34.838  0.00  0.00    +0.143 C 
ATOM     29  C   UNL     1       6.575   4.213  34.611  0.00  0.00    +0.133 C 
BRANCH  29  30
ATOM     30  N   UNL     1       6.827   5.576  34.117  0.00  0.00    -0.308 N 
ATOM     31  H   UNL     1       7.239   5.677  33.200  0.00  0.00    +0.149 HD
ATOM     32  C   UNL     1       6.549   6.689  34.802  0.00  0.00    +0.210 C 
ATOM     33  C   UNL     1       5.947   6.501  36.208  0.00  0.00    +0.109 C 
ATOM     34  O   UNL     1       6.758   7.818  34.357  0.00  0.00    -0.276 OA
ENDBRANCH  29  30
BRANCH  26  35
ATOM     35  C   UNL     1       7.437   1.001  32.965  0.00  0.00    +0.414 C 
ATOM     36  O   UNL     1       8.594   1.389  32.810  0.00  0.00    -0.240 OA
ATOM     37  O   UNL     1       6.880   0.386  32.054  0.00  0.00    -0.240 OA
ENDBRANCH  26  35
BRANCH  28  38
ATOM     38  O   UNL     1       8.646   4.150  35.846  0.00  0.00    -0.390 OA
ATOM     39  H   UNL     1       9.363   4.640  35.436  0.00  0.00    +0.210 HD
ENDBRANCH  28  38
BRANCH  26  40
ATOM     40  O   UNL     1       6.283   0.030  34.893  0.00  0.00    -0.343 OA
ATOM     41  C   UNL     1       5.486   0.164  36.097  0.00  0.00    +0.198 C 
ENDBRANCH  26  40
ENDBRANCH  23  24
BRANCH  23  42
ATOM     42  O   UNL     1       3.657   4.367  34.505  0.00  0.00    -0.387 OA
ATOM     43  H   UNL     1       4.291   4.486  35.216  0.00  0.00    +0.210 HD
ENDBRANCH  23  42
ENDBRANCH   1  23
TORSDOF 14
