REMARK VINA RESULT:    -6.415      4.698      6.953
REMARK INTER + INTRA:         -13.671
REMARK INTER:                 -12.184
REMARK INTRA:                  -1.488
REMARK UNBOUND:                -2.568
REMARK  Name = lig_assembled_27.pdb
REMARK  16 active torsions:
REMARK  status: ('A' for Active; 'I' for Inactive)
REMARK    1  A    between atoms: _2  and  _9
REMARK    2  A    between atoms: _4  and  _18
REMARK    3  A    between atoms: _6  and  _7
REMARK    4  A    between atoms: _6  and  _18
REMARK    5  A    between atoms: _14  and  _34
REMARK    6  A    between atoms: _16  and  _22
REMARK    7  A    between atoms: _17  and  _21
REMARK    8  A    between atoms: _21  and  _22
REMARK    9  A    between atoms: _24  and  _25
REMARK   10  A    between atoms: _26  and  _27
REMARK   11  A    between atoms: _28  and  _30
REMARK   12  A    between atoms: _30  and  _31
REMARK   13  A    between atoms: _30  and  _32
REMARK   14  A    between atoms: _32  and  _33
REMARK   15  A    between atoms: _32  and  _34
REMARK   16  A    between atoms: _35  and  _37
REMARK                            x       y       z     vdW  Elec       q    Type
REMARK                         _______ _______ _______ _____ _____    ______ ____
ROOT
ATOM      1  C   UNL     1       3.052   3.023  32.242  0.00  0.00    +0.163 C 
ENDROOT
BRANCH   1   2
ATOM      2  O   UNL     1       3.531   3.274  30.911  0.00  0.00    -0.388 OA
ATOM      3  H   UNL     1       4.142   4.015  30.925  0.00  0.00    +0.210 HD
ENDBRANCH   1   2
BRANCH   1   4
ATOM      4  C   UNL     1       1.570   3.371  32.337  0.00  0.00    +0.141 C 
BRANCH   4   7
ATOM      5  C   UNL     1      -0.139   4.287  30.805  0.00  0.00    +0.401 C 
ATOM      6  O   UNL     1      -0.783   4.838  31.701  0.00  0.00    -0.226 OA
ATOM      7  N   UNL     1       0.970   3.575  31.013  0.00  0.00    -0.279 N 
ATOM      8  H   UNL     1       1.422   3.153  30.214  0.00  0.00    +0.152 HD
BRANCH   5   9
ATOM      9  O   UNL     1      -0.592   4.400  29.453  0.00  0.00    -0.444 OA
BRANCH   9  10
ATOM     10  C   UNL     1      -0.334   3.177  28.758  0.00  0.00    +0.292 C 
BRANCH  10  12
ATOM     11  N   UNL     1       1.840   3.632  27.667  0.00  0.00    -0.131 NA
ATOM     12  C   UNL     1       0.494   3.430  27.564  0.00  0.00    +0.121 A 
ATOM     13  C   UNL     1       0.129   3.504  26.241  0.00  0.00    +0.143 A 
ATOM     14  N   UNL     1       1.299   3.747  25.560  0.00  0.00    -0.220 N 
ATOM     15  N   UNL     1       2.322   3.826  26.446  0.00  0.00    -0.060 NA
BRANCH  14  16
ATOM     16  C   UNL     1       1.500   3.904  24.164  0.00  0.00    +0.068 A 
ATOM     17  C   UNL     1       1.623   5.192  23.620  0.00  0.00    +0.028 A 
ATOM     18  C   UNL     1       1.818   5.360  22.246  0.00  0.00    +0.003 A 
ATOM     19  C   UNL     1       1.890   4.247  21.410  0.00  0.00    +0.020 A 
ATOM     20  C   UNL     1       1.770   2.969  21.949  0.00  0.00    +0.043 A 
ATOM     21 CL   UNL     1       1.861   1.595  20.916  0.00  0.00    -0.083 Cl
ATOM     22  C   UNL     1       1.576   2.788  23.320  0.00  0.00    +0.047 A 
ENDBRANCH  14  16
ENDBRANCH  10  12
ENDBRANCH   9  10
ENDBRANCH   5   9
ENDBRANCH   4   7
ENDBRANCH   1   4
BRANCH   1  23
ATOM     23  C   UNL     1       3.840   3.846  33.275  0.00  0.00    +0.175 C 
BRANCH  23  24
ATOM     24  C   UNL     1       5.243   3.273  33.521  0.00  0.00    +0.176 C 
ATOM     25  O   UNL     1       5.092   1.902  33.982  0.00  0.00    -0.332 OA
ATOM     26  C   UNL     1       6.339   1.154  34.169  0.00  0.00    +0.277 C 
ATOM     27  C   UNL     1       7.294   1.923  35.116  0.00  0.00    +0.110 C 
ATOM     28  C   UNL     1       7.461   3.395  34.685  0.00  0.00    +0.143 C 
ATOM     29  C   UNL     1       6.102   4.075  34.517  0.00  0.00    +0.133 C 
BRANCH  29  30
ATOM     30  N   UNL     1       6.272   5.450  34.022  0.00  0.00    -0.308 N 
ATOM     31  H   UNL     1       6.633   5.574  33.086  0.00  0.00    +0.149 HD
ATOM     32  C   UNL     1       5.980   6.546  34.728  0.00  0.00    +0.210 C 
ATOM     33  C   UNL     1       5.456   6.325  36.159  0.00  0.00    +0.109 C 
ATOM     34  O   UNL     1       6.119   7.686  34.282  0.00  0.00    -0.276 OA
ENDBRANCH  29  30
BRANCH  26  35
ATOM     35  C   UNL     1       7.040   0.913  32.816  0.00  0.00    +0.414 C 
ATOM     36  O   UNL     1       6.376   0.773  31.790  0.00  0.00    -0.240 OA
ATOM     37  O   UNL     1       8.269   0.858  32.751  0.00  0.00    -0.240 OA
ENDBRANCH  26  35
BRANCH  28  38
ATOM     38  O   UNL     1       8.223   4.101  35.665  0.00  0.00    -0.390 OA
ATOM     39  H   UNL     1       8.914   3.529  36.006  0.00  0.00    +0.210 HD
ENDBRANCH  28  38
BRANCH  26  40
ATOM     40  O   UNL     1       6.012  -0.118  34.784  0.00  0.00    -0.343 OA
ATOM     41  C   UNL     1       6.605  -0.338  36.089  0.00  0.00    +0.198 C 
ENDBRANCH  26  40
ENDBRANCH  23  24
BRANCH  23  42
ATOM     42  O   UNL     1       3.108   3.918  34.515  0.00  0.00    -0.387 OA
ATOM     43  H   UNL     1       2.185   4.109  34.332  0.00  0.00    +0.210 HD
ENDBRANCH  23  42
ENDBRANCH   1  23
TORSDOF 14
