REMARK VINA RESULT:    -6.073     13.732     18.154
REMARK INTER + INTRA:         -13.377
REMARK INTER:                 -11.391
REMARK INTRA:                  -1.985
REMARK UNBOUND:                -2.511
REMARK  Name = lig_assembled_6.pdb
REMARK  17 active torsions:
REMARK  status: ('A' for Active; 'I' for Inactive)
REMARK    1  A    between atoms: _2  and  _10
REMARK    2  A    between atoms: _3  and  _13
REMARK    3  A    between atoms: _5  and  _21
REMARK    4  A    between atoms: _7  and  _8
REMARK    5  A    between atoms: _7  and  _21
REMARK    6  A    between atoms: _17  and  _37
REMARK    7  A    between atoms: _19  and  _25
REMARK    8  A    between atoms: _20  and  _24
REMARK    9  A    between atoms: _24  and  _25
REMARK   10  A    between atoms: _27  and  _28
REMARK   11  A    between atoms: _29  and  _30
REMARK   12  A    between atoms: _31  and  _33
REMARK   13  A    between atoms: _33  and  _34
REMARK   14  A    between atoms: _33  and  _35
REMARK   15  A    between atoms: _35  and  _36
REMARK   16  A    between atoms: _35  and  _37
REMARK   17  A    between atoms: _38  and  _40
REMARK                            x       y       z     vdW  Elec       q    Type
REMARK                         _______ _______ _______ _____ _____    ______ ____
ROOT
ATOM      1  C   UNL     1      18.460   5.800  23.812  0.00  0.00    +0.163 C 
ENDROOT
BRANCH   1   2
ATOM      2  O   UNL     1      17.429   5.830  22.812  0.00  0.00    -0.388 OA
ATOM      3  H   UNL     1      17.804   5.605  21.957  0.00  0.00    +0.210 HD
ENDBRANCH   1   2
BRANCH   1   4
ATOM      4  C   UNL     1      19.488   6.892  23.534  0.00  0.00    +0.141 C 
BRANCH   4   7
ATOM      5  C   UNL     1      20.814   7.747  25.436  0.00  0.00    +0.401 C 
ATOM      6  O   UNL     1      21.778   7.010  25.217  0.00  0.00    -0.226 OA
ATOM      7  N   UNL     1      19.700   7.755  24.703  0.00  0.00    -0.279 N 
ATOM      8  H   UNL     1      18.959   8.389  24.967  0.00  0.00    +0.152 HD
BRANCH   5   9
ATOM      9  O   UNL     1      20.871   8.655  26.539  0.00  0.00    -0.444 OA
BRANCH   9  10
ATOM     10  C   UNL     1      19.843   9.640  26.401  0.00  0.00    +0.292 C 
BRANCH  10  12
ATOM     11  N   UNL     1      18.223  10.824  27.851  0.00  0.00    -0.131 NA
ATOM     12  C   UNL     1      19.123   9.813  27.676  0.00  0.00    +0.121 A 
ATOM     13  C   UNL     1      19.190   9.068  28.831  0.00  0.00    +0.143 A 
ATOM     14  N   UNL     1      18.279   9.648  29.683  0.00  0.00    -0.220 N 
ATOM     15  N   UNL     1      17.720  10.722  29.074  0.00  0.00    -0.060 NA
BRANCH  14  16
ATOM     16  C   UNL     1      17.890   9.234  30.985  0.00  0.00    +0.067 A 
ATOM     17  C   UNL     1      17.839   7.872  31.317  0.00  0.00    +0.034 A 
ATOM     18  C   UNL     1      17.396   7.474  32.583  0.00  0.00    +0.086 A 
ATOM     19  C   UNL     1      17.006   8.439  33.519  0.00  0.00    +0.273 A 
ATOM     20  C   UNL     1      17.079   9.802  33.207  0.00  0.00    +0.086 A 
ATOM     21  C   UNL     1      17.523  10.197  31.940  0.00  0.00    +0.034 A 
BRANCH  19  22
ATOM     22  N   UNL     1      16.501   8.013  34.831  0.00  0.00    +0.080 N 
ATOM     23  O   UNL     1      16.169   6.826  34.962  0.00  0.00    +0.041 OA
ATOM     24  O   UNL     1      16.429   8.866  35.726  0.00  0.00    -0.576 OA
ENDBRANCH  19  22
ENDBRANCH  14  16
ENDBRANCH  10  12
ENDBRANCH   9  10
ENDBRANCH   5   9
ENDBRANCH   4   7
ENDBRANCH   1   4
BRANCH   1  25
ATOM     25  C   UNL     1      19.161   4.431  23.839  0.00  0.00    +0.175 C 
BRANCH  25  26
ATOM     26  C   UNL     1      18.395   3.407  24.691  0.00  0.00    +0.176 C 
ATOM     27  O   UNL     1      19.266   2.989  25.778  0.00  0.00    -0.332 OA
ATOM     28  C   UNL     1      18.663   2.086  26.762  0.00  0.00    +0.277 C 
ATOM     29  C   UNL     1      18.068   0.840  26.060  0.00  0.00    +0.110 C 
ATOM     30  C   UNL     1      17.159   1.234  24.876  0.00  0.00    +0.143 C 
ATOM     31  C   UNL     1      17.886   2.177  23.917  0.00  0.00    +0.133 C 
BRANCH  31  32
ATOM     32  N   UNL     1      16.982   2.614  22.841  0.00  0.00    -0.308 N 
ATOM     33  H   UNL     1      16.204   3.208  23.090  0.00  0.00    +0.149 HD
ATOM     34  C   UNL     1      17.123   2.275  21.556  0.00  0.00    +0.210 C 
ATOM     35  C   UNL     1      18.303   1.347  21.213  0.00  0.00    +0.109 C 
ATOM     36  O   UNL     1      16.359   2.668  20.674  0.00  0.00    -0.276 OA
ENDBRANCH  31  32
BRANCH  28  37
ATOM     37  C   UNL     1      17.556   2.806  27.559  0.00  0.00    +0.414 C 
ATOM     38  O   UNL     1      17.845   3.501  28.533  0.00  0.00    -0.240 OA
ATOM     39  O   UNL     1      16.374   2.692  27.230  0.00  0.00    -0.240 OA
ENDBRANCH  28  37
BRANCH  30  40
ATOM     40  O   UNL     1      16.756   0.061  24.168  0.00  0.00    -0.390 OA
ATOM     41  H   UNL     1      16.503  -0.621  24.794  0.00  0.00    +0.210 HD
ENDBRANCH  30  40
BRANCH  28  42
ATOM     42  O   UNL     1      19.708   1.645  27.667  0.00  0.00    -0.343 OA
ATOM     43  C   UNL     1      20.995   2.283  27.472  0.00  0.00    +0.198 C 
ENDBRANCH  28  42
ENDBRANCH  25  26
BRANCH  25  44
ATOM     44  O   UNL     1      20.510   4.572  24.327  0.00  0.00    -0.387 OA
ATOM     45  H   UNL     1      21.126   4.473  23.597  0.00  0.00    +0.210 HD
ENDBRANCH  25  44
ENDBRANCH   1  25
TORSDOF 15
