REMARK VINA RESULT:    -6.199     14.458     18.759
REMARK INTER + INTRA:         -14.458
REMARK INTER:                 -11.862
REMARK INTRA:                  -2.597
REMARK UNBOUND:                -2.643
REMARK  Name = lig_assembled_21.pdb
REMARK  20 active torsions:
REMARK  status: ('A' for Active; 'I' for Inactive)
REMARK    1  A    between atoms: _2  and  _9
REMARK    2  A    between atoms: _4  and  _23
REMARK    3  A    between atoms: _6  and  _7
REMARK    4  A    between atoms: _6  and  _23
REMARK    5  A    between atoms: _9  and  _10
REMARK    6  A    between atoms: _11  and  _18
REMARK    7  A    between atoms: _12  and  _13
REMARK    8  A    between atoms: _12  and  _18
REMARK    9  A    between atoms: _19  and  _39
REMARK   10  A    between atoms: _21  and  _27
REMARK   11  A    between atoms: _22  and  _26
REMARK   12  A    between atoms: _26  and  _27
REMARK   13  A    between atoms: _29  and  _30
REMARK   14  A    between atoms: _31  and  _32
REMARK   15  A    between atoms: _33  and  _35
REMARK   16  A    between atoms: _35  and  _36
REMARK   17  A    between atoms: _35  and  _37
REMARK   18  A    between atoms: _37  and  _38
REMARK   19  A    between atoms: _37  and  _39
REMARK   20  A    between atoms: _40  and  _42
REMARK                            x       y       z     vdW  Elec       q    Type
REMARK                         _______ _______ _______ _____ _____    ______ ____
ROOT
ATOM      1  C   UNL     1      19.153   6.354  24.001  0.00  0.00    +0.163 C 
ENDROOT
BRANCH   1   2
ATOM      2  O   UNL     1      18.020   6.366  23.118  0.00  0.00    -0.388 OA
ATOM      3  H   UNL     1      17.225   6.154  23.614  0.00  0.00    +0.210 HD
ENDBRANCH   1   2
BRANCH   1   4
ATOM      4  C   UNL     1      19.762   4.944  24.097  0.00  0.00    +0.175 C 
BRANCH   4   5
ATOM      5  C   UNL     1      19.023   4.064  25.116  0.00  0.00    +0.176 C 
ATOM      6  O   UNL     1      19.988   3.628  26.113  0.00  0.00    -0.332 OA
ATOM      7  C   UNL     1      19.439   2.859  27.233  0.00  0.00    +0.277 C 
ATOM      8  C   UNL     1      18.639   1.640  26.712  0.00  0.00    +0.110 C 
ATOM      9  C   UNL     1      17.621   2.050  25.626  0.00  0.00    +0.143 C 
ATOM     10  C   UNL     1      18.299   2.847  24.512  0.00  0.00    +0.133 C 
BRANCH  10  11
ATOM     11  N   UNL     1      17.304   3.306  23.529  0.00  0.00    -0.308 N 
ATOM     12  H   UNL     1      16.633   4.000  23.825  0.00  0.00    +0.149 HD
ATOM     13  C   UNL     1      17.231   2.865  22.270  0.00  0.00    +0.210 C 
ATOM     14  C   UNL     1      18.252   1.788  21.856  0.00  0.00    +0.109 C 
ATOM     15  O   UNL     1      16.397   3.278  21.464  0.00  0.00    -0.276 OA
ENDBRANCH  10  11
BRANCH   7  16
ATOM     16  C   UNL     1      18.524   3.742  28.106  0.00  0.00    +0.414 C 
ATOM     17  O   UNL     1      18.390   4.938  27.852  0.00  0.00    -0.240 OA
ATOM     18  O   UNL     1      17.920   3.259  29.065  0.00  0.00    -0.240 OA
ENDBRANCH   7  16
BRANCH   9  19
ATOM     19  O   UNL     1      17.015   0.883  25.069  0.00  0.00    -0.390 OA
ATOM     20  H   UNL     1      17.148   0.139  25.661  0.00  0.00    +0.210 HD
ENDBRANCH   9  19
BRANCH   7  21
ATOM     21  O   UNL     1      20.550   2.370  28.029  0.00  0.00    -0.343 OA
ATOM     22  C   UNL     1      21.789   3.105  27.867  0.00  0.00    +0.198 C 
ENDBRANCH   7  21
ENDBRANCH   4   5
BRANCH   4  23
ATOM     23  O   UNL     1      21.160   5.029  24.435  0.00  0.00    -0.387 OA
ATOM     24  H   UNL     1      21.253   5.205  25.374  0.00  0.00    +0.210 HD
ENDBRANCH   4  23
ENDBRANCH   1   4
BRANCH   1  25
ATOM     25  C   UNL     1      20.212   7.333  23.504  0.00  0.00    +0.141 C 
BRANCH  25  28
ATOM     26  C   UNL     1      21.415   8.438  25.358  0.00  0.00    +0.401 C 
ATOM     27  O   UNL     1      22.232   7.524  25.497  0.00  0.00    -0.226 OA
ATOM     28  N   UNL     1      20.434   8.429  24.455  0.00  0.00    -0.279 N 
ATOM     29  H   UNL     1      19.807   9.221  24.424  0.00  0.00    +0.152 HD
BRANCH  26  30
ATOM     30  O   UNL     1      21.504   9.585  26.208  0.00  0.00    -0.444 OA
BRANCH  30  31
ATOM     31  C   UNL     1      20.277  10.318  26.151  0.00  0.00    +0.292 C 
BRANCH  31  33
ATOM     32  N   UNL     1      18.303  10.721  27.582  0.00  0.00    -0.131 NA
ATOM     33  C   UNL     1      19.576  10.239  27.445  0.00  0.00    +0.120 A 
ATOM     34  C   UNL     1      19.983   9.698  28.645  0.00  0.00    +0.137 A 
ATOM     35  N   UNL     1      18.877   9.798  29.446  0.00  0.00    -0.247 N 
ATOM     36  N   UNL     1      17.887  10.448  28.809  0.00  0.00    -0.065 NA
BRANCH  35  37
ATOM     37  C   UNL     1      18.726   9.214  30.774  0.00  0.00    +0.184 C 
BRANCH  37  38
ATOM     38  C   UNL     1      18.176  10.135  31.837  0.00  0.00    +0.016 A 
ATOM     39  C   UNL     1      16.983   9.846  32.525  0.00  0.00    +0.137 A 
ATOM     40  C   UNL     1      16.493  10.708  33.507  0.00  0.00    +0.047 A 
ATOM     41  C   UNL     1      17.201  11.867  33.826  0.00  0.00    +0.004 A 
ATOM     42  C   UNL     1      18.376  12.178  33.144  0.00  0.00    +0.001 A 
ATOM     43  C   UNL     1      18.862  11.317  32.159  0.00  0.00    +0.009 A 
BRANCH  39  44
ATOM     44  O   UNL     1      16.272   8.693  32.115  0.00  0.00    -0.426 OA
BRANCH  44  45
ATOM     45  C   UNL     1      15.904   7.682  33.004  0.00  0.00    +0.309 C 
ATOM     46  O   UNL     1      14.911   7.650  33.719  0.00  0.00    -0.251 OA
ATOM     47  C   UNL     1      16.895   6.561  32.903  0.00  0.00    +0.136 C 
ENDBRANCH  44  45
ENDBRANCH  39  44
ENDBRANCH  37  38
ENDBRANCH  35  37
ENDBRANCH  31  33
ENDBRANCH  30  31
ENDBRANCH  26  30
ENDBRANCH  25  28
ENDBRANCH   1  25
TORSDOF 17
