REMARK VINA RESULT:    -6.553      4.730      5.364
REMARK INTER + INTRA:         -13.129
REMARK INTER:                 -11.208
REMARK INTRA:                  -1.922
REMARK UNBOUND:                -1.788
REMARK  Name = lig_assembled_20.pdb
REMARK  16 active torsions:
REMARK  status: ('A' for Active; 'I' for Inactive)
REMARK    1  A    between atoms: _2  and  _11
REMARK    2  A    between atoms: _6  and  _21
REMARK    3  A    between atoms: _8  and  _9
REMARK    4  A    between atoms: _8  and  _21
REMARK    5  A    between atoms: _17  and  _37
REMARK    6  A    between atoms: _19  and  _25
REMARK    7  A    between atoms: _20  and  _24
REMARK    8  A    between atoms: _24  and  _25
REMARK    9  A    between atoms: _27  and  _28
REMARK   10  A    between atoms: _29  and  _30
REMARK   11  A    between atoms: _31  and  _33
REMARK   12  A    between atoms: _33  and  _34
REMARK   13  A    between atoms: _33  and  _35
REMARK   14  A    between atoms: _35  and  _36
REMARK   15  A    between atoms: _35  and  _37
REMARK   16  A    between atoms: _38  and  _40
REMARK                            x       y       z     vdW  Elec       q    Type
REMARK                         _______ _______ _______ _____ _____    ______ ____
ROOT
ATOM      1  C   UNL     1       6.618   2.580  33.434  0.00  0.00    +0.163 C 
ENDROOT
BRANCH   1   2
ATOM      2  O   UNL     1       6.968   1.565  32.478  0.00  0.00    -0.388 OA
ATOM      3  H   UNL     1       6.197   1.339  31.953  0.00  0.00    +0.210 HD
ENDBRANCH   1   2
BRANCH   1   4
ATOM      4  C   UNL     1       5.397   3.355  32.948  0.00  0.00    +0.141 C 
BRANCH   4   7
ATOM      5  C   UNL     1       3.303   2.674  31.827  0.00  0.00    +0.401 C 
ATOM      6  O   UNL     1       2.583   3.378  32.538  0.00  0.00    -0.226 OA
ATOM      7  N   UNL     1       4.629   2.597  31.953  0.00  0.00    -0.279 N 
ATOM      8  H   UNL     1       5.132   1.983  31.329  0.00  0.00    +0.152 HD
BRANCH   5   9
ATOM      9  O   UNL     1       2.702   1.879  30.802  0.00  0.00    -0.444 OA
BRANCH   9  10
ATOM     10  C   UNL     1       2.752   0.499  31.175  0.00  0.00    +0.292 C 
BRANCH  10  12
ATOM     11  N   UNL     1       5.086  -0.315  31.372  0.00  0.00    -0.131 NA
ATOM     12  C   UNL     1       3.959  -0.144  30.622  0.00  0.00    +0.121 A 
ATOM     13  C   UNL     1       4.176  -0.653  29.364  0.00  0.00    +0.143 A 
ATOM     14  N   UNL     1       5.465  -1.133  29.387  0.00  0.00    -0.220 N 
ATOM     15  N   UNL     1       5.997  -0.916  30.616  0.00  0.00    -0.060 NA
BRANCH  14  16
ATOM     16  C   UNL     1       6.190  -1.764  28.344  0.00  0.00    +0.068 A 
ATOM     17  C   UNL     1       7.425  -2.373  28.620  0.00  0.00    +0.030 A 
ATOM     18  C   UNL     1       8.165  -3.010  27.614  0.00  0.00    +0.030 A 
ATOM     19  C   UNL     1       7.621  -3.010  26.326  0.00  0.00    +0.066 A 
ATOM     20  C   UNL     1       6.405  -2.415  26.019  0.00  0.00    +0.021 A 
ATOM     21  C   UNL     1       6.235  -2.640  24.636  0.00  0.00    +0.142 A 
ATOM     22  N   UNL     1       7.249  -3.321  24.097  0.00  0.00    -0.181 NA
ATOM     23  N   UNL     1       8.071  -3.534  25.140  0.00  0.00    -0.277 N 
ATOM     24  H   UNL     1       8.932  -4.043  24.979  0.00  0.00    +0.189 HD
ATOM     25  C   UNL     1       5.670  -1.779  27.035  0.00  0.00    +0.039 A 
ENDBRANCH  14  16
ENDBRANCH  10  12
ENDBRANCH   9  10
ENDBRANCH   5   9
ENDBRANCH   4   7
ENDBRANCH   1   4
BRANCH   1  26
ATOM     26  C   UNL     1       7.789   3.553  33.656  0.00  0.00    +0.175 C 
BRANCH  26  27
ATOM     27  C   UNL     1       7.753   4.190  35.054  0.00  0.00    +0.176 C 
ATOM     28  O   UNL     1       7.679   5.633  34.886  0.00  0.00    -0.332 OA
ATOM     29  C   UNL     1       7.529   6.408  36.121  0.00  0.00    +0.277 C 
ATOM     30  C   UNL     1       8.658   6.054  37.121  0.00  0.00    +0.110 C 
ATOM     31  C   UNL     1       8.796   4.529  37.308  0.00  0.00    +0.143 C 
ATOM     32  C   UNL     1       8.942   3.822  35.960  0.00  0.00    +0.133 C 
BRANCH  32  33
ATOM     33  N   UNL     1       8.986   2.363  36.145  0.00  0.00    -0.308 N 
ATOM     34  H   UNL     1       8.188   1.918  36.576  0.00  0.00    +0.149 HD
ATOM     35  C   UNL     1      10.011   1.588  35.781  0.00  0.00    +0.210 C 
ATOM     36  C   UNL     1      11.223   2.300  35.151  0.00  0.00    +0.109 C 
ATOM     37  O   UNL     1      10.014   0.366  35.936  0.00  0.00    -0.276 OA
ENDBRANCH  32  33
BRANCH  29  38
ATOM     38  C   UNL     1       6.158   6.137  36.774  0.00  0.00    +0.414 C 
ATOM     39  O   UNL     1       6.032   6.191  37.997  0.00  0.00    -0.240 OA
ATOM     40  O   UNL     1       5.178   5.865  36.079  0.00  0.00    -0.240 OA
ENDBRANCH  29  38
BRANCH  31  41
ATOM     41  O   UNL     1       9.939   4.244  38.115  0.00  0.00    -0.390 OA
ATOM     42  H   UNL     1       9.654   3.911  38.969  0.00  0.00    +0.210 HD
ENDBRANCH  31  41
BRANCH  29  43
ATOM     43  O   UNL     1       7.641   7.815  35.785  0.00  0.00    -0.343 OA
ATOM     44  C   UNL     1       7.412   8.130  34.388  0.00  0.00    +0.198 C 
ENDBRANCH  29  43
ENDBRANCH  26  27
BRANCH  26  45
ATOM     45  O   UNL     1       7.782   4.579  32.643  0.00  0.00    -0.387 OA
ATOM     46  H   UNL     1       8.513   4.435  32.037  0.00  0.00    +0.210 HD
ENDBRANCH  26  45
ENDBRANCH   1  26
TORSDOF 14
