REMARK VINA RESULT:    -6.455      1.863      3.525
REMARK INTER + INTRA:         -12.959
REMARK INTER:                 -11.171
REMARK INTRA:                  -1.788
REMARK UNBOUND:                -1.788
REMARK  Name = lig_assembled_20.pdb
REMARK  16 active torsions:
REMARK  status: ('A' for Active; 'I' for Inactive)
REMARK    1  A    between atoms: _2  and  _11
REMARK    2  A    between atoms: _6  and  _21
REMARK    3  A    between atoms: _8  and  _9
REMARK    4  A    between atoms: _8  and  _21
REMARK    5  A    between atoms: _17  and  _37
REMARK    6  A    between atoms: _19  and  _25
REMARK    7  A    between atoms: _20  and  _24
REMARK    8  A    between atoms: _24  and  _25
REMARK    9  A    between atoms: _27  and  _28
REMARK   10  A    between atoms: _29  and  _30
REMARK   11  A    between atoms: _31  and  _33
REMARK   12  A    between atoms: _33  and  _34
REMARK   13  A    between atoms: _33  and  _35
REMARK   14  A    between atoms: _35  and  _36
REMARK   15  A    between atoms: _35  and  _37
REMARK   16  A    between atoms: _38  and  _40
REMARK                            x       y       z     vdW  Elec       q    Type
REMARK                         _______ _______ _______ _____ _____    ______ ____
ROOT
ATOM      1  C   UNL     1       6.238   1.428  33.399  0.00  0.00    +0.163 C 
ENDROOT
BRANCH   1   2
ATOM      2  O   UNL     1       6.532   0.469  34.428  0.00  0.00    -0.388 OA
ATOM      3  H   UNL     1       6.511  -0.417  34.057  0.00  0.00    +0.210 HD
ENDBRANCH   1   2
BRANCH   1   4
ATOM      4  C   UNL     1       5.681   0.718  32.169  0.00  0.00    +0.141 C 
BRANCH   4   7
ATOM      5  C   UNL     1       3.565   0.989  30.923  0.00  0.00    +0.401 C 
ATOM      6  O   UNL     1       3.326  -0.220  30.880  0.00  0.00    -0.226 OA
ATOM      7  N   UNL     1       4.646   1.515  31.500  0.00  0.00    -0.279 N 
ATOM      8  H   UNL     1       4.758   2.519  31.475  0.00  0.00    +0.152 HD
BRANCH   5   9
ATOM      9  O   UNL     1       2.642   1.900  30.320  0.00  0.00    -0.444 OA
BRANCH   9  10
ATOM     10  C   UNL     1       1.975   1.255  29.232  0.00  0.00    +0.292 C 
BRANCH  10  12
ATOM     11  N   UNL     1       1.567   3.500  28.260  0.00  0.00    -0.131 NA
ATOM     12  C   UNL     1       1.844   2.175  28.086  0.00  0.00    +0.121 A 
ATOM     13  C   UNL     1       1.963   1.914  26.743  0.00  0.00    +0.143 A 
ATOM     14  N   UNL     1       1.749   3.122  26.121  0.00  0.00    -0.220 N 
ATOM     15  N   UNL     1       1.511   4.070  27.062  0.00  0.00    -0.060 NA
BRANCH  14  16
ATOM     16  C   UNL     1       1.760   3.415  24.732  0.00  0.00    +0.068 A 
ATOM     17  C   UNL     1       1.683   4.748  24.298  0.00  0.00    +0.030 A 
ATOM     18  C   UNL     1       1.696   5.072  22.934  0.00  0.00    +0.030 A 
ATOM     19  C   UNL     1       1.790   4.012  22.027  0.00  0.00    +0.066 A 
ATOM     20  C   UNL     1       1.865   2.683  22.424  0.00  0.00    +0.021 A 
ATOM     21  C   UNL     1       1.944   1.954  21.218  0.00  0.00    +0.142 A 
ATOM     22  N   UNL     1       1.922   2.740  20.139  0.00  0.00    -0.181 NA
ATOM     23  N   UNL     1       1.831   3.978  20.657  0.00  0.00    -0.277 N 
ATOM     24  H   UNL     1       1.797   4.765  20.020  0.00  0.00    +0.189 HD
ATOM     25  C   UNL     1       1.851   2.368  23.795  0.00  0.00    +0.039 A 
ENDBRANCH  14  16
ENDBRANCH  10  12
ENDBRANCH   9  10
ENDBRANCH   5   9
ENDBRANCH   4   7
ENDBRANCH   1   4
BRANCH   1  26
ATOM     26  C   UNL     1       7.498   2.219  33.009  0.00  0.00    +0.175 C 
BRANCH  26  27
ATOM     27  C   UNL     1       8.212   2.810  34.234  0.00  0.00    +0.176 C 
ATOM     28  O   UNL     1       8.843   1.716  34.955  0.00  0.00    -0.332 OA
ATOM     29  C   UNL     1       9.664   2.106  36.105  0.00  0.00    +0.277 C 
ATOM     30  C   UNL     1       8.843   2.975  37.088  0.00  0.00    +0.110 C 
ATOM     31  C   UNL     1       8.127   4.134  36.361  0.00  0.00    +0.143 C 
ATOM     32  C   UNL     1       7.304   3.616  35.181  0.00  0.00    +0.133 C 
BRANCH  32  33
ATOM     33  N   UNL     1       6.697   4.737  34.446  0.00  0.00    -0.308 N 
ATOM     34  H   UNL     1       7.309   5.331  33.903  0.00  0.00    +0.149 HD
ATOM     35  C   UNL     1       5.392   5.020  34.447  0.00  0.00    +0.210 C 
ATOM     36  C   UNL     1       4.490   4.111  35.304  0.00  0.00    +0.109 C 
ATOM     37  O   UNL     1       4.910   5.957  33.809  0.00  0.00    -0.276 OA
ENDBRANCH  32  33
BRANCH  29  38
ATOM     38  C   UNL     1      10.913   2.887  35.645  0.00  0.00    +0.414 C 
ATOM     39  O   UNL     1      11.423   2.652  34.550  0.00  0.00    -0.240 OA
ATOM     40  O   UNL     1      11.410   3.751  36.369  0.00  0.00    -0.240 OA
ENDBRANCH  29  38
BRANCH  31  41
ATOM     41  O   UNL     1       7.265   4.815  37.274  0.00  0.00    -0.390 OA
ATOM     42  H   UNL     1       6.465   5.086  36.818  0.00  0.00    +0.210 HD
ENDBRANCH  31  41
BRANCH  29  43
ATOM     43  O   UNL     1      10.072   0.896  36.795  0.00  0.00    -0.343 OA
ATOM     44  C   UNL     1      10.077  -0.302  35.979  0.00  0.00    +0.198 C 
ENDBRANCH  29  43
ENDBRANCH  26  27
BRANCH  26  45
ATOM     45  O   UNL     1       7.159   3.267  32.079  0.00  0.00    -0.387 OA
ATOM     46  H   UNL     1       7.448   4.112  32.429  0.00  0.00    +0.210 HD
ENDBRANCH  26  45
ENDBRANCH   1  26
TORSDOF 14
