REMARK VINA RESULT:    -5.765      1.861      2.585
REMARK INTER + INTRA:         -14.397
REMARK INTER:                 -12.578
REMARK INTRA:                  -1.819
REMARK UNBOUND:                -3.914
REMARK  Name = lig_assembled_73.pdb
REMARK  18 active torsions:
REMARK  status: ('A' for Active; 'I' for Inactive)
REMARK    1  A    between atoms: _2  and  _10
REMARK    2  A    between atoms: _3  and  _14
REMARK    3  A    between atoms: _5  and  _22
REMARK    4  A    between atoms: _7  and  _8
REMARK    5  A    between atoms: _7  and  _22
REMARK    6  A    between atoms: _13  and  _16
REMARK    7  A    between atoms: _18  and  _38
REMARK    8  A    between atoms: _20  and  _26
REMARK    9  A    between atoms: _21  and  _25
REMARK   10  A    between atoms: _25  and  _26
REMARK   11  A    between atoms: _28  and  _29
REMARK   12  A    between atoms: _30  and  _31
REMARK   13  A    between atoms: _32  and  _34
REMARK   14  A    between atoms: _34  and  _35
REMARK   15  A    between atoms: _34  and  _36
REMARK   16  A    between atoms: _36  and  _37
REMARK   17  A    between atoms: _36  and  _38
REMARK   18  A    between atoms: _39  and  _41
REMARK                            x       y       z     vdW  Elec       q    Type
REMARK                         _______ _______ _______ _____ _____    ______ ____
ROOT
ATOM      1  C   UNL     1       6.562   2.650  33.506  0.00  0.00    +0.163 C 
ENDROOT
BRANCH   1   2
ATOM      2  O   UNL     1       6.400   2.261  32.132  0.00  0.00    -0.388 OA
ATOM      3  H   UNL     1       5.718   1.587  32.068  0.00  0.00    +0.210 HD
ENDBRANCH   1   2
BRANCH   1   4
ATOM      4  C   UNL     1       7.782   3.571  33.677  0.00  0.00    +0.175 C 
BRANCH   4   5
ATOM      5  C   UNL     1       7.842   4.196  35.078  0.00  0.00    +0.176 C 
ATOM      6  O   UNL     1       7.770   5.641  34.927  0.00  0.00    -0.332 OA
ATOM      7  C   UNL     1       7.708   6.407  36.175  0.00  0.00    +0.277 C 
ATOM      8  C   UNL     1       8.895   6.036  37.097  0.00  0.00    +0.110 C 
ATOM      9  C   UNL     1       9.032   4.508  37.263  0.00  0.00    +0.143 C 
ATOM     10  C   UNL     1       9.085   3.811  35.903  0.00  0.00    +0.133 C 
BRANCH  10  11
ATOM     11  N   UNL     1       9.128   2.350  36.074  0.00  0.00    -0.308 N 
ATOM     12  H   UNL     1       8.328   1.901  36.497  0.00  0.00    +0.149 HD
ATOM     13  C   UNL     1      10.155   1.579  35.707  0.00  0.00    +0.210 C 
ATOM     14  C   UNL     1      11.370   2.297  35.089  0.00  0.00    +0.109 C 
ATOM     15  O   UNL     1      10.157   0.356  35.849  0.00  0.00    -0.276 OA
ENDBRANCH  10  11
BRANCH   7  16
ATOM     16  C   UNL     1       6.379   6.142  36.914  0.00  0.00    +0.414 C 
ATOM     17  O   UNL     1       6.349   6.108  38.143  0.00  0.00    -0.240 OA
ATOM     18  O   UNL     1       5.338   5.962  36.281  0.00  0.00    -0.240 OA
ENDBRANCH   7  16
BRANCH   9  19
ATOM     19  O   UNL     1      10.223   4.208  37.992  0.00  0.00    -0.390 OA
ATOM     20  H   UNL     1      10.802   3.666  37.451  0.00  0.00    +0.210 HD
ENDBRANCH   9  19
BRANCH   7  21
ATOM     21  O   UNL     1       7.809   7.815  35.843  0.00  0.00    -0.343 OA
ATOM     22  C   UNL     1       7.486   8.145  34.468  0.00  0.00    +0.198 C 
ENDBRANCH   7  21
ENDBRANCH   4   5
BRANCH   4  23
ATOM     23  O   UNL     1       7.769   4.604  32.672  0.00  0.00    -0.387 OA
ATOM     24  H   UNL     1       7.799   4.203  31.800  0.00  0.00    +0.210 HD
ENDBRANCH   4  23
ENDBRANCH   1   4
BRANCH   1  25
ATOM     25  C   UNL     1       5.309   3.368  33.996  0.00  0.00    +0.141 C 
BRANCH  25  28
ATOM     26  C   UNL     1       3.148   3.669  32.836  0.00  0.00    +0.401 C 
ATOM     27  O   UNL     1       2.491   3.108  33.715  0.00  0.00    -0.226 OA
ATOM     28  N   UNL     1       4.471   3.829  32.882  0.00  0.00    -0.279 N 
ATOM     29  H   UNL     1       4.923   4.294  32.107  0.00  0.00    +0.152 HD
BRANCH  26  30
ATOM     30  O   UNL     1       2.473   4.183  31.685  0.00  0.00    -0.444 OA
BRANCH  30  31
ATOM     31  C   UNL     1       1.428   3.285  31.304  0.00  0.00    +0.292 C 
BRANCH  31  33
ATOM     32  N   UNL     1      -0.018   4.093  29.465  0.00  0.00    -0.131 NA
ATOM     33  C   UNL     1       1.111   3.444  29.872  0.00  0.00    +0.121 A 
ATOM     34  C   UNL     1       1.809   3.022  28.765  0.00  0.00    +0.143 A 
ATOM     35  N   UNL     1       1.064   3.447  27.690  0.00  0.00    -0.220 N 
ATOM     36  N   UNL     1      -0.040   4.091  28.139  0.00  0.00    -0.060 NA
BRANCH  35  37
ATOM     37  C   UNL     1       1.323   3.280  26.305  0.00  0.00    +0.074 A 
ATOM     38  C   UNL     1       1.882   2.076  25.840  0.00  0.00    +0.032 A 
ATOM     39  C   UNL     1       2.155   1.892  24.478  0.00  0.00    +0.054 A 
ATOM     40  C   UNL     1       1.875   2.909  23.567  0.00  0.00    +0.195 A 
ATOM     41  C   UNL     1       1.319   4.099  24.034  0.00  0.00    +0.316 A 
ATOM     42  C   UNL     1       1.032   4.300  25.391  0.00  0.00    +0.116 A 
BRANCH  41  43
ATOM     43  N   UNL     1       1.026   5.180  23.113  0.00  0.00    +0.083 N 
ATOM     44  O   UNL     1      -0.150   5.559  23.032  0.00  0.00    +0.042 OA
ATOM     45  O   UNL     1       1.963   5.579  22.409  0.00  0.00    -0.576 OA
ENDBRANCH  41  43
BRANCH  40  46
ATOM     46  O   UNL     1       2.120   2.721  22.241  0.00  0.00    -0.501 OA
ATOM     47  H   UNL     1       1.514   2.051  21.880  0.00  0.00    +0.292 HD
ENDBRANCH  40  46
ENDBRANCH  35  37
ENDBRANCH  31  33
ENDBRANCH  30  31
ENDBRANCH  26  30
ENDBRANCH  25  28
ENDBRANCH   1  25
TORSDOF 16
