REMARK VINA RESULT:    -5.972     21.704     23.975
REMARK INTER + INTRA:         -13.953
REMARK INTER:                 -12.158
REMARK INTRA:                  -1.795
REMARK UNBOUND:                -2.569
REMARK  Name = lig_assembled_18.pdb
REMARK  19 active torsions:
REMARK  status: ('A' for Active; 'I' for Inactive)
REMARK    1  A    between atoms: _2  and  _10
REMARK    2  A    between atoms: _3  and  _12
REMARK    3  A    between atoms: _5  and  _21
REMARK    4  A    between atoms: _7  and  _8
REMARK    5  A    between atoms: _7  and  _21
REMARK    6  A    between atoms: _10  and  _11
REMARK    7  A    between atoms: _12  and  _13
REMARK    8  A    between atoms: _17  and  _37
REMARK    9  A    between atoms: _19  and  _25
REMARK   10  A    between atoms: _20  and  _24
REMARK   11  A    between atoms: _24  and  _25
REMARK   12  A    between atoms: _27  and  _28
REMARK   13  A    between atoms: _29  and  _30
REMARK   14  A    between atoms: _31  and  _33
REMARK   15  A    between atoms: _33  and  _34
REMARK   16  A    between atoms: _33  and  _35
REMARK   17  A    between atoms: _35  and  _36
REMARK   18  A    between atoms: _35  and  _37
REMARK   19  A    between atoms: _38  and  _40
REMARK                            x       y       z     vdW  Elec       q    Type
REMARK                         _______ _______ _______ _____ _____    ______ ____
ROOT
ATOM      1  C   UNL     1      11.542  23.365  25.989  0.00  0.00    +0.163 C 
ENDROOT
BRANCH   1   2
ATOM      2  O   UNL     1      10.856  22.130  25.727  0.00  0.00    -0.388 OA
ATOM      3  H   UNL     1      11.350  21.620  25.080  0.00  0.00    +0.210 HD
ENDBRANCH   1   2
BRANCH   1   4
ATOM      4  C   UNL     1      10.622  24.362  26.715  0.00  0.00    +0.175 C 
BRANCH   4   5
ATOM      5  C   UNL     1       9.299  24.578  25.966  0.00  0.00    +0.176 C 
ATOM      6  O   UNL     1       9.616  24.925  24.590  0.00  0.00    -0.332 OA
ATOM      7  C   UNL     1       8.467  25.067  23.691  0.00  0.00    +0.277 C 
ATOM      8  C   UNL     1       7.452  26.085  24.267  0.00  0.00    +0.110 C 
ATOM      9  C   UNL     1       7.108  25.776  25.739  0.00  0.00    +0.143 C 
ATOM     10  C   UNL     1       8.377  25.646  26.583  0.00  0.00    +0.133 C 
BRANCH  10  11
ATOM     11  N   UNL     1       8.040  25.266  27.964  0.00  0.00    -0.308 N 
ATOM     12  H   UNL     1       7.616  24.361  28.114  0.00  0.00    +0.149 HD
ATOM     13  C   UNL     1       8.259  26.038  29.032  0.00  0.00    +0.210 C 
ATOM     14  C   UNL     1       8.882  27.422  28.766  0.00  0.00    +0.109 C 
ATOM     15  O   UNL     1       7.980  25.688  30.179  0.00  0.00    -0.276 OA
ENDBRANCH  10  11
BRANCH   7  16
ATOM     16  C   UNL     1       7.769  23.707  23.477  0.00  0.00    +0.414 C 
ATOM     17  O   UNL     1       6.689  23.650  22.890  0.00  0.00    -0.240 OA
ATOM     18  O   UNL     1       8.285  22.669  23.892  0.00  0.00    -0.240 OA
ENDBRANCH   7  16
BRANCH   7  19
ATOM     19  O   UNL     1       8.950  25.572  22.420  0.00  0.00    -0.343 OA
ATOM     20  C   UNL     1       8.650  26.967  22.161  0.00  0.00    +0.198 C 
ENDBRANCH   7  19
BRANCH   9  21
ATOM     21  O   UNL     1       6.292  26.819  26.273  0.00  0.00    -0.390 OA
ATOM     22  H   UNL     1       5.671  27.115  25.603  0.00  0.00    +0.210 HD
ENDBRANCH   9  21
ENDBRANCH   4   5
BRANCH   4  23
ATOM     23  O   UNL     1      11.301  25.620  26.899  0.00  0.00    -0.387 OA
ATOM     24  H   UNL     1      11.676  25.907  26.063  0.00  0.00    +0.210 HD
ENDBRANCH   4  23
ENDBRANCH   1   4
BRANCH   1  25
ATOM     25  C   UNL     1      12.781  23.103  26.839  0.00  0.00    +0.141 C 
BRANCH  25  28
ATOM     26  C   UNL     1      14.932  22.790  25.664  0.00  0.00    +0.401 C 
ATOM     27  O   UNL     1      15.278  23.967  25.787  0.00  0.00    -0.226 OA
ATOM     28  N   UNL     1      13.778  22.301  26.120  0.00  0.00    -0.279 N 
ATOM     29  H   UNL     1      13.579  21.323  25.962  0.00  0.00    +0.152 HD
BRANCH  26  30
ATOM     30  O   UNL     1      15.803  21.876  24.991  0.00  0.00    -0.444 OA
BRANCH  30  31
ATOM     31  C   UNL     1      16.676  22.601  24.121  0.00  0.00    +0.292 C 
BRANCH  31  33
ATOM     32  N   UNL     1      16.024  21.193  22.188  0.00  0.00    -0.131 NA
ATOM     33  C   UNL     1      16.255  22.435  22.717  0.00  0.00    +0.120 A 
ATOM     34  C   UNL     1      16.030  23.384  21.747  0.00  0.00    +0.137 A 
ATOM     35  N   UNL     1      15.638  22.662  20.659  0.00  0.00    -0.242 N 
ATOM     36  N   UNL     1      15.657  21.342  20.922  0.00  0.00    -0.065 NA
BRANCH  35  37
ATOM     37  C   UNL     1      15.350  23.127  19.323  0.00  0.00    +0.240 C 
BRANCH  37  38
ATOM     38  C   UNL     1      13.947  22.776  18.885  0.00  0.00    +0.235 C 
ATOM     39  O   UNL     1      13.045  22.560  19.692  0.00  0.00    -0.274 OA
ATOM     40  N   UNL     1      13.742  22.775  17.520  0.00  0.00    -0.309 N 
ATOM     41  H   UNL     1      14.529  22.791  16.887  0.00  0.00    +0.149 HD
BRANCH  40  42
ATOM     42  C   UNL     1      12.444  22.473  16.951  0.00  0.00    +0.146 C 
BRANCH  42  43
ATOM     43  C   UNL     1      12.455  22.773  15.487  0.00  0.00    +0.007 A 
ATOM     44  S   UNL     1      13.767  22.278  14.502  0.00  0.00    -0.100 S 
ATOM     45  C   UNL     1      13.086  23.008  13.115  0.00  0.00    +0.045 A 
ATOM     46  C   UNL     1      11.874  23.605  13.385  0.00  0.00    +0.008 A 
ATOM     47  C   UNL     1      11.507  23.462  14.754  0.00  0.00    +0.013 A 
ENDBRANCH  42  43
ENDBRANCH  40  42
ENDBRANCH  37  38
ENDBRANCH  35  37
ENDBRANCH  31  33
ENDBRANCH  30  31
ENDBRANCH  26  30
ENDBRANCH  25  28
ENDBRANCH   1  25
TORSDOF 17
