REMARK VINA RESULT:    -6.918      1.557      3.881
REMARK INTER + INTRA:         -14.108
REMARK INTER:                 -11.998
REMARK INTRA:                  -2.110
REMARK UNBOUND:                -2.135
REMARK  Name = lig_assembled_51.pdb
REMARK  16 active torsions:
REMARK  status: ('A' for Active; 'I' for Inactive)
REMARK    1  A    between atoms: _2  and  _9
REMARK    2  A    between atoms: _4  and  _22
REMARK    3  A    between atoms: _6  and  _7
REMARK    4  A    between atoms: _6  and  _22
REMARK    5  A    between atoms: _18  and  _38
REMARK    6  A    between atoms: _20  and  _26
REMARK    7  A    between atoms: _21  and  _25
REMARK    8  A    between atoms: _25  and  _26
REMARK    9  A    between atoms: _28  and  _29
REMARK   10  A    between atoms: _30  and  _31
REMARK   11  A    between atoms: _32  and  _34
REMARK   12  A    between atoms: _34  and  _35
REMARK   13  A    between atoms: _34  and  _36
REMARK   14  A    between atoms: _36  and  _37
REMARK   15  A    between atoms: _36  and  _38
REMARK   16  A    between atoms: _39  and  _41
REMARK                            x       y       z     vdW  Elec       q    Type
REMARK                         _______ _______ _______ _____ _____    ______ ____
ROOT
ATOM      1  C   UNL     1       2.833   2.429  33.338  0.00  0.00    +0.163 C 
ENDROOT
BRANCH   1   2
ATOM      2  O   UNL     1       3.399   1.635  32.282  0.00  0.00    -0.388 OA
ATOM      3  H   UNL     1       2.736   1.485  31.603  0.00  0.00    +0.210 HD
ENDBRANCH   1   2
BRANCH   1   4
ATOM      4  C   UNL     1       1.445   2.917  32.937  0.00  0.00    +0.141 C 
BRANCH   4   7
ATOM      5  C   UNL     1       1.265   4.051  30.749  0.00  0.00    +0.401 C 
ATOM      6  O   UNL     1       1.395   5.183  31.219  0.00  0.00    -0.226 OA
ATOM      7  N   UNL     1       1.270   2.935  31.480  0.00  0.00    -0.279 N 
ATOM      8  H   UNL     1       1.147   2.052  31.003  0.00  0.00    +0.152 HD
BRANCH   5   9
ATOM      9  O   UNL     1       1.094   3.900  29.337  0.00  0.00    -0.444 OA
BRANCH   9  10
ATOM     10  C   UNL     1       1.733   2.697  28.904  0.00  0.00    +0.292 C 
BRANCH  10  12
ATOM     11  N   UNL     1       2.035   1.423  26.803  0.00  0.00    -0.131 NA
ATOM     12  C   UNL     1       1.657   2.574  27.436  0.00  0.00    +0.120 A 
ATOM     13  C   UNL     1       1.238   3.487  26.495  0.00  0.00    +0.137 A 
ATOM     14  N   UNL     1       1.389   2.837  25.302  0.00  0.00    -0.245 N 
ATOM     15  N   UNL     1       1.867   1.594  25.499  0.00  0.00    -0.065 NA
BRANCH  14  16
ATOM     16  C   UNL     1       1.105   3.349  23.959  0.00  0.00    +0.066 C 
ATOM     17  C   UNL     1       1.864   2.508  22.896  0.00  0.00    +0.034 C 
ATOM     18  C   UNL     1       1.542   3.001  21.475  0.00  0.00    -0.008 C 
ATOM     19  C   UNL     1       0.028   2.889  21.231  0.00  0.00    +0.007 C 
ATOM     20  C   UNL     1      -0.737   3.752  22.248  0.00  0.00    -0.008 C 
ATOM     21  C   UNL     1      -0.294   5.217  22.106  0.00  0.00    +0.007 C 
ATOM     22  C   UNL     1       1.216   5.334  22.358  0.00  0.00    -0.008 C 
ATOM     23  C   UNL     1       1.971   4.469  21.337  0.00  0.00    +0.007 C 
ATOM     24  C   UNL     1      -0.419   3.261  23.670  0.00  0.00    +0.034 C 
ATOM     25  C   UNL     1       1.534   4.837  23.779  0.00  0.00    +0.034 C 
ENDBRANCH  14  16
ENDBRANCH  10  12
ENDBRANCH   9  10
ENDBRANCH   5   9
ENDBRANCH   4   7
ENDBRANCH   1   4
BRANCH   1  26
ATOM     26  C   UNL     1       3.730   3.637  33.658  0.00  0.00    +0.175 C 
BRANCH  26  27
ATOM     27  C   UNL     1       5.213   3.248  33.753  0.00  0.00    +0.176 C 
ATOM     28  O   UNL     1       5.286   1.895  34.281  0.00  0.00    -0.332 OA
ATOM     29  C   UNL     1       6.630   1.311  34.343  0.00  0.00    +0.277 C 
ATOM     30  C   UNL     1       7.585   2.235  35.137  0.00  0.00    +0.110 C 
ATOM     31  C   UNL     1       7.518   3.692  34.632  0.00  0.00    +0.143 C 
ATOM     32  C   UNL     1       6.075   4.197  34.605  0.00  0.00    +0.133 C 
BRANCH  32  33
ATOM     33  N   UNL     1       6.015   5.555  34.041  0.00  0.00    -0.308 N 
ATOM     34  H   UNL     1       6.133   5.657  33.043  0.00  0.00    +0.149 HD
ATOM     35  C   UNL     1       5.815   6.662  34.763  0.00  0.00    +0.210 C 
ATOM     36  C   UNL     1       5.665   6.475  36.284  0.00  0.00    +0.109 C 
ATOM     37  O   UNL     1       5.755   7.785  34.261  0.00  0.00    -0.276 OA
ENDBRANCH  32  33
BRANCH  29  38
ATOM     38  C   UNL     1       7.193   1.083  32.925  0.00  0.00    +0.414 C 
ATOM     39  O   UNL     1       6.430   0.937  31.970  0.00  0.00    -0.240 OA
ATOM     40  O   UNL     1       8.410   1.046  32.735  0.00  0.00    -0.240 OA
ENDBRANCH  29  38
BRANCH  31  41
ATOM     41  O   UNL     1       8.295   4.534  35.485  0.00  0.00    -0.390 OA
ATOM     42  H   UNL     1       7.726   5.192  35.890  0.00  0.00    +0.210 HD
ENDBRANCH  31  41
BRANCH  29  43
ATOM     43  O   UNL     1       6.536   0.042  35.041  0.00  0.00    -0.343 OA
ATOM     44  C   UNL     1       7.535  -0.165  36.071  0.00  0.00    +0.198 C 
ENDBRANCH  29  43
ENDBRANCH  26  27
BRANCH  26  45
ATOM     45  O   UNL     1       3.301   4.263  34.884  0.00  0.00    -0.387 OA
ATOM     46  H   UNL     1       3.932   4.942  35.134  0.00  0.00    +0.210 HD
ENDBRANCH  26  45
ENDBRANCH   1  26
TORSDOF 14
