REMARK VINA RESULT:    -6.996      3.302      5.445
REMARK INTER + INTRA:         -14.220
REMARK INTER:                 -12.128
REMARK INTRA:                  -2.092
REMARK UNBOUND:                -1.294
REMARK  Name = lig_assembled_24.pdb
REMARK  19 active torsions:
REMARK  status: ('A' for Active; 'I' for Inactive)
REMARK    1  A    between atoms: _2  and  _9
REMARK    2  A    between atoms: _4  and  _21
REMARK    3  A    between atoms: _6  and  _7
REMARK    4  A    between atoms: _6  and  _21
REMARK    5  A    between atoms: _9  and  _10
REMARK    6  A    between atoms: _13  and  _16
REMARK    7  A    between atoms: _14  and  _16
REMARK    8  A    between atoms: _17  and  _37
REMARK    9  A    between atoms: _19  and  _25
REMARK   10  A    between atoms: _20  and  _24
REMARK   11  A    between atoms: _24  and  _25
REMARK   12  A    between atoms: _27  and  _28
REMARK   13  A    between atoms: _29  and  _30
REMARK   14  A    between atoms: _31  and  _33
REMARK   15  A    between atoms: _33  and  _34
REMARK   16  A    between atoms: _33  and  _35
REMARK   17  A    between atoms: _35  and  _36
REMARK   18  A    between atoms: _35  and  _37
REMARK   19  A    between atoms: _38  and  _40
REMARK                            x       y       z     vdW  Elec       q    Type
REMARK                         _______ _______ _______ _____ _____    ______ ____
ROOT
ATOM      1  C   UNL     1       7.427   2.568  34.386  0.00  0.00    +0.163 C 
ENDROOT
BRANCH   1   2
ATOM      2  O   UNL     1       8.050   2.352  35.663  0.00  0.00    -0.388 OA
ATOM      3  H   UNL     1       8.892   2.813  35.691  0.00  0.00    +0.210 HD
ENDBRANCH   1   2
BRANCH   1   4
ATOM      4  C   UNL     1       7.806   3.945  33.815  0.00  0.00    +0.175 C 
BRANCH   4   5
ATOM      5  C   UNL     1       7.231   5.096  34.654  0.00  0.00    +0.176 C 
ATOM      6  O   UNL     1       8.010   5.190  35.878  0.00  0.00    -0.332 OA
ATOM      7  C   UNL     1       7.670   6.310  36.762  0.00  0.00    +0.277 C 
ATOM      8  C   UNL     1       6.160   6.289  37.103  0.00  0.00    +0.110 C 
ATOM      9  C   UNL     1       5.291   6.158  35.835  0.00  0.00    +0.143 C 
ATOM     10  C   UNL     1       5.733   4.964  34.988  0.00  0.00    +0.133 C 
BRANCH  10  11
ATOM     11  N   UNL     1       4.955   4.901  33.741  0.00  0.00    -0.308 N 
ATOM     12  H   UNL     1       5.143   5.596  33.032  0.00  0.00    +0.149 HD
ATOM     13  C   UNL     1       4.017   3.986  33.484  0.00  0.00    +0.210 C 
ATOM     14  C   UNL     1       3.735   2.957  34.595  0.00  0.00    +0.109 C 
ATOM     15  O   UNL     1       3.391   3.948  32.424  0.00  0.00    -0.276 OA
ENDBRANCH  10  11
BRANCH   7  16
ATOM     16  C   UNL     1       8.031   7.657  36.102  0.00  0.00    +0.414 C 
ATOM     17  O   UNL     1       8.171   7.732  34.882  0.00  0.00    -0.240 OA
ATOM     18  O   UNL     1       8.183   8.667  36.790  0.00  0.00    -0.240 OA
ENDBRANCH   7  16
BRANCH   7  19
ATOM     19  O   UNL     1       8.420   6.152  37.994  0.00  0.00    -0.343 OA
ATOM     20  C   UNL     1       9.722   5.533  37.843  0.00  0.00    +0.198 C 
ENDBRANCH   7  19
BRANCH   9  21
ATOM     21  O   UNL     1       3.921   5.991  36.205  0.00  0.00    -0.390 OA
ATOM     22  H   UNL     1       3.453   5.535  35.502  0.00  0.00    +0.210 HD
ENDBRANCH   9  21
ENDBRANCH   4   5
BRANCH   4  23
ATOM     23  O   UNL     1       7.361   4.056  32.449  0.00  0.00    -0.387 OA
ATOM     24  H   UNL     1       8.119   4.014  31.861  0.00  0.00    +0.210 HD
ENDBRANCH   4  23
ENDBRANCH   1   4
BRANCH   1  25
ATOM     25  C   UNL     1       7.851   1.477  33.408  0.00  0.00    +0.141 C 
BRANCH  25  28
ATOM     26  C   UNL     1       5.792   0.860  32.188  0.00  0.00    +0.401 C 
ATOM     27  O   UNL     1       5.740   1.916  31.553  0.00  0.00    -0.226 OA
ATOM     28  N   UNL     1       6.741   0.574  33.081  0.00  0.00    -0.279 N 
ATOM     29  H   UNL     1       6.693  -0.315  33.558  0.00  0.00    +0.152 HD
BRANCH  26  30
ATOM     30  O   UNL     1       4.783  -0.129  31.975  0.00  0.00    -0.444 OA
BRANCH  30  31
ATOM     31  C   UNL     1       5.273  -1.125  31.073  0.00  0.00    +0.292 C 
BRANCH  31  33
ATOM     32  N   UNL     1       5.296  -1.370  28.610  0.00  0.00    -0.131 NA
ATOM     33  C   UNL     1       4.646  -0.970  29.747  0.00  0.00    +0.120 A 
ATOM     34  C   UNL     1       3.410  -0.469  29.407  0.00  0.00    +0.137 A 
ATOM     35  N   UNL     1       3.334  -0.654  28.058  0.00  0.00    -0.247 N 
ATOM     36  N   UNL     1       4.489  -1.164  27.580  0.00  0.00    -0.065 NA
BRANCH  35  37
ATOM     37  C   UNL     1       2.232  -0.448  27.131  0.00  0.00    +0.180 C 
BRANCH  37  38
ATOM     38  C   UNL     1       2.191   0.918  26.491  0.00  0.00    -0.026 A 
ATOM     39  C   UNL     1       1.813   2.042  27.236  0.00  0.00    +0.009 A 
ATOM     40  C   UNL     1       1.779   3.304  26.636  0.00  0.00    +0.046 A 
ATOM     41  C   UNL     1       2.138   3.465  25.296  0.00  0.00    +0.120 A 
ATOM     42  C   UNL     1       2.492   2.349  24.543  0.00  0.00    +0.046 A 
ATOM     43  C   UNL     1       2.520   1.081  25.136  0.00  0.00    +0.009 A 
BRANCH  41  44
ATOM     44  O   UNL     1       2.047   4.742  24.815  0.00  0.00    -0.495 OA
ATOM     45  C   UNL     1       1.626   4.856  23.458  0.00  0.00    +0.277 C 
ENDBRANCH  41  44
ENDBRANCH  37  38
ENDBRANCH  35  37
ENDBRANCH  31  33
ENDBRANCH  30  31
ENDBRANCH  26  30
ENDBRANCH  25  28
ENDBRANCH   1  25
TORSDOF 16
