REMARK VINA RESULT:    -6.687     14.308     17.766
REMARK INTER + INTRA:         -14.662
REMARK INTER:                 -11.377
REMARK INTRA:                  -3.285
REMARK UNBOUND:                -3.089
REMARK  Name = lig_assembled_91.pdb
REMARK  16 active torsions:
REMARK  status: ('A' for Active; 'I' for Inactive)
REMARK    1  A    between atoms: _2  and  _10
REMARK    2  A    between atoms: _5  and  _26
REMARK    3  A    between atoms: _7  and  _8
REMARK    4  A    between atoms: _7  and  _26
REMARK    5  A    between atoms: _22  and  _42
REMARK    6  A    between atoms: _24  and  _30
REMARK    7  A    between atoms: _25  and  _29
REMARK    8  A    between atoms: _29  and  _30
REMARK    9  A    between atoms: _32  and  _33
REMARK   10  A    between atoms: _34  and  _35
REMARK   11  A    between atoms: _36  and  _38
REMARK   12  A    between atoms: _38  and  _39
REMARK   13  A    between atoms: _38  and  _40
REMARK   14  A    between atoms: _40  and  _41
REMARK   15  A    between atoms: _40  and  _42
REMARK   16  A    between atoms: _43  and  _45
REMARK                            x       y       z     vdW  Elec       q    Type
REMARK                         _______ _______ _______ _____ _____    ______ ____
ROOT
ATOM      1  C   UNL     1      17.534   5.300  22.779  0.00  0.00    +0.401 C 
ATOM      2  O   UNL     1      16.480   5.878  22.502  0.00  0.00    -0.226 OA
ATOM      3  N   UNL     1      17.805   4.040  22.436  0.00  0.00    -0.279 N 
ATOM      4  H   UNL     1      18.702   3.657  22.700  0.00  0.00    +0.152 HD
ENDROOT
BRANCH   3   5
ATOM      5  C   UNL     1      16.875   3.179  21.696  0.00  0.00    +0.141 C 
BRANCH   5   6
ATOM      6  C   UNL     1      16.953   1.728  22.159  0.00  0.00    +0.163 C 
BRANCH   6   7
ATOM      7  O   UNL     1      17.812   0.978  21.285  0.00  0.00    -0.388 OA
ATOM      8  H   UNL     1      18.294   0.322  21.793  0.00  0.00    +0.210 HD
ENDBRANCH   6   7
BRANCH   6   9
ATOM      9  C   UNL     1      17.466   1.678  23.609  0.00  0.00    +0.175 C 
BRANCH   9  10
ATOM     10  C   UNL     1      17.818   0.249  24.048  0.00  0.00    +0.176 C 
ATOM     11  O   UNL     1      16.695  -0.612  23.713  0.00  0.00    -0.332 OA
ATOM     12  C   UNL     1      16.895  -2.042  23.966  0.00  0.00    +0.277 C 
ATOM     13  C   UNL     1      17.314  -2.278  25.437  0.00  0.00    +0.110 C 
ATOM     14  C   UNL     1      18.485  -1.362  25.850  0.00  0.00    +0.143 C 
ATOM     15  C   UNL     1      18.172   0.102  25.540  0.00  0.00    +0.133 C 
BRANCH  15  16
ATOM     16  N   UNL     1      19.328   0.955  25.857  0.00  0.00    -0.308 N 
ATOM     17  H   UNL     1      20.174   0.822  25.320  0.00  0.00    +0.149 HD
ATOM     18  C   UNL     1      19.333   1.894  26.808  0.00  0.00    +0.210 C 
ATOM     19  C   UNL     1      18.038   2.054  27.626  0.00  0.00    +0.109 C 
ATOM     20  O   UNL     1      20.312   2.603  27.041  0.00  0.00    -0.276 OA
ENDBRANCH  15  16
BRANCH  12  21
ATOM     21  C   UNL     1      17.973  -2.618  23.024  0.00  0.00    +0.414 C 
ATOM     22  O   UNL     1      18.554  -3.664  23.313  0.00  0.00    -0.240 OA
ATOM     23  O   UNL     1      18.261  -2.038  21.976  0.00  0.00    -0.240 OA
ENDBRANCH  12  21
BRANCH  14  24
ATOM     24  O   UNL     1      18.738  -1.503  27.249  0.00  0.00    -0.390 OA
ATOM     25  H   UNL     1      18.036  -1.077  27.746  0.00  0.00    +0.210 HD
ENDBRANCH  14  24
BRANCH  12  26
ATOM     26  O   UNL     1      15.633  -2.719  23.735  0.00  0.00    -0.343 OA
ATOM     27  C   UNL     1      15.281  -3.714  24.730  0.00  0.00    +0.198 C 
ENDBRANCH  12  26
ENDBRANCH   9  10
BRANCH   9  28
ATOM     28  O   UNL     1      16.486   2.245  24.502  0.00  0.00    -0.387 OA
ATOM     29  H   UNL     1      15.916   1.548  24.835  0.00  0.00    +0.210 HD
ENDBRANCH   9  28
ENDBRANCH   6   9
ENDBRANCH   5   6
ENDBRANCH   3   5
BRANCH   1  30
ATOM     30  O   UNL     1      18.542   6.005  23.507  0.00  0.00    -0.444 OA
BRANCH  30  31
ATOM     31  C   UNL     1      19.338   5.074  24.245  0.00  0.00    +0.292 C 
BRANCH  31  33
ATOM     32  N   UNL     1      20.913   5.914  25.950  0.00  0.00    -0.131 NA
ATOM     33  C   UNL     1      19.639   5.602  25.590  0.00  0.00    +0.121 A 
ATOM     34  C   UNL     1      18.798   5.880  26.644  0.00  0.00    +0.143 A 
ATOM     35  N   UNL     1      19.616   6.325  27.663  0.00  0.00    -0.218 N 
ATOM     36  N   UNL     1      20.892   6.353  27.200  0.00  0.00    -0.060 NA
BRANCH  35  37
ATOM     37  C   UNL     1      19.282   6.705  28.999  0.00  0.00    +0.085 A 
ATOM     38  C   UNL     1      19.259   5.717  30.049  0.00  0.00    +0.026 A 
ATOM     39  C   UNL     1      18.893   6.192  31.323  0.00  0.00    +0.074 A 
ATOM     40  C   UNL     1      18.833   5.335  32.412  0.00  0.00    +0.028 A 
ATOM     41  C   UNL     1      19.132   3.981  32.307  0.00  0.00    +0.002 A 
ATOM     42  C   UNL     1      19.530   3.478  31.085  0.00  0.00    +0.001 A 
ATOM     43  N   UNL     1      18.606   7.465  31.586  0.00  0.00    -0.247 NA
ATOM     44  C   UNL     1      18.658   8.380  30.620  0.00  0.00    +0.074 A 
ATOM     45  C   UNL     1      18.337   9.678  31.004  0.00  0.00    +0.028 A 
ATOM     46  C   UNL     1      18.310  10.736  30.102  0.00  0.00    +0.002 A 
ATOM     47  C   UNL     1      18.599  10.490  28.775  0.00  0.00    +0.001 A 
ATOM     48  C   UNL     1      18.917   9.189  28.370  0.00  0.00    +0.012 A 
ATOM     49  C   UNL     1      19.613   4.333  29.980  0.00  0.00    +0.012 A 
ATOM     50  C   UNL     1      18.978   8.088  29.284  0.00  0.00    +0.026 A 
ENDBRANCH  35  37
ENDBRANCH  31  33
ENDBRANCH  30  31
ENDBRANCH   1  30
TORSDOF 14
