REMARK VINA RESULT:    -5.566     14.228     15.973
REMARK INTER + INTRA:         -14.036
REMARK INTER:                 -11.375
REMARK INTRA:                  -2.661
REMARK UNBOUND:                -3.914
REMARK  Name = lig_assembled_73.pdb
REMARK  18 active torsions:
REMARK  status: ('A' for Active; 'I' for Inactive)
REMARK    1  A    between atoms: _2  and  _10
REMARK    2  A    between atoms: _3  and  _14
REMARK    3  A    between atoms: _5  and  _22
REMARK    4  A    between atoms: _7  and  _8
REMARK    5  A    between atoms: _7  and  _22
REMARK    6  A    between atoms: _13  and  _16
REMARK    7  A    between atoms: _18  and  _38
REMARK    8  A    between atoms: _20  and  _26
REMARK    9  A    between atoms: _21  and  _25
REMARK   10  A    between atoms: _25  and  _26
REMARK   11  A    between atoms: _28  and  _29
REMARK   12  A    between atoms: _30  and  _31
REMARK   13  A    between atoms: _32  and  _34
REMARK   14  A    between atoms: _34  and  _35
REMARK   15  A    between atoms: _34  and  _36
REMARK   16  A    between atoms: _36  and  _37
REMARK   17  A    between atoms: _36  and  _38
REMARK   18  A    between atoms: _39  and  _41
REMARK                            x       y       z     vdW  Elec       q    Type
REMARK                         _______ _______ _______ _____ _____    ______ ____
ROOT
ATOM      1  C   UNL     1      18.590  10.472  30.280  0.00  0.00    +0.163 C 
ENDROOT
BRANCH   1   2
ATOM      2  O   UNL     1      17.208  10.760  30.011  0.00  0.00    -0.388 OA
ATOM      3  H   UNL     1      16.657  10.342  30.678  0.00  0.00    +0.210 HD
ENDBRANCH   1   2
BRANCH   1   4
ATOM      4  C   UNL     1      18.829   8.954  30.365  0.00  0.00    +0.175 C 
BRANCH   4   5
ATOM      5  C   UNL     1      17.968   8.293  31.450  0.00  0.00    +0.176 C 
ATOM      6  O   UNL     1      17.974   9.162  32.617  0.00  0.00    -0.332 OA
ATOM      7  C   UNL     1      17.112   8.740  33.725  0.00  0.00    +0.277 C 
ATOM      8  C   UNL     1      17.449   7.290  34.151  0.00  0.00    +0.110 C 
ATOM      9  C   UNL     1      17.486   6.335  32.940  0.00  0.00    +0.143 C 
ATOM     10  C   UNL     1      18.409   6.871  31.846  0.00  0.00    +0.133 C 
BRANCH  10  11
ATOM     11  N   UNL     1      18.369   5.997  30.663  0.00  0.00    -0.308 N 
ATOM     12  H   UNL     1      17.516   5.975  30.122  0.00  0.00    +0.149 HD
ATOM     13  C   UNL     1      19.386   5.232  30.257  0.00  0.00    +0.210 C 
ATOM     14  C   UNL     1      20.663   5.269  31.118  0.00  0.00    +0.109 C 
ATOM     15  O   UNL     1      19.329   4.521  29.254  0.00  0.00    -0.276 OA
ENDBRANCH  10  11
BRANCH   7  16
ATOM     16  C   UNL     1      15.624   8.828  33.326  0.00  0.00    +0.414 C 
ATOM     17  O   UNL     1      14.860   7.896  33.574  0.00  0.00    -0.240 OA
ATOM     18  O   UNL     1      15.189   9.829  32.755  0.00  0.00    -0.240 OA
ENDBRANCH   7  16
BRANCH   9  19
ATOM     19  O   UNL     1      17.946   5.048  33.355  0.00  0.00    -0.390 OA
ATOM     20  H   UNL     1      17.317   4.378  33.079  0.00  0.00    +0.210 HD
ENDBRANCH   9  19
BRANCH   7  21
ATOM     21  O   UNL     1      17.368   9.619  34.851  0.00  0.00    -0.343 OA
ATOM     22  C   UNL     1      16.989   9.083  36.144  0.00  0.00    +0.198 C 
ENDBRANCH   7  21
ENDBRANCH   4   5
BRANCH   4  23
ATOM     23  O   UNL     1      20.225   8.685  30.604  0.00  0.00    -0.387 OA
ATOM     24  H   UNL     1      20.610   8.276  29.826  0.00  0.00    +0.210 HD
ENDBRANCH   4  23
ENDBRANCH   1   4
BRANCH   1  25
ATOM     25  C   UNL     1      19.469  11.066  29.185  0.00  0.00    +0.141 C 
BRANCH  25  28
ATOM     26  C   UNL     1      19.037   9.779  27.121  0.00  0.00    +0.401 C 
ATOM     27  O   UNL     1      17.939  10.301  26.913  0.00  0.00    -0.226 OA
ATOM     28  N   UNL     1      19.817  10.072  28.162  0.00  0.00    -0.279 N 
ATOM     29  H   UNL     1      20.696   9.583  28.252  0.00  0.00    +0.152 HD
BRANCH  26  30
ATOM     30  O   UNL     1      19.522   8.793  26.206  0.00  0.00    -0.444 OA
BRANCH  30  31
ATOM     31  C   UNL     1      19.369   7.492  26.780  0.00  0.00    +0.292 C 
BRANCH  31  33
ATOM     32  N   UNL     1      18.885   6.878  24.432  0.00  0.00    -0.131 NA
ATOM     33  C   UNL     1      19.064   6.501  25.731  0.00  0.00    +0.121 A 
ATOM     34  C   UNL     1      18.915   5.137  25.827  0.00  0.00    +0.143 A 
ATOM     35  N   UNL     1      18.649   4.717  24.544  0.00  0.00    -0.220 N 
ATOM     36  N   UNL     1      18.634   5.790  23.717  0.00  0.00    -0.060 NA
BRANCH  35  37
ATOM     37  C   UNL     1      18.410   3.402  24.070  0.00  0.00    +0.074 A 
ATOM     38  C   UNL     1      18.572   2.307  24.938  0.00  0.00    +0.032 A 
ATOM     39  C   UNL     1      18.350   0.998  24.488  0.00  0.00    +0.054 A 
ATOM     40  C   UNL     1      17.968   0.769  23.168  0.00  0.00    +0.195 A 
ATOM     41  C   UNL     1      17.807   1.858  22.313  0.00  0.00    +0.316 A 
ATOM     42  C   UNL     1      18.017   3.176  22.745  0.00  0.00    +0.116 A 
BRANCH  41  43
ATOM     43  N   UNL     1      17.420   1.653  20.932  0.00  0.00    +0.083 N 
ATOM     44  O   UNL     1      16.386   2.210  20.538  0.00  0.00    +0.042 OA
ATOM     45  O   UNL     1      18.106   0.858  20.274  0.00  0.00    -0.576 OA
ENDBRANCH  41  43
BRANCH  40  46
ATOM     46  O   UNL     1      17.732  -0.502  22.739  0.00  0.00    -0.501 OA
ATOM     47  H   UNL     1      17.645  -1.101  23.500  0.00  0.00    +0.292 HD
ENDBRANCH  40  46
ENDBRANCH  35  37
ENDBRANCH  31  33
ENDBRANCH  30  31
ENDBRANCH  26  30
ENDBRANCH  25  28
ENDBRANCH   1  25
TORSDOF 16
