REMARK VINA RESULT:    -6.009     14.680     17.551
REMARK INTER + INTRA:         -12.466
REMARK INTER:                 -10.372
REMARK INTRA:                  -2.093
REMARK UNBOUND:                -2.065
REMARK  Name = lig_assembled_49.pdb
REMARK  16 active torsions:
REMARK  status: ('A' for Active; 'I' for Inactive)
REMARK    1  A    between atoms: _2  and  _9
REMARK    2  A    between atoms: _4  and  _17
REMARK    3  A    between atoms: _6  and  _7
REMARK    4  A    between atoms: _6  and  _17
REMARK    5  A    between atoms: _13  and  _33
REMARK    6  A    between atoms: _15  and  _21
REMARK    7  A    between atoms: _16  and  _20
REMARK    8  A    between atoms: _20  and  _21
REMARK    9  A    between atoms: _23  and  _24
REMARK   10  A    between atoms: _25  and  _26
REMARK   11  A    between atoms: _27  and  _29
REMARK   12  A    between atoms: _29  and  _30
REMARK   13  A    between atoms: _29  and  _31
REMARK   14  A    between atoms: _31  and  _32
REMARK   15  A    between atoms: _31  and  _33
REMARK   16  A    between atoms: _34  and  _36
REMARK                            x       y       z     vdW  Elec       q    Type
REMARK                         _______ _______ _______ _____ _____    ______ ____
ROOT
ATOM      1  C   UNL     1      18.040  -1.705  23.834  0.00  0.00    +0.175 C 
ENDROOT
BRANCH   1   2
ATOM      2  C   UNL     1      17.373  -2.736  24.756  0.00  0.00    +0.176 C 
ATOM      3  O   UNL     1      16.580  -3.630  23.928  0.00  0.00    -0.332 OA
ATOM      4  C   UNL     1      15.949  -4.752  24.630  0.00  0.00    +0.277 C 
ATOM      5  C   UNL     1      15.092  -4.237  25.813  0.00  0.00    +0.110 C 
ATOM      6  C   UNL     1      15.883  -3.257  26.704  0.00  0.00    +0.143 C 
ATOM      7  C   UNL     1      16.499  -2.132  25.871  0.00  0.00    +0.133 C 
BRANCH   7   8
ATOM      8  N   UNL     1      17.321  -1.254  26.719  0.00  0.00    -0.308 N 
ATOM      9  H   UNL     1      18.121  -1.661  27.183  0.00  0.00    +0.149 HD
ATOM     10  C   UNL     1      17.079   0.045  26.915  0.00  0.00    +0.210 C 
ATOM     11  C   UNL     1      15.838   0.629  26.215  0.00  0.00    +0.109 C 
ATOM     12  O   UNL     1      17.794   0.759  27.619  0.00  0.00    -0.276 OA
ENDBRANCH   7   8
BRANCH   4  13
ATOM     13  C   UNL     1      17.014  -5.737  25.155  0.00  0.00    +0.414 C 
ATOM     14  O   UNL     1      17.992  -6.020  24.464  0.00  0.00    -0.240 OA
ATOM     15  O   UNL     1      16.896  -6.248  26.270  0.00  0.00    -0.240 OA
ENDBRANCH   4  13
BRANCH   6  16
ATOM     16  O   UNL     1      15.015  -2.693  27.688  0.00  0.00    -0.390 OA
ATOM     17  H   UNL     1      15.525  -2.448  28.464  0.00  0.00    +0.210 HD
ENDBRANCH   6  16
BRANCH   4  18
ATOM     18  O   UNL     1      15.074  -5.433  23.694  0.00  0.00    -0.343 OA
ATOM     19  C   UNL     1      14.549  -6.702  24.158  0.00  0.00    +0.198 C 
ENDBRANCH   4  18
ENDBRANCH   1   2
BRANCH   1  20
ATOM     20  O   UNL     1      17.104  -0.662  23.495  0.00  0.00    -0.387 OA
ATOM     21  H   UNL     1      17.538   0.191  23.560  0.00  0.00    +0.210 HD
ENDBRANCH   1  20
BRANCH   1  22
ATOM     22  C   UNL     1      18.600  -2.350  22.554  0.00  0.00    +0.163 C 
BRANCH  22  23
ATOM     23  O   UNL     1      19.340  -3.543  22.862  0.00  0.00    -0.388 OA
ATOM     24  H   UNL     1      18.854  -4.066  23.504  0.00  0.00    +0.210 HD
ENDBRANCH  22  23
BRANCH  22  25
ATOM     25  C   UNL     1      19.497  -1.352  21.831  0.00  0.00    +0.141 C 
BRANCH  25  28
ATOM     26  C   UNL     1      19.180   1.006  21.161  0.00  0.00    +0.401 C 
ATOM     27  O   UNL     1      20.285   1.369  21.570  0.00  0.00    -0.226 OA
ATOM     28  N   UNL     1      18.727  -0.246  21.248  0.00  0.00    -0.279 N 
ATOM     29  H   UNL     1      17.802  -0.444  20.893  0.00  0.00    +0.152 HD
BRANCH  26  30
ATOM     30  O   UNL     1      18.312   1.968  20.558  0.00  0.00    -0.444 OA
BRANCH  30  31
ATOM     31  C   UNL     1      17.220   2.246  21.439  0.00  0.00    +0.292 C 
BRANCH  31  33
ATOM     32  N   UNL     1      16.810   4.643  21.890  0.00  0.00    -0.131 NA
ATOM     33  C   UNL     1      17.474   3.486  22.197  0.00  0.00    +0.120 A 
ATOM     34  C   UNL     1      18.335   3.725  23.244  0.00  0.00    +0.137 A 
ATOM     35  N   UNL     1      18.153   5.047  23.525  0.00  0.00    -0.248 N 
ATOM     36  N   UNL     1      17.233   5.594  22.710  0.00  0.00    -0.065 NA
BRANCH  35  37
ATOM     37  C   UNL     1      18.828   5.839  24.524  0.00  0.00    +0.109 C 
ATOM     38  C   UNL     1      18.037   7.067  24.980  0.00  0.00    +0.027 C 
ATOM     39  C   UNL     1      18.720   7.445  26.283  0.00  0.00    +0.002 C 
ATOM     40  C   UNL     1      19.018   6.109  26.951  0.00  0.00    +0.002 C 
ATOM     41  C   UNL     1      19.153   5.086  25.821  0.00  0.00    +0.027 C 
ENDBRANCH  35  37
ENDBRANCH  31  33
ENDBRANCH  30  31
ENDBRANCH  26  30
ENDBRANCH  25  28
ENDBRANCH  22  25
ENDBRANCH   1  22
TORSDOF 14
