REMARK VINA RESULT:    -6.883      4.815      6.341
REMARK INTER + INTRA:         -13.700
REMARK INTER:                 -11.366
REMARK INTRA:                  -2.334
REMARK UNBOUND:                -1.788
REMARK  Name = lig_assembled_20.pdb
REMARK  16 active torsions:
REMARK  status: ('A' for Active; 'I' for Inactive)
REMARK    1  A    between atoms: _2  and  _11
REMARK    2  A    between atoms: _6  and  _21
REMARK    3  A    between atoms: _8  and  _9
REMARK    4  A    between atoms: _8  and  _21
REMARK    5  A    between atoms: _17  and  _37
REMARK    6  A    between atoms: _19  and  _25
REMARK    7  A    between atoms: _20  and  _24
REMARK    8  A    between atoms: _24  and  _25
REMARK    9  A    between atoms: _27  and  _28
REMARK   10  A    between atoms: _29  and  _30
REMARK   11  A    between atoms: _31  and  _33
REMARK   12  A    between atoms: _33  and  _34
REMARK   13  A    between atoms: _33  and  _35
REMARK   14  A    between atoms: _35  and  _36
REMARK   15  A    between atoms: _35  and  _37
REMARK   16  A    between atoms: _38  and  _40
REMARK                            x       y       z     vdW  Elec       q    Type
REMARK                         _______ _______ _______ _____ _____    ______ ____
ROOT
ATOM      1  C   UNL     1       8.401   2.582  35.009  0.00  0.00    +0.163 C 
ENDROOT
BRANCH   1   2
ATOM      2  O   UNL     1       9.004   3.184  36.165  0.00  0.00    -0.388 OA
ATOM      3  H   UNL     1       9.932   2.941  36.207  0.00  0.00    +0.210 HD
ENDBRANCH   1   2
BRANCH   1   4
ATOM      4  C   UNL     1       9.271   1.436  34.503  0.00  0.00    +0.141 C 
BRANCH   4   7
ATOM      5  C   UNL     1       7.981  -0.655  34.771  0.00  0.00    +0.401 C 
ATOM      6  O   UNL     1       8.168  -0.725  35.988  0.00  0.00    -0.226 OA
ATOM      7  N   UNL     1       8.465   0.318  33.998  0.00  0.00    -0.279 N 
ATOM      8  H   UNL     1       8.266   0.284  33.008  0.00  0.00    +0.152 HD
BRANCH   5   9
ATOM      9  O   UNL     1       7.205  -1.669  34.128  0.00  0.00    -0.444 OA
BRANCH   9  10
ATOM     10  C   UNL     1       7.951  -2.225  33.042  0.00  0.00    +0.292 C 
BRANCH  10  12
ATOM     11  N   UNL     1       6.488  -0.800  31.635  0.00  0.00    -0.131 NA
ATOM     12  C   UNL     1       7.334  -1.865  31.752  0.00  0.00    +0.121 A 
ATOM     13  C   UNL     1       7.469  -2.466  30.523  0.00  0.00    +0.143 A 
ATOM     14  N   UNL     1       6.680  -1.728  29.672  0.00  0.00    -0.220 N 
ATOM     15  N   UNL     1       6.094  -0.723  30.369  0.00  0.00    -0.060 NA
BRANCH  14  16
ATOM     16  C   UNL     1       6.461  -1.919  28.283  0.00  0.00    +0.068 A 
ATOM     17  C   UNL     1       5.243  -1.525  27.707  0.00  0.00    +0.030 A 
ATOM     18  C   UNL     1       4.996  -1.695  26.337  0.00  0.00    +0.030 A 
ATOM     19  C   UNL     1       6.014  -2.272  25.572  0.00  0.00    +0.066 A 
ATOM     20  C   UNL     1       7.229  -2.675  26.112  0.00  0.00    +0.021 A 
ATOM     21  C   UNL     1       7.951  -3.196  25.017  0.00  0.00    +0.142 A 
ATOM     22  N   UNL     1       7.267  -3.134  23.873  0.00  0.00    -0.181 NA
ATOM     23  N   UNL     1       6.101  -2.571  24.236  0.00  0.00    -0.277 N 
ATOM     24  H   UNL     1       5.398  -2.417  23.524  0.00  0.00    +0.189 HD
ATOM     25  C   UNL     1       7.466  -2.501  27.487  0.00  0.00    +0.039 A 
ENDBRANCH  14  16
ENDBRANCH  10  12
ENDBRANCH   9  10
ENDBRANCH   5   9
ENDBRANCH   4   7
ENDBRANCH   1   4
BRANCH   1  26
ATOM     26  C   UNL     1       8.210   3.616  33.886  0.00  0.00    +0.175 C 
BRANCH  26  27
ATOM     27  C   UNL     1       7.193   4.702  34.267  0.00  0.00    +0.176 C 
ATOM     28  O   UNL     1       7.784   5.520  35.314  0.00  0.00    -0.332 OA
ATOM     29  C   UNL     1       6.993   6.681  35.733  0.00  0.00    +0.277 C 
ATOM     30  C   UNL     1       5.569   6.242  36.153  0.00  0.00    +0.110 C 
ATOM     31  C   UNL     1       4.912   5.343  35.084  0.00  0.00    +0.143 C 
ATOM     32  C   UNL     1       5.821   4.169  34.720  0.00  0.00    +0.133 C 
BRANCH  32  33
ATOM     33  N   UNL     1       5.223   3.370  33.640  0.00  0.00    -0.308 N 
ATOM     34  H   UNL     1       5.137   3.798  32.728  0.00  0.00    +0.149 HD
ATOM     35  C   UNL     1       4.785   2.116  33.785  0.00  0.00    +0.210 C 
ATOM     36  C   UNL     1       4.906   1.502  35.192  0.00  0.00    +0.109 C 
ATOM     37  O   UNL     1       4.302   1.465  32.858  0.00  0.00    -0.276 OA
ENDBRANCH  32  33
BRANCH  29  38
ATOM     38  C   UNL     1       6.899   7.719  34.595  0.00  0.00    +0.414 C 
ATOM     39  O   UNL     1       5.801   8.126  34.217  0.00  0.00    -0.240 OA
ATOM     40  O   UNL     1       7.919   8.148  34.056  0.00  0.00    -0.240 OA
ENDBRANCH  29  38
BRANCH  31  41
ATOM     41  O   UNL     1       3.668   4.841  35.576  0.00  0.00    -0.390 OA
ATOM     42  H   UNL     1       3.110   4.589  34.837  0.00  0.00    +0.210 HD
ENDBRANCH  31  41
BRANCH  29  43
ATOM     43  O   UNL     1       7.646   7.276  36.884  0.00  0.00    -0.343 OA
ATOM     44  C   UNL     1       8.461   6.366  37.665  0.00  0.00    +0.198 C 
ENDBRANCH  29  43
ENDBRANCH  26  27
BRANCH  26  45
ATOM     45  O   UNL     1       7.802   2.959  32.669  0.00  0.00    -0.387 OA
ATOM     46  H   UNL     1       6.848   3.015  32.579  0.00  0.00    +0.210 HD
ENDBRANCH  26  45
ENDBRANCH   1  26
TORSDOF 14
