REMARK VINA RESULT:    -6.798      2.248      2.635
REMARK INTER + INTRA:         -13.594
REMARK INTER:                 -11.797
REMARK INTRA:                  -1.798
REMARK UNBOUND:                -1.828
REMARK  Name = lig_assembled_70.pdb
REMARK  16 active torsions:
REMARK  status: ('A' for Active; 'I' for Inactive)
REMARK    1  A    between atoms: _2  and  _10
REMARK    2  A    between atoms: _5  and  _22
REMARK    3  A    between atoms: _7  and  _8
REMARK    4  A    between atoms: _7  and  _22
REMARK    5  A    between atoms: _18  and  _38
REMARK    6  A    between atoms: _20  and  _26
REMARK    7  A    between atoms: _21  and  _25
REMARK    8  A    between atoms: _25  and  _26
REMARK    9  A    between atoms: _28  and  _29
REMARK   10  A    between atoms: _30  and  _31
REMARK   11  A    between atoms: _32  and  _34
REMARK   12  A    between atoms: _34  and  _35
REMARK   13  A    between atoms: _34  and  _36
REMARK   14  A    between atoms: _36  and  _37
REMARK   15  A    between atoms: _36  and  _38
REMARK   16  A    between atoms: _39  and  _41
REMARK                            x       y       z     vdW  Elec       q    Type
REMARK                         _______ _______ _______ _____ _____    ______ ____
ROOT
ATOM      1  C   UNL     1       5.196   2.978  32.055  0.00  0.00    +0.163 C 
ENDROOT
BRANCH   1   2
ATOM      2  O   UNL     1       4.238   3.888  32.618  0.00  0.00    -0.388 OA
ATOM      3  H   UNL     1       3.391   3.774  32.179  0.00  0.00    +0.210 HD
ENDBRANCH   1   2
BRANCH   1   4
ATOM      4  C   UNL     1       4.653   1.553  32.102  0.00  0.00    +0.141 C 
BRANCH   4   7
ATOM      5  C   UNL     1       2.332   0.933  31.527  0.00  0.00    +0.401 C 
ATOM      6  O   UNL     1       2.022   0.645  32.685  0.00  0.00    -0.226 OA
ATOM      7  N   UNL     1       3.542   1.360  31.163  0.00  0.00    -0.279 N 
ATOM      8  H   UNL     1       3.702   1.562  30.186  0.00  0.00    +0.152 HD
BRANCH   5   9
ATOM      9  O   UNL     1       1.352   0.805  30.493  0.00  0.00    -0.444 OA
BRANCH   9  10
ATOM     10  C   UNL     1       1.557  -0.423  29.790  0.00  0.00    +0.292 C 
BRANCH  10  12
ATOM     11  N   UNL     1       2.911  -0.927  27.775  0.00  0.00    -0.131 NA
ATOM     12  C   UNL     1       1.971  -0.158  28.399  0.00  0.00    +0.121 A 
ATOM     13  C   UNL     1       1.541   0.816  27.530  0.00  0.00    +0.143 A 
ATOM     14  N   UNL     1       2.244   0.593  26.368  0.00  0.00    -0.218 N 
ATOM     15  N   UNL     1       3.076  -0.459  26.544  0.00  0.00    -0.060 NA
BRANCH  14  16
ATOM     16  C   UNL     1       2.152   1.285  25.143  0.00  0.00    +0.086 A 
ATOM     17  C   UNL     1       2.077   0.591  23.947  0.00  0.00    +0.139 A 
ATOM     18  N   UNL     1       1.941   1.192  22.737  0.00  0.00    -0.253 NA
ATOM     19  C   UNL     1       1.867   2.535  22.696  0.00  0.00    +0.071 A 
ATOM     20  C   UNL     1       1.951   3.325  23.861  0.00  0.00    +0.002 A 
ATOM     21  C   UNL     1       1.869   4.727  23.780  0.00  0.00    +0.010 A 
ATOM     22  C   UNL     1       1.683   5.350  22.549  0.00  0.00    +0.001 A 
ATOM     23  C   UNL     1       1.591   4.576  21.398  0.00  0.00    +0.002 A 
ATOM     24  C   UNL     1       1.690   3.183  21.481  0.00  0.00    +0.028 A 
ATOM     25  C   UNL     1       2.104   2.679  25.094  0.00  0.00    +0.039 A 
ENDBRANCH  14  16
ENDBRANCH  10  12
ENDBRANCH   9  10
ENDBRANCH   5   9
ENDBRANCH   4   7
ENDBRANCH   1   4
BRANCH   1  26
ATOM     26  C   UNL     1       6.531   3.044  32.817  0.00  0.00    +0.175 C 
BRANCH  26  27
ATOM     27  C   UNL     1       6.368   3.653  34.217  0.00  0.00    +0.176 C 
ATOM     28  O   UNL     1       6.198   5.089  34.064  0.00  0.00    -0.332 OA
ATOM     29  C   UNL     1       5.921   5.830  35.298  0.00  0.00    +0.277 C 
ATOM     30  C   UNL     1       7.012   5.541  36.359  0.00  0.00    +0.110 C 
ATOM     31  C   UNL     1       7.250   4.027  36.534  0.00  0.00    +0.143 C 
ATOM     32  C   UNL     1       7.526   3.356  35.188  0.00  0.00    +0.133 C 
BRANCH  32  33
ATOM     33  N   UNL     1       7.665   1.901  35.357  0.00  0.00    -0.308 N 
ATOM     34  H   UNL     1       6.872   1.390  35.719  0.00  0.00    +0.149 HD
ATOM     35  C   UNL     1       8.770   1.211  35.063  0.00  0.00    +0.210 C 
ATOM     36  C   UNL     1       9.970   2.022  34.538  0.00  0.00    +0.109 C 
ATOM     37  O   UNL     1       8.853  -0.010  35.200  0.00  0.00    -0.276 OA
ENDBRANCH  32  33
BRANCH  29  38
ATOM     38  C   UNL     1       4.538   5.450  35.865  0.00  0.00    +0.414 C 
ATOM     39  O   UNL     1       4.256   5.703  37.036  0.00  0.00    -0.240 OA
ATOM     40  O   UNL     1       3.703   4.890  35.153  0.00  0.00    -0.240 OA
ENDBRANCH  29  38
BRANCH  31  41
ATOM     41  O   UNL     1       8.362   3.811  37.404  0.00  0.00    -0.390 OA
ATOM     42  H   UNL     1       8.886   4.614  37.459  0.00  0.00    +0.210 HD
ENDBRANCH  31  41
BRANCH  29  43
ATOM     43  O   UNL     1       5.949   7.246  34.987  0.00  0.00    -0.343 OA
ATOM     44  C   UNL     1       7.184   7.718  34.391  0.00  0.00    +0.198 C 
ENDBRANCH  29  43
ENDBRANCH  26  27
BRANCH  26  45
ATOM     45  O   UNL     1       7.499   3.797  32.058  0.00  0.00    -0.387 OA
ATOM     46  H   UNL     1       7.081   4.155  31.271  0.00  0.00    +0.210 HD
ENDBRANCH  26  45
ENDBRANCH   1  26
TORSDOF 14
