REMARK VINA RESULT:    -7.577      0.000      0.000
REMARK INTER + INTRA:         -17.695
REMARK INTER:                 -13.890
REMARK INTRA:                  -3.805
REMARK UNBOUND:                -3.474
REMARK  Name = lig_assembled_34.pdb
REMARK  19 active torsions:
REMARK  status: ('A' for Active; 'I' for Inactive)
REMARK    1  A    between atoms: _2  and  _9
REMARK    2  A    between atoms: _4  and  _37
REMARK    3  A    between atoms: _6  and  _7
REMARK    4  A    between atoms: _6  and  _37
REMARK    5  A    between atoms: _11  and  _12
REMARK    6  A    between atoms: _13  and  _14
REMARK    7  A    between atoms: _18  and  _31
REMARK    8  A    between atoms: _33  and  _53
REMARK    9  A    between atoms: _35  and  _41
REMARK   10  A    between atoms: _36  and  _40
REMARK   11  A    between atoms: _40  and  _41
REMARK   12  A    between atoms: _43  and  _44
REMARK   13  A    between atoms: _45  and  _46
REMARK   14  A    between atoms: _47  and  _49
REMARK   15  A    between atoms: _49  and  _50
REMARK   16  A    between atoms: _49  and  _51
REMARK   17  A    between atoms: _51  and  _52
REMARK   18  A    between atoms: _51  and  _53
REMARK   19  A    between atoms: _54  and  _56
REMARK                            x       y       z     vdW  Elec       q    Type
REMARK                         _______ _______ _______ _____ _____    ______ ____
ROOT
ATOM      1  N   UNL     1       0.954  22.374  13.183  0.00  0.00    -0.131 NA
ATOM      2  C   UNL     1       1.948  23.041  13.841  0.00  0.00    +0.121 A 
ATOM      3  C   UNL     1       1.657  23.060  15.183  0.00  0.00    +0.143 A 
ATOM      4  N   UNL     1       0.477  22.361  15.315  0.00  0.00    -0.220 N 
ATOM      5  N   UNL     1       0.055  21.975  14.081  0.00  0.00    -0.060 NA
ENDROOT
BRANCH   4   6
ATOM      6  C   UNL     1      -0.209  22.022  16.512  0.00  0.00    +0.068 A 
ATOM      7  C   UNL     1       0.337  22.382  17.749  0.00  0.00    +0.038 A 
ATOM      8  C   UNL     1      -0.224  21.968  18.982  0.00  0.00    +0.007 A 
ATOM      9  C   UNL     1      -1.422  21.225  18.960  0.00  0.00    -0.008 A 
ATOM     10  C   UNL     1      -1.996  20.907  17.705  0.00  0.00    +0.011 A 
ATOM     11  C   UNL     1      -1.392  21.283  16.492  0.00  0.00    +0.028 A 
BRANCH   9  12
ATOM     12  C   UNL     1      -2.104  20.671  20.175  0.00  0.00    +0.004 A 
ATOM     13  C   UNL     1      -3.082  21.352  20.838  0.00  0.00    +0.026 A 
ATOM     14  C   UNL     1      -3.506  22.705  20.455  0.00  0.00    +0.016 A 
ATOM     15  C   UNL     1      -4.330  23.427  21.229  0.00  0.00    +0.051 A 
ATOM     16  C   UNL     1      -4.873  22.862  22.488  0.00  0.00    +0.183 A 
ATOM     17  O   UNL     1      -5.576  23.535  23.237  0.00  0.00    -0.288 OA
ATOM     18  C   UNL     1      -4.597  21.439  22.770  0.00  0.00    +0.097 A 
ATOM     19  C   UNL     1      -3.787  20.730  21.975  0.00  0.00    +0.140 A 
ATOM     20  O   UNL     1      -3.671  19.366  22.200  0.00  0.00    -0.455 OA
ATOM     21  C   UNL     1      -2.667  18.681  21.570  0.00  0.00    +0.140 A 
ATOM     22  C   UNL     1      -2.537  17.332  21.902  0.00  0.00    +0.092 A 
ATOM     23  C   UNL     1      -1.505  16.592  21.345  0.00  0.00    +0.120 A 
ATOM     24  C   UNL     1      -0.561  17.203  20.527  0.00  0.00    +0.046 A 
ATOM     25  C   UNL     1      -0.713  18.552  20.193  0.00  0.00    +0.016 A 
ATOM     26  C   UNL     1      -1.807  19.294  20.662  0.00  0.00    +0.026 A 
BRANCH  23  27
ATOM     27  O   UNL     1      -1.451  15.256  21.613  0.00  0.00    -0.507 OA
ATOM     28  H   UNL     1      -2.028  15.086  22.375  0.00  0.00    +0.292 HD
ENDBRANCH  23  27
ENDBRANCH   9  12
BRANCH   8  29
ATOM     29  C   UNL     1       0.569  22.299  20.230  0.00  0.00    +0.072 C 
ATOM     30  O   UNL     1       0.153  23.293  20.909  0.00  0.00    -0.545 OA
ATOM     31  O   UNL     1       1.616  21.630  20.472  0.00  0.00    -0.545 OA
ENDBRANCH   8  29
ENDBRANCH   4   6
BRANCH   2  32
ATOM     32  C   UNL     1       3.113  23.616  13.142  0.00  0.00    +0.292 C 
BRANCH  32  33
ATOM     33  O   UNL     1       4.308  23.423  13.904  0.00  0.00    -0.444 OA
BRANCH  33  34
ATOM     34  C   UNL     1       4.626  22.030  13.950  0.00  0.00    +0.401 C 
ATOM     35  O   UNL     1       5.212  21.581  14.938  0.00  0.00    -0.226 OA
ATOM     36  N   UNL     1       4.258  21.291  12.902  0.00  0.00    -0.279 N 
ATOM     37  H   UNL     1       3.773  21.748  12.143  0.00  0.00    +0.152 HD
BRANCH  36  38
ATOM     38  C   UNL     1       4.518  19.850  12.790  0.00  0.00    +0.141 C 
BRANCH  38  39
ATOM     39  C   UNL     1       3.361  19.020  13.337  0.00  0.00    +0.163 C 
BRANCH  39  40
ATOM     40  O   UNL     1       2.220  19.861  13.572  0.00  0.00    -0.388 OA
ATOM     41  H   UNL     1       1.421  19.329  13.555  0.00  0.00    +0.210 HD
ENDBRANCH  39  40
BRANCH  39  42
ATOM     42  C   UNL     1       3.020  17.897  12.342  0.00  0.00    +0.175 C 
BRANCH  42  43
ATOM     43  C   UNL     1       2.933  18.410  10.898  0.00  0.00    +0.176 C 
ATOM     44  O   UNL     1       1.926  19.459  10.856  0.00  0.00    -0.332 OA
ATOM     45  C   UNL     1       1.778  20.145   9.569  0.00  0.00    +0.277 C 
ATOM     46  C   UNL     1       1.515  19.122   8.437  0.00  0.00    +0.110 C 
ATOM     47  C   UNL     1       2.542  17.970   8.461  0.00  0.00    +0.143 C 
ATOM     48  C   UNL     1       2.616  17.330   9.847  0.00  0.00    +0.133 C 
BRANCH  48  49
ATOM     49  N   UNL     1       3.659  16.292   9.880  0.00  0.00    -0.308 N 
ATOM     50  H   UNL     1       4.616  16.581   9.732  0.00  0.00    +0.149 HD
ATOM     51  C   UNL     1       3.424  14.995  10.093  0.00  0.00    +0.210 C 
ATOM     52  C   UNL     1       1.953  14.584  10.289  0.00  0.00    +0.109 C 
ATOM     53  O   UNL     1       4.320  14.150  10.129  0.00  0.00    -0.276 OA
ENDBRANCH  48  49
BRANCH  45  54
ATOM     54  C   UNL     1       3.042  20.966   9.238  0.00  0.00    +0.414 C 
ATOM     55  O   UNL     1       3.572  20.869   8.132  0.00  0.00    -0.240 OA
ATOM     56  O   UNL     1       3.531  21.724  10.077  0.00  0.00    -0.240 OA
ENDBRANCH  45  54
BRANCH  47  57
ATOM     57  O   UNL     1       2.174  16.977   7.503  0.00  0.00    -0.390 OA
ATOM     58  H   UNL     1       2.824  16.956   6.797  0.00  0.00    +0.210 HD
ENDBRANCH  47  57
BRANCH  45  59
ATOM     59  O   UNL     1       0.632  21.030   9.662  0.00  0.00    -0.343 OA
ATOM     60  C   UNL     1      -0.439  20.558  10.518  0.00  0.00    +0.198 C 
ENDBRANCH  45  59
ENDBRANCH  42  43
BRANCH  42  61
ATOM     61  O   UNL     1       1.783  17.259  12.718  0.00  0.00    -0.387 OA
ATOM     62  H   UNL     1       1.947  16.334  12.918  0.00  0.00    +0.210 HD
ENDBRANCH  42  61
ENDBRANCH  39  42
ENDBRANCH  38  39
ENDBRANCH  36  38
ENDBRANCH  33  34
ENDBRANCH  32  33
ENDBRANCH   2  32
TORSDOF 17
