REMARK VINA RESULT:    -6.369      2.430      5.469
REMARK INTER + INTRA:         -14.755
REMARK INTER:                 -11.836
REMARK INTRA:                  -2.919
REMARK UNBOUND:                -2.243
REMARK  Name = lig_assembled_31.pdb
REMARK  20 active torsions:
REMARK  status: ('A' for Active; 'I' for Inactive)
REMARK    1  A    between atoms: _2  and  _11
REMARK    2  A    between atoms: _3  and  _12
REMARK    3  A    between atoms: _4  and  _14
REMARK    4  A    between atoms: _6  and  _24
REMARK    5  A    between atoms: _8  and  _9
REMARK    6  A    between atoms: _8  and  _24
REMARK    7  A    between atoms: _11  and  _12
REMARK    8  A    between atoms: _14  and  _15
REMARK    9  A    between atoms: _20  and  _40
REMARK   10  A    between atoms: _22  and  _28
REMARK   11  A    between atoms: _23  and  _27
REMARK   12  A    between atoms: _27  and  _28
REMARK   13  A    between atoms: _30  and  _31
REMARK   14  A    between atoms: _32  and  _33
REMARK   15  A    between atoms: _34  and  _36
REMARK   16  A    between atoms: _36  and  _37
REMARK   17  A    between atoms: _36  and  _38
REMARK   18  A    between atoms: _38  and  _39
REMARK   19  A    between atoms: _38  and  _40
REMARK   20  A    between atoms: _41  and  _43
REMARK                            x       y       z     vdW  Elec       q    Type
REMARK                         _______ _______ _______ _____ _____    ______ ____
ROOT
ATOM      1  C   UNL     1      17.316   1.740  20.488  0.00  0.00    +0.401 C 
ATOM      2  O   UNL     1      17.185   1.337  19.330  0.00  0.00    -0.226 OA
ATOM      3  N   UNL     1      17.964   1.069  21.442  0.00  0.00    -0.279 N 
ATOM      4  H   UNL     1      18.027   1.486  22.360  0.00  0.00    +0.152 HD
ENDROOT
BRANCH   1   5
ATOM      5  O   UNL     1      16.753   3.002  20.853  0.00  0.00    -0.444 OA
BRANCH   5   6
ATOM      6  C   UNL     1      16.579   3.057  22.271  0.00  0.00    +0.292 C 
BRANCH   6   8
ATOM      7  N   UNL     1      17.094   5.474  22.410  0.00  0.00    -0.131 NA
ATOM      8  C   UNL     1      17.329   4.195  22.839  0.00  0.00    +0.120 A 
ATOM      9  C   UNL     1      18.309   4.218  23.805  0.00  0.00    +0.137 A 
ATOM     10  N   UNL     1      18.634   5.538  23.911  0.00  0.00    -0.250 N 
ATOM     11  N   UNL     1      17.899   6.291  23.077  0.00  0.00    -0.065 NA
BRANCH  10  12
ATOM     12  C   UNL     1      19.626   6.150  24.771  0.00  0.00    +0.164 C 
BRANCH  12  13
ATOM     13  C   UNL     1      19.952   5.261  25.961  0.00  0.00    +0.129 C 
BRANCH  13  14
ATOM     14  N   UNL     1      19.072   5.436  27.110  0.00  0.00    -0.298 N 
ATOM     15  H   UNL     1      18.070   5.373  27.006  0.00  0.00    +0.150 HD
ATOM     16  C   UNL     1      19.561   6.095  28.207  0.00  0.00    +0.300 C 
ATOM     17  O   UNL     1      20.732   6.453  28.301  0.00  0.00    -0.253 OA
ATOM     18  N   UNL     1      18.647   6.293  29.196  0.00  0.00    -0.292 N 
ATOM     19  H   UNL     1      17.675   6.036  29.102  0.00  0.00    +0.151 HD
BRANCH  18  20
ATOM     20  C   UNL     1      19.067   6.974  30.399  0.00  0.00    +0.180 C 
BRANCH  20  21
ATOM     21  C   UNL     1      18.920   8.449  30.322  0.00  0.00    +0.122 A 
ATOM     22  O   UNL     1      17.701   9.010  30.584  0.00  0.00    -0.466 OA
ATOM     23  C   UNL     1      17.851  10.357  30.444  0.00  0.00    +0.195 A 
ATOM     24  C   UNL     1      19.144  10.670  30.094  0.00  0.00    +0.041 A 
ATOM     25  C   UNL     1      19.836   9.439  30.014  0.00  0.00    +0.046 A 
ENDBRANCH  20  21
ENDBRANCH  18  20
ENDBRANCH  13  14
ENDBRANCH  12  13
ENDBRANCH  10  12
ENDBRANCH   6   8
ENDBRANCH   5   6
ENDBRANCH   1   5
BRANCH   3  26
ATOM     26  C   UNL     1      18.590  -0.242  21.233  0.00  0.00    +0.141 C 
BRANCH  26  27
ATOM     27  C   UNL     1      18.078  -1.282  22.225  0.00  0.00    +0.163 C 
BRANCH  27  28
ATOM     28  O   UNL     1      18.981  -2.397  22.279  0.00  0.00    -0.388 OA
ATOM     29  H   UNL     1      19.887  -2.079  22.246  0.00  0.00    +0.210 HD
ENDBRANCH  27  28
BRANCH  27  30
ATOM     30  C   UNL     1      17.919  -0.635  23.611  0.00  0.00    +0.175 C 
BRANCH  30  31
ATOM     31  C   UNL     1      18.014  -1.666  24.745  0.00  0.00    +0.176 C 
ATOM     32  O   UNL     1      17.169  -2.796  24.392  0.00  0.00    -0.332 OA
ATOM     33  C   UNL     1      17.216  -3.935  25.315  0.00  0.00    +0.277 C 
ATOM     34  C   UNL     1      16.899  -3.475  26.759  0.00  0.00    +0.110 C 
ATOM     35  C   UNL     1      17.751  -2.254  27.168  0.00  0.00    +0.143 C 
ATOM     36  C   UNL     1      17.630  -1.131  26.137  0.00  0.00    +0.133 C 
BRANCH  36  37
ATOM     37  N   UNL     1      18.513  -0.009  26.492  0.00  0.00    -0.308 N 
ATOM     38  H   UNL     1      19.509  -0.181  26.515  0.00  0.00    +0.149 HD
ATOM     39  C   UNL     1      18.085   1.221  26.787  0.00  0.00    +0.210 C 
ATOM     40  C   UNL     1      16.561   1.444  26.770  0.00  0.00    +0.109 C 
ATOM     41  O   UNL     1      18.849   2.146  27.067  0.00  0.00    -0.276 OA
ENDBRANCH  36  37
BRANCH  33  42
ATOM     42  C   UNL     1      18.603  -4.609  25.282  0.00  0.00    +0.414 C 
ATOM     43  O   UNL     1      19.282  -4.580  24.256  0.00  0.00    -0.240 OA
ATOM     44  O   UNL     1      19.042  -5.182  26.279  0.00  0.00    -0.240 OA
ENDBRANCH  33  42
BRANCH  35  45
ATOM     45  O   UNL     1      17.321  -1.772  28.442  0.00  0.00    -0.390 OA
ATOM     46  H   UNL     1      17.091  -2.515  29.005  0.00  0.00    +0.210 HD
ENDBRANCH  35  45
BRANCH  33  47
ATOM     47  O   UNL     1      16.200  -4.887  24.905  0.00  0.00    -0.343 OA
ATOM     48  C   UNL     1      15.290  -5.301  25.955  0.00  0.00    +0.198 C 
ENDBRANCH  33  47
ENDBRANCH  30  31
BRANCH  30  49
ATOM     49  O   UNL     1      16.666   0.074  23.688  0.00  0.00    -0.387 OA
ATOM     50  H   UNL     1      16.751   0.922  23.246  0.00  0.00    +0.210 HD
ENDBRANCH  30  49
ENDBRANCH  27  30
ENDBRANCH  26  27
ENDBRANCH   3  26
TORSDOF 18
