REMARK VINA RESULT:    -6.396     12.205     19.759
REMARK INTER + INTRA:         -13.791
REMARK INTER:                 -11.812
REMARK INTRA:                  -1.979
REMARK UNBOUND:                -2.722
REMARK  Name = lig_assembled_3.pdb
REMARK  16 active torsions:
REMARK  status: ('A' for Active; 'I' for Inactive)
REMARK    1  A    between atoms: _2  and  _9
REMARK    2  A    between atoms: _4  and  _18
REMARK    3  A    between atoms: _6  and  _7
REMARK    4  A    between atoms: _6  and  _18
REMARK    5  A    between atoms: _14  and  _34
REMARK    6  A    between atoms: _16  and  _22
REMARK    7  A    between atoms: _17  and  _21
REMARK    8  A    between atoms: _21  and  _22
REMARK    9  A    between atoms: _24  and  _25
REMARK   10  A    between atoms: _26  and  _27
REMARK   11  A    between atoms: _28  and  _30
REMARK   12  A    between atoms: _30  and  _31
REMARK   13  A    between atoms: _30  and  _32
REMARK   14  A    between atoms: _32  and  _33
REMARK   15  A    between atoms: _32  and  _34
REMARK   16  A    between atoms: _35  and  _37
REMARK                            x       y       z     vdW  Elec       q    Type
REMARK                         _______ _______ _______ _____ _____    ______ ____
ROOT
ATOM      1  C   UNL     1      -2.066   8.430  13.410  0.00  0.00    +0.163 C 
ENDROOT
BRANCH   1   2
ATOM      2  O   UNL     1      -2.326   8.406  11.997  0.00  0.00    -0.388 OA
ATOM      3  H   UNL     1      -2.899   9.140  11.764  0.00  0.00    +0.210 HD
ENDBRANCH   1   2
BRANCH   1   4
ATOM      4  C   UNL     1      -2.421   7.082  14.028  0.00  0.00    +0.141 C 
BRANCH   4   7
ATOM      5  C   UNL     1      -1.841   6.557  16.372  0.00  0.00    +0.401 C 
ATOM      6  O   UNL     1      -2.987   6.731  16.794  0.00  0.00    -0.226 OA
ATOM      7  N   UNL     1      -1.486   6.706  15.095  0.00  0.00    -0.279 N 
ATOM      8  H   UNL     1      -0.518   6.550  14.848  0.00  0.00    +0.152 HD
BRANCH   5   9
ATOM      9  O   UNL     1      -0.813   6.178  17.291  0.00  0.00    -0.444 OA
BRANCH   9  10
ATOM     10  C   UNL     1      -0.907   4.777  17.562  0.00  0.00    +0.292 C 
BRANCH  10  12
ATOM     11  N   UNL     1       1.251   3.897  18.392  0.00  0.00    -0.131 NA
ATOM     12  C   UNL     1       0.011   4.403  18.655  0.00  0.00    +0.121 A 
ATOM     13  C   UNL     1      -0.163   4.484  20.017  0.00  0.00    +0.143 A 
ATOM     14  N   UNL     1       1.022   4.036  20.556  0.00  0.00    -0.220 N 
ATOM     15  N   UNL     1       1.857   3.672  19.550  0.00  0.00    -0.060 NA
BRANCH  14  16
ATOM     16  C   UNL     1       1.403   3.955  21.920  0.00  0.00    +0.067 A 
ATOM     17  C   UNL     1       1.465   5.105  22.720  0.00  0.00    +0.028 A 
ATOM     18  C   UNL     1       1.873   5.008  24.053  0.00  0.00    +0.002 A 
ATOM     19  C   UNL     1       2.217   3.771  24.593  0.00  0.00    +0.000 A 
ATOM     20  C   UNL     1       2.149   2.623  23.806  0.00  0.00    +0.002 A 
ATOM     21  C   UNL     1       1.742   2.711  22.472  0.00  0.00    +0.028 A 
ENDBRANCH  14  16
ENDBRANCH  10  12
ENDBRANCH   9  10
ENDBRANCH   5   9
ENDBRANCH   4   7
ENDBRANCH   1   4
BRANCH   1  22
ATOM     22  C   UNL     1      -2.875   9.541  14.100  0.00  0.00    +0.175 C 
BRANCH  22  23
ATOM     23  C   UNL     1      -3.143  10.728  13.163  0.00  0.00    +0.176 C 
ATOM     24  O   UNL     1      -1.876  11.123  12.569  0.00  0.00    -0.332 OA
ATOM     25  C   UNL     1      -1.952  12.182  11.558  0.00  0.00    +0.277 C 
ATOM     26  C   UNL     1      -2.672  13.427  12.132  0.00  0.00    +0.110 C 
ATOM     27  C   UNL     1      -4.010  13.053  12.803  0.00  0.00    +0.143 C 
ATOM     28  C   UNL     1      -3.815  11.940  13.834  0.00  0.00    +0.133 C 
BRANCH  28  29
ATOM     29  N   UNL     1      -5.109  11.532  14.403  0.00  0.00    -0.308 N 
ATOM     30  H   UNL     1      -5.787  11.114  13.781  0.00  0.00    +0.149 HD
ATOM     31  C   UNL     1      -5.446  11.678  15.687  0.00  0.00    +0.210 C 
ATOM     32  C   UNL     1      -4.401  12.342  16.603  0.00  0.00    +0.109 C 
ATOM     33  O   UNL     1      -6.532  11.313  16.139  0.00  0.00    -0.276 OA
ENDBRANCH  28  29
BRANCH  25  34
ATOM     34  C   UNL     1      -2.700  11.688  10.303  0.00  0.00    +0.414 C 
ATOM     35  O   UNL     1      -2.622  10.509   9.958  0.00  0.00    -0.240 OA
ATOM     36  O   UNL     1      -3.383  12.466   9.635  0.00  0.00    -0.240 OA
ENDBRANCH  25  34
BRANCH  27  37
ATOM     37  O   UNL     1      -4.564  14.200  13.448  0.00  0.00    -0.390 OA
ATOM     38  H   UNL     1      -3.856  14.798  13.701  0.00  0.00    +0.210 HD
ENDBRANCH  27  37
BRANCH  25  39
ATOM     39  O   UNL     1      -0.598  12.561  11.201  0.00  0.00    -0.343 OA
ATOM     40  C   UNL     1      -0.249  13.938  11.495  0.00  0.00    +0.198 C 
ENDBRANCH  25  39
ENDBRANCH  22  23
BRANCH  22  41
ATOM     41  O   UNL     1      -2.191   9.990  15.287  0.00  0.00    -0.387 OA
ATOM     42  H   UNL     1      -2.141   9.269  15.919  0.00  0.00    +0.210 HD
ENDBRANCH  22  41
ENDBRANCH   1  22
TORSDOF 14
