REMARK VINA RESULT:    -6.180      2.517      4.479
REMARK INTER + INTRA:         -14.423
REMARK INTER:                 -11.851
REMARK INTRA:                  -2.571
REMARK UNBOUND:                -2.643
REMARK  Name = lig_assembled_21.pdb
REMARK  20 active torsions:
REMARK  status: ('A' for Active; 'I' for Inactive)
REMARK    1  A    between atoms: _2  and  _9
REMARK    2  A    between atoms: _4  and  _23
REMARK    3  A    between atoms: _6  and  _7
REMARK    4  A    between atoms: _6  and  _23
REMARK    5  A    between atoms: _9  and  _10
REMARK    6  A    between atoms: _11  and  _18
REMARK    7  A    between atoms: _12  and  _13
REMARK    8  A    between atoms: _12  and  _18
REMARK    9  A    between atoms: _19  and  _39
REMARK   10  A    between atoms: _21  and  _27
REMARK   11  A    between atoms: _22  and  _26
REMARK   12  A    between atoms: _26  and  _27
REMARK   13  A    between atoms: _29  and  _30
REMARK   14  A    between atoms: _31  and  _32
REMARK   15  A    between atoms: _33  and  _35
REMARK   16  A    between atoms: _35  and  _36
REMARK   17  A    between atoms: _35  and  _37
REMARK   18  A    between atoms: _37  and  _38
REMARK   19  A    between atoms: _37  and  _39
REMARK   20  A    between atoms: _40  and  _42
REMARK                            x       y       z     vdW  Elec       q    Type
REMARK                         _______ _______ _______ _____ _____    ______ ____
ROOT
ATOM      1  C   UNL     1       5.008   2.692  31.869  0.00  0.00    +0.163 C 
ENDROOT
BRANCH   1   2
ATOM      2  O   UNL     1       4.179   3.838  32.121  0.00  0.00    -0.388 OA
ATOM      3  H   UNL     1       3.832   3.793  33.016  0.00  0.00    +0.210 HD
ENDBRANCH   1   2
BRANCH   1   4
ATOM      4  C   UNL     1       6.312   2.767  32.681  0.00  0.00    +0.175 C 
BRANCH   4   5
ATOM      5  C   UNL     1       6.071   3.252  34.118  0.00  0.00    +0.176 C 
ATOM      6  O   UNL     1       5.875   4.692  34.077  0.00  0.00    -0.332 OA
ATOM      7  C   UNL     1       5.525   5.321  35.354  0.00  0.00    +0.277 C 
ATOM      8  C   UNL     1       6.573   4.967  36.437  0.00  0.00    +0.110 C 
ATOM      9  C   UNL     1       6.839   3.448  36.497  0.00  0.00    +0.143 C 
ATOM     10  C   UNL     1       7.191   2.898  35.114  0.00  0.00    +0.133 C 
BRANCH  10  11
ATOM     11  N   UNL     1       7.356   1.436  35.168  0.00  0.00    -0.308 N 
ATOM     12  H   UNL     1       6.564   0.883  35.462  0.00  0.00    +0.149 HD
ATOM     13  C   UNL     1       8.485   0.795  34.853  0.00  0.00    +0.210 C 
ATOM     14  C   UNL     1       9.682   1.669  34.434  0.00  0.00    +0.109 C 
ATOM     15  O   UNL     1       8.590  -0.432  34.894  0.00  0.00    -0.276 OA
ENDBRANCH  10  11
BRANCH   7  16
ATOM     16  C   UNL     1       4.126   4.868  35.822  0.00  0.00    +0.414 C 
ATOM     17  O   UNL     1       3.820   4.929  37.012  0.00  0.00    -0.240 OA
ATOM     18  O   UNL     1       3.305   4.441  35.010  0.00  0.00    -0.240 OA
ENDBRANCH   7  16
BRANCH   9  19
ATOM     19  O   UNL     1       7.915   3.182  37.397  0.00  0.00    -0.390 OA
ATOM     20  H   UNL     1       7.677   3.481  38.278  0.00  0.00    +0.210 HD
ENDBRANCH   9  19
BRANCH   7  21
ATOM     21  O   UNL     1       5.533   6.760  35.163  0.00  0.00    -0.343 OA
ATOM     22  C   UNL     1       6.645   7.267  34.382  0.00  0.00    +0.198 C 
ENDBRANCH   7  21
ENDBRANCH   4   5
BRANCH   4  23
ATOM     23  O   UNL     1       7.260   3.627  32.019  0.00  0.00    -0.387 OA
ATOM     24  H   UNL     1       7.109   4.537  32.286  0.00  0.00    +0.210 HD
ENDBRANCH   4  23
ENDBRANCH   1   4
BRANCH   1  25
ATOM     25  C   UNL     1       4.256   1.415  32.230  0.00  0.00    +0.141 C 
BRANCH  25  28
ATOM     26  C   UNL     1       2.040   1.543  31.145  0.00  0.00    +0.401 C 
ATOM     27  O   UNL     1       1.585   2.352  31.956  0.00  0.00    -0.226 OA
ATOM     28  N   UNL     1       3.276   1.046  31.201  0.00  0.00    -0.279 N 
ATOM     29  H   UNL     1       3.555   0.380  30.495  0.00  0.00    +0.152 HD
BRANCH  26  30
ATOM     30  O   UNL     1       1.208   1.091  30.073  0.00  0.00    -0.444 OA
BRANCH  30  31
ATOM     31  C   UNL     1       0.271   2.116  29.731  0.00  0.00    +0.292 C 
BRANCH  31  33
ATOM     32  N   UNL     1      -0.143   3.703  27.883  0.00  0.00    -0.131 NA
ATOM     33  C   UNL     1       0.657   2.756  28.461  0.00  0.00    +0.120 A 
ATOM     34  C   UNL     1       1.786   2.590  27.689  0.00  0.00    +0.137 A 
ATOM     35  N   UNL     1       1.657   3.532  26.704  0.00  0.00    -0.247 N 
ATOM     36  N   UNL     1       0.477   4.169  26.809  0.00  0.00    -0.065 NA
BRANCH  35  37
ATOM     37  C   UNL     1       2.673   3.886  25.719  0.00  0.00    +0.184 C 
BRANCH  37  38
ATOM     38  C   UNL     1       2.231   3.843  24.276  0.00  0.00    +0.016 A 
ATOM     39  C   UNL     1       2.126   2.632  23.567  0.00  0.00    +0.137 A 
ATOM     40  C   UNL     1       1.711   2.613  22.235  0.00  0.00    +0.047 A 
ATOM     41  C   UNL     1       1.378   3.808  21.597  0.00  0.00    +0.004 A 
ATOM     42  C   UNL     1       1.490   5.019  22.278  0.00  0.00    +0.001 A 
ATOM     43  C   UNL     1       1.910   5.037  23.609  0.00  0.00    +0.009 A 
BRANCH  39  44
ATOM     44  O   UNL     1       2.540   1.459  24.241  0.00  0.00    -0.426 OA
BRANCH  44  45
ATOM     45  C   UNL     1       1.677   0.390  24.489  0.00  0.00    +0.309 C 
ATOM     46  O   UNL     1       0.607   0.425  25.083  0.00  0.00    -0.251 OA
ATOM     47  C   UNL     1       2.229  -0.842  23.835  0.00  0.00    +0.136 C 
ENDBRANCH  44  45
ENDBRANCH  39  44
ENDBRANCH  37  38
ENDBRANCH  35  37
ENDBRANCH  31  33
ENDBRANCH  30  31
ENDBRANCH  26  30
ENDBRANCH  25  28
ENDBRANCH   1  25
TORSDOF 17
