REMARK VINA RESULT:    -6.294     12.247     14.115
REMARK INTER + INTRA:         -12.529
REMARK INTER:                 -10.534
REMARK INTRA:                  -1.995
REMARK UNBOUND:                -1.636
REMARK  Name = lig_assembled_52.pdb
REMARK  16 active torsions:
REMARK  status: ('A' for Active; 'I' for Inactive)
REMARK    1  A    between atoms: _2  and  _10
REMARK    2  A    between atoms: _5  and  _18
REMARK    3  A    between atoms: _7  and  _8
REMARK    4  A    between atoms: _7  and  _18
REMARK    5  A    between atoms: _14  and  _34
REMARK    6  A    between atoms: _16  and  _22
REMARK    7  A    between atoms: _17  and  _21
REMARK    8  A    between atoms: _21  and  _22
REMARK    9  A    between atoms: _24  and  _25
REMARK   10  A    between atoms: _26  and  _27
REMARK   11  A    between atoms: _28  and  _30
REMARK   12  A    between atoms: _30  and  _31
REMARK   13  A    between atoms: _30  and  _32
REMARK   14  A    between atoms: _32  and  _33
REMARK   15  A    between atoms: _32  and  _34
REMARK   16  A    between atoms: _35  and  _37
REMARK                            x       y       z     vdW  Elec       q    Type
REMARK                         _______ _______ _______ _____ _____    ______ ____
ROOT
ATOM      1  C   UNL     1      18.401   5.967  23.522  0.00  0.00    +0.163 C 
ENDROOT
BRANCH   1   2
ATOM      2  O   UNL     1      17.655   7.013  24.165  0.00  0.00    -0.388 OA
ATOM      3  H   UNL     1      16.773   6.696  24.373  0.00  0.00    +0.210 HD
ENDBRANCH   1   2
BRANCH   1   4
ATOM      4  C   UNL     1      17.480   5.141  22.630  0.00  0.00    +0.141 C 
BRANCH   4   7
ATOM      5  C   UNL     1      16.984   2.729  22.425  0.00  0.00    +0.401 C 
ATOM      6  O   UNL     1      16.893   2.757  21.195  0.00  0.00    -0.226 OA
ATOM      7  N   UNL     1      17.249   3.798  23.177  0.00  0.00    -0.279 N 
ATOM      8  H   UNL     1      17.295   3.677  24.179  0.00  0.00    +0.152 HD
BRANCH   5   9
ATOM      9  O   UNL     1      16.793   1.487  23.108  0.00  0.00    -0.444 OA
BRANCH   9  10
ATOM     10  C   UNL     1      17.920   0.637  22.877  0.00  0.00    +0.292 C 
BRANCH  10  12
ATOM     11  N   UNL     1      18.026  -1.738  22.195  0.00  0.00    -0.131 NA
ATOM     12  C   UNL     1      17.534  -0.778  23.031  0.00  0.00    +0.121 A 
ATOM     13  C   UNL     1      16.696  -1.370  23.948  0.00  0.00    +0.143 A 
ATOM     14  N   UNL     1      16.723  -2.711  23.642  0.00  0.00    -0.218 N 
ATOM     15  N   UNL     1      17.526  -2.908  22.570  0.00  0.00    -0.060 NA
BRANCH  14  16
ATOM     16  C   UNL     1      16.069  -3.777  24.294  0.00  0.00    +0.085 A 
ATOM     17  C   UNL     1      15.939  -5.037  23.702  0.00  0.00    +0.031 A 
ATOM     18  C   UNL     1      15.262  -6.045  24.388  0.00  0.00    +0.022 A 
ATOM     19  C   UNL     1      14.743  -5.758  25.640  0.00  0.00    +0.111 A 
ATOM     20  N   UNL     1      14.859  -4.554  26.240  0.00  0.00    -0.261 NA
ATOM     21  C   UNL     1      15.519  -3.588  25.557  0.00  0.00    +0.138 A 
ENDBRANCH  14  16
ENDBRANCH  10  12
ENDBRANCH   9  10
ENDBRANCH   5   9
ENDBRANCH   4   7
ENDBRANCH   1   4
BRANCH   1  22
ATOM     22  C   UNL     1      19.069   5.050  24.560  0.00  0.00    +0.175 C 
BRANCH  22  23
ATOM     23  C   UNL     1      18.982   5.626  25.981  0.00  0.00    +0.176 C 
ATOM     24  O   UNL     1      20.198   6.385  26.232  0.00  0.00    -0.332 OA
ATOM     25  C   UNL     1      20.246   7.101  27.510  0.00  0.00    +0.277 C 
ATOM     26  C   UNL     1      19.985   6.127  28.685  0.00  0.00    +0.110 C 
ATOM     27  C   UNL     1      18.720   5.276  28.450  0.00  0.00    +0.143 C 
ATOM     28  C   UNL     1      18.773   4.578  27.090  0.00  0.00    +0.133 C 
BRANCH  28  29
ATOM     29  N   UNL     1      17.525   3.840  26.840  0.00  0.00    -0.308 N 
ATOM     30  H   UNL     1      16.662   4.365  26.828  0.00  0.00    +0.149 HD
ATOM     31  C   UNL     1      17.459   2.523  26.628  0.00  0.00    +0.210 C 
ATOM     32  C   UNL     1      18.789   1.749  26.678  0.00  0.00    +0.109 C 
ATOM     33  O   UNL     1      16.400   1.934  26.406  0.00  0.00    -0.276 OA
ENDBRANCH  28  29
BRANCH  25  34
ATOM     34  C   UNL     1      19.203   8.237  27.541  0.00  0.00    +0.414 C 
ATOM     35  O   UNL     1      18.932   8.802  28.600  0.00  0.00    -0.240 OA
ATOM     36  O   UNL     1      18.633   8.589  26.507  0.00  0.00    -0.240 OA
ENDBRANCH  25  34
BRANCH  27  37
ATOM     37  O   UNL     1      18.603   4.292  29.479  0.00  0.00    -0.390 OA
ATOM     38  H   UNL     1      19.466   4.128  29.865  0.00  0.00    +0.210 HD
ENDBRANCH  27  37
BRANCH  25  39
ATOM     39  O   UNL     1      21.578   7.656  27.663  0.00  0.00    -0.343 OA
ATOM     40  C   UNL     1      22.149   8.218  26.455  0.00  0.00    +0.198 C 
ENDBRANCH  25  39
ENDBRANCH  22  23
BRANCH  22  41
ATOM     41  O   UNL     1      20.446   4.815  24.203  0.00  0.00    -0.387 OA
ATOM     42  H   UNL     1      21.019   5.157  24.894  0.00  0.00    +0.210 HD
ENDBRANCH  22  41
ENDBRANCH   1  22
TORSDOF 14
