REMARK VINA RESULT:    -6.538      1.460      3.590
REMARK INTER + INTRA:         -15.105
REMARK INTER:                 -12.858
REMARK INTRA:                  -2.247
REMARK UNBOUND:                -2.643
REMARK  Name = lig_assembled_21.pdb
REMARK  20 active torsions:
REMARK  status: ('A' for Active; 'I' for Inactive)
REMARK    1  A    between atoms: _2  and  _9
REMARK    2  A    between atoms: _4  and  _23
REMARK    3  A    between atoms: _6  and  _7
REMARK    4  A    between atoms: _6  and  _23
REMARK    5  A    between atoms: _9  and  _10
REMARK    6  A    between atoms: _11  and  _18
REMARK    7  A    between atoms: _12  and  _13
REMARK    8  A    between atoms: _12  and  _18
REMARK    9  A    between atoms: _19  and  _39
REMARK   10  A    between atoms: _21  and  _27
REMARK   11  A    between atoms: _22  and  _26
REMARK   12  A    between atoms: _26  and  _27
REMARK   13  A    between atoms: _29  and  _30
REMARK   14  A    between atoms: _31  and  _32
REMARK   15  A    between atoms: _33  and  _35
REMARK   16  A    between atoms: _35  and  _36
REMARK   17  A    between atoms: _35  and  _37
REMARK   18  A    between atoms: _37  and  _38
REMARK   19  A    between atoms: _37  and  _39
REMARK   20  A    between atoms: _40  and  _42
REMARK                            x       y       z     vdW  Elec       q    Type
REMARK                         _______ _______ _______ _____ _____    ______ ____
ROOT
ATOM      1  C   UNL     1       3.570   3.638  32.318  0.00  0.00    +0.163 C 
ENDROOT
BRANCH   1   2
ATOM      2  O   UNL     1       2.704   4.009  33.403  0.00  0.00    -0.388 OA
ATOM      3  H   UNL     1       3.049   4.795  33.834  0.00  0.00    +0.210 HD
ENDBRANCH   1   2
BRANCH   1   4
ATOM      4  C   UNL     1       4.879   3.025  32.843  0.00  0.00    +0.175 C 
BRANCH   4   5
ATOM      5  C   UNL     1       5.322   3.659  34.170  0.00  0.00    +0.176 C 
ATOM      6  O   UNL     1       5.326   5.103  33.997  0.00  0.00    -0.332 OA
ATOM      7  C   UNL     1       5.625   5.885  35.200  0.00  0.00    +0.277 C 
ATOM      8  C   UNL     1       6.968   5.429  35.822  0.00  0.00    +0.110 C 
ATOM      9  C   UNL     1       7.023   3.896  35.997  0.00  0.00    +0.143 C 
ATOM     10  C   UNL     1       6.693   3.183  34.685  0.00  0.00    +0.133 C 
BRANCH  10  11
ATOM     11  N   UNL     1       6.664   1.725  34.885  0.00  0.00    -0.308 N 
ATOM     12  H   UNL     1       5.978   1.350  35.525  0.00  0.00    +0.149 HD
ATOM     13  C   UNL     1       7.485   0.865  34.276  0.00  0.00    +0.210 C 
ATOM     14  C   UNL     1       8.536   1.470  33.326  0.00  0.00    +0.109 C 
ATOM     15  O   UNL     1       7.428  -0.352  34.451  0.00  0.00    -0.276 OA
ENDBRANCH  10  11
BRANCH   7  16
ATOM     16  C   UNL     1       4.497   5.737  36.242  0.00  0.00    +0.414 C 
ATOM     17  O   UNL     1       3.351   5.473  35.882  0.00  0.00    -0.240 OA
ATOM     18  O   UNL     1       4.733   5.882  37.442  0.00  0.00    -0.240 OA
ENDBRANCH   7  16
BRANCH   9  19
ATOM     19  O   UNL     1       8.327   3.507  36.429  0.00  0.00    -0.390 OA
ATOM     20  H   UNL     1       8.352   2.556  36.558  0.00  0.00    +0.210 HD
ENDBRANCH   9  19
BRANCH   7  21
ATOM     21  O   UNL     1       5.751   7.277  34.811  0.00  0.00    -0.343 OA
ATOM     22  C   UNL     1       7.075   7.672  34.371  0.00  0.00    +0.198 C 
ENDBRANCH   7  21
ENDBRANCH   4   5
BRANCH   4  23
ATOM     23  O   UNL     1       5.921   3.158  31.856  0.00  0.00    -0.387 OA
ATOM     24  H   UNL     1       6.488   3.898  32.087  0.00  0.00    +0.210 HD
ENDBRANCH   4  23
ENDBRANCH   1   4
BRANCH   1  25
ATOM     25  C   UNL     1       2.867   2.636  31.408  0.00  0.00    +0.141 C 
BRANCH  25  28
ATOM     26  C   UNL     1       1.790   3.290  29.282  0.00  0.00    +0.401 C 
ATOM     27  O   UNL     1       0.642   3.155  29.713  0.00  0.00    -0.226 OA
ATOM     28  N   UNL     1       2.888   3.063  30.003  0.00  0.00    -0.279 N 
ATOM     29  H   UNL     1       3.786   3.192  29.558  0.00  0.00    +0.152 HD
BRANCH  26  30
ATOM     30  O   UNL     1       1.978   3.710  27.928  0.00  0.00    -0.444 OA
BRANCH  30  31
ATOM     31  C   UNL     1       1.300   2.809  27.050  0.00  0.00    +0.292 C 
BRANCH  31  33
ATOM     32  N   UNL     1       1.702   2.193  24.690  0.00  0.00    -0.131 NA
ATOM     33  C   UNL     1       1.573   3.164  25.645  0.00  0.00    +0.120 A 
ATOM     34  C   UNL     1       1.706   4.399  25.051  0.00  0.00    +0.137 A 
ATOM     35  N   UNL     1       1.823   4.115  23.717  0.00  0.00    -0.247 N 
ATOM     36  N   UNL     1       1.856   2.786  23.516  0.00  0.00    -0.065 NA
BRANCH  35  37
ATOM     37  C   UNL     1       1.820   5.089  22.630  0.00  0.00    +0.184 C 
BRANCH  37  38
ATOM     38  C   UNL     1       1.148   4.644  21.353  0.00  0.00    +0.016 A 
ATOM     39  C   UNL     1      -0.205   4.926  21.088  0.00  0.00    +0.137 A 
ATOM     40  C   UNL     1      -0.807   4.510  19.900  0.00  0.00    +0.047 A 
ATOM     41  C   UNL     1      -0.055   3.818  18.950  0.00  0.00    +0.004 A 
ATOM     42  C   UNL     1       1.282   3.517  19.200  0.00  0.00    +0.001 A 
ATOM     43  C   UNL     1       1.881   3.929  20.391  0.00  0.00    +0.009 A 
BRANCH  39  44
ATOM     44  O   UNL     1      -0.936   5.570  22.114  0.00  0.00    -0.426 OA
BRANCH  44  45
ATOM     45  C   UNL     1      -1.853   4.894  22.921  0.00  0.00    +0.309 C 
ATOM     46  O   UNL     1      -1.617   3.994  23.717  0.00  0.00    -0.251 OA
ATOM     47  C   UNL     1      -3.212   5.499  22.725  0.00  0.00    +0.136 C 
ENDBRANCH  44  45
ENDBRANCH  39  44
ENDBRANCH  37  38
ENDBRANCH  35  37
ENDBRANCH  31  33
ENDBRANCH  30  31
ENDBRANCH  26  30
ENDBRANCH  25  28
ENDBRANCH   1  25
TORSDOF 17
