REMARK VINA RESULT:    -5.246     18.306     22.249
REMARK INTER + INTRA:         -12.510
REMARK INTER:                  -9.008
REMARK INTRA:                  -3.502
REMARK UNBOUND:                -2.970
REMARK  Name = lig_assembled_22.pdb
REMARK  20 active torsions:
REMARK  status: ('A' for Active; 'I' for Inactive)
REMARK    1  A    between atoms: _2  and  _9
REMARK    2  A    between atoms: _4  and  _18
REMARK    3  A    between atoms: _5  and  _9
REMARK    4  A    between atoms: _5  and  _12
REMARK    5  A    between atoms: _6  and  _7
REMARK    6  A    between atoms: _6  and  _18
REMARK    7  A    between atoms: _9  and  _10
REMARK    8  A    between atoms: _9  and  _11
REMARK    9  A    between atoms: _14  and  _34
REMARK   10  A    between atoms: _16  and  _22
REMARK   11  A    between atoms: _17  and  _21
REMARK   12  A    between atoms: _21  and  _22
REMARK   13  A    between atoms: _24  and  _25
REMARK   14  A    between atoms: _26  and  _27
REMARK   15  A    between atoms: _28  and  _30
REMARK   16  A    between atoms: _30  and  _31
REMARK   17  A    between atoms: _30  and  _32
REMARK   18  A    between atoms: _32  and  _33
REMARK   19  A    between atoms: _32  and  _34
REMARK   20  A    between atoms: _35  and  _37
REMARK                            x       y       z     vdW  Elec       q    Type
REMARK                         _______ _______ _______ _____ _____    ______ ____
ROOT
ATOM      1  C   UNL     1       9.654  23.427  25.630  0.00  0.00    +0.163 C 
ENDROOT
BRANCH   1   2
ATOM      2  O   UNL     1      10.421  22.225  25.808  0.00  0.00    -0.388 OA
ATOM      3  H   UNL     1      10.074  21.732  26.556  0.00  0.00    +0.210 HD
ENDBRANCH   1   2
BRANCH   1   4
ATOM      4  C   UNL     1       8.942  23.397  24.282  0.00  0.00    +0.141 C 
BRANCH   4   7
ATOM      5  C   UNL     1       7.312  25.105  23.553  0.00  0.00    +0.401 C 
ATOM      6  O   UNL     1       8.066  25.602  22.714  0.00  0.00    -0.226 OA
ATOM      7  N   UNL     1       7.641  24.075  24.335  0.00  0.00    -0.279 N 
ATOM      8  H   UNL     1       6.958  23.744  25.000  0.00  0.00    +0.152 HD
BRANCH   5   9
ATOM      9  O   UNL     1       6.001  25.651  23.720  0.00  0.00    -0.444 OA
BRANCH   9  10
ATOM     10  C   UNL     1       6.082  26.871  24.461  0.00  0.00    +0.292 C 
BRANCH  10  12
ATOM     11  N   UNL     1       7.207  26.542  26.635  0.00  0.00    -0.131 NA
ATOM     12  C   UNL     1       6.050  26.592  25.909  0.00  0.00    +0.120 A 
ATOM     13  C   UNL     1       4.984  26.349  26.747  0.00  0.00    +0.138 A 
ATOM     14  N   UNL     1       5.557  26.158  27.974  0.00  0.00    -0.235 N 
ATOM     15  N   UNL     1       6.896  26.273  27.892  0.00  0.00    -0.064 NA
BRANCH  14  16
ATOM     16  C   UNL     1       4.924  25.844  29.256  0.00  0.00    +0.155 C 
ATOM     17  C   UNL     1       3.560  25.142  29.077  0.00  0.00    +0.048 C 
ATOM     18  C   UNL     1       4.698  27.157  30.030  0.00  0.00    +0.048 C 
BRANCH  16  19
ATOM     19  C   UNL     1       5.819  24.911  30.077  0.00  0.00    +0.332 C 
ATOM     20  O   UNL     1       5.701  23.692  30.103  0.00  0.00    -0.248 OA
BRANCH  19  21
ATOM     21  O   UNL     1       6.786  25.525  30.800  0.00  0.00    -0.479 OA
ATOM     22  H   UNL     1       6.687  26.488  30.931  0.00  0.00    +0.295 HD
ENDBRANCH  19  21
ENDBRANCH  16  19
ENDBRANCH  14  16
ENDBRANCH  10  12
ENDBRANCH   9  10
ENDBRANCH   5   9
ENDBRANCH   4   7
ENDBRANCH   1   4
BRANCH   1  23
ATOM     23  C   UNL     1      10.557  24.671  25.707  0.00  0.00    +0.175 C 
BRANCH  23  24
ATOM     24  C   UNL     1      11.212  24.824  27.087  0.00  0.00    +0.176 C 
ATOM     25  O   UNL     1      10.824  26.118  27.625  0.00  0.00    -0.332 OA
ATOM     26  C   UNL     1      11.274  26.397  28.992  0.00  0.00    +0.277 C 
ATOM     27  C   UNL     1      12.809  26.224  29.103  0.00  0.00    +0.110 C 
ATOM     28  C   UNL     1      13.273  24.875  28.514  0.00  0.00    +0.143 C 
ATOM     29  C   UNL     1      12.746  24.687  27.091  0.00  0.00    +0.133 C 
BRANCH  29  30
ATOM     30  N   UNL     1      13.122  23.362  26.573  0.00  0.00    -0.308 N 
ATOM     31  H   UNL     1      12.761  22.549  27.052  0.00  0.00    +0.149 HD
ATOM     32  C   UNL     1      13.909  23.164  25.512  0.00  0.00    +0.210 C 
ATOM     33  C   UNL     1      14.464  24.424  24.821  0.00  0.00    +0.109 C 
ATOM     34  O   UNL     1      14.196  22.043  25.092  0.00  0.00    -0.276 OA
ENDBRANCH  29  30
BRANCH  26  35
ATOM     35  C   UNL     1      10.576  25.461  30.000  0.00  0.00    +0.414 C 
ATOM     36  O   UNL     1       9.418  25.093  29.805  0.00  0.00    -0.240 OA
ATOM     37  O   UNL     1      11.169  25.074  31.007  0.00  0.00    -0.240 OA
ENDBRANCH  26  35
BRANCH  26  38
ATOM     38  O   UNL     1      10.946  27.777  29.300  0.00  0.00    -0.343 OA
ATOM     39  C   UNL     1      11.677  28.766  28.531  0.00  0.00    +0.198 C 
ENDBRANCH  26  38
BRANCH  28  40
ATOM     40  O   UNL     1      14.700  24.823  28.498  0.00  0.00    -0.390 OA
ATOM     41  H   UNL     1      15.052  25.468  29.115  0.00  0.00    +0.210 HD
ENDBRANCH  28  40
ENDBRANCH  23  24
BRANCH  23  42
ATOM     42  O   UNL     1       9.800  25.854  25.382  0.00  0.00    -0.387 OA
ATOM     43  H   UNL     1       9.818  25.995  24.433  0.00  0.00    +0.210 HD
ENDBRANCH  23  42
ENDBRANCH   1  23
TORSDOF 16
