REMARK VINA RESULT:    -5.570      1.857      2.714
REMARK INTER + INTRA:         -13.835
REMARK INTER:                 -10.491
REMARK INTRA:                  -3.344
REMARK UNBOUND:                -3.868
REMARK  Name = lig_assembled_85.pdb
REMARK  19 active torsions:
REMARK  status: ('A' for Active; 'I' for Inactive)
REMARK    1  A    between atoms: _2  and  _10
REMARK    2  A    between atoms: _3  and  _6
REMARK    3  A    between atoms: _3  and  _17
REMARK    4  A    between atoms: _5  and  _23
REMARK    5  A    between atoms: _7  and  _8
REMARK    6  A    between atoms: _7  and  _23
REMARK    7  A    between atoms: _15  and  _16
REMARK    8  A    between atoms: _19  and  _39
REMARK    9  A    between atoms: _21  and  _27
REMARK   10  A    between atoms: _22  and  _26
REMARK   11  A    between atoms: _26  and  _27
REMARK   12  A    between atoms: _29  and  _30
REMARK   13  A    between atoms: _31  and  _32
REMARK   14  A    between atoms: _33  and  _35
REMARK   15  A    between atoms: _35  and  _36
REMARK   16  A    between atoms: _35  and  _37
REMARK   17  A    between atoms: _37  and  _38
REMARK   18  A    between atoms: _37  and  _39
REMARK   19  A    between atoms: _40  and  _42
REMARK                            x       y       z     vdW  Elec       q    Type
REMARK                         _______ _______ _______ _____ _____    ______ ____
ROOT
ATOM      1  C   UNL     1      17.138   2.781  22.425  0.00  0.00    +0.141 C 
ENDROOT
BRANCH   1   4
ATOM      2  C   UNL     1      18.102   1.061  20.936  0.00  0.00    +0.401 C 
ATOM      3  O   UNL     1      18.646   1.878  20.189  0.00  0.00    -0.226 OA
ATOM      4  N   UNL     1      17.372   1.395  22.001  0.00  0.00    -0.279 N 
ATOM      5  H   UNL     1      16.958   0.653  22.547  0.00  0.00    +0.152 HD
BRANCH   2   6
ATOM      6  O   UNL     1      18.244  -0.335  20.660  0.00  0.00    -0.444 OA
BRANCH   6   7
ATOM      7  C   UNL     1      19.209  -0.902  21.550  0.00  0.00    +0.292 C 
BRANCH   7   9
ATOM      8  N   UNL     1      19.207  -3.097  22.680  0.00  0.00    -0.131 NA
ATOM      9  C   UNL     1      18.576  -1.916  22.409  0.00  0.00    +0.121 A 
ATOM     10  C   UNL     1      17.382  -1.872  23.092  0.00  0.00    +0.143 A 
ATOM     11  N   UNL     1      17.329  -3.060  23.778  0.00  0.00    -0.219 N 
ATOM     12  N   UNL     1      18.454  -3.774  23.534  0.00  0.00    -0.060 NA
BRANCH  11  13
ATOM     13  C   UNL     1      16.365  -3.526  24.699  0.00  0.00    +0.080 A 
ATOM     14  C   UNL     1      16.173  -2.984  25.980  0.00  0.00    +0.062 A 
ATOM     15  C   UNL     1      15.354  -3.704  26.881  0.00  0.00    +0.016 A 
ATOM     16  C   UNL     1      14.730  -4.903  26.518  0.00  0.00    +0.021 A 
ATOM     17  C   UNL     1      14.875  -5.382  25.225  0.00  0.00    +0.043 A 
ATOM     18 CL   UNL     1      14.145  -6.872  24.772  0.00  0.00    -0.083 Cl
ATOM     19  C   UNL     1      15.663  -4.689  24.310  0.00  0.00    +0.048 A 
BRANCH  14  20
ATOM     20  C   UNL     1      16.786  -1.759  26.575  0.00  0.00    +0.248 C 
ATOM     21  O   UNL     1      16.121  -0.728  26.445  0.00  0.00    -0.270 OA
ATOM     22  N   UNL     1      18.047  -1.734  27.181  0.00  0.00    -0.304 N 
ATOM     23  C   UNL     1      18.895  -2.866  27.526  0.00  0.00    +0.132 C 
ATOM     24  C   UNL     1      18.491  -0.443  27.698  0.00  0.00    +0.132 C 
ENDBRANCH  14  20
ENDBRANCH  11  13
ENDBRANCH   7   9
ENDBRANCH   6   7
ENDBRANCH   2   6
ENDBRANCH   1   4
BRANCH   1  25
ATOM     25  C   UNL     1      18.123   3.220  23.504  0.00  0.00    +0.163 C 
BRANCH  25  26
ATOM     26  O   UNL     1      18.091   4.650  23.646  0.00  0.00    -0.388 OA
ATOM     27  H   UNL     1      18.951   5.013  23.422  0.00  0.00    +0.210 HD
ENDBRANCH  25  26
BRANCH  25  28
ATOM     28  C   UNL     1      17.772   2.527  24.832  0.00  0.00    +0.175 C 
BRANCH  28  29
ATOM     29  C   UNL     1      18.707   2.957  25.973  0.00  0.00    +0.176 C 
ATOM     30  O   UNL     1      18.373   4.326  26.333  0.00  0.00    -0.332 OA
ATOM     31  C   UNL     1      19.097   4.873  27.484  0.00  0.00    +0.277 C 
ATOM     32  C   UNL     1      20.626   4.746  27.272  0.00  0.00    +0.110 C 
ATOM     33  C   UNL     1      21.026   3.315  26.855  0.00  0.00    +0.143 C 
ATOM     34  C   UNL     1      20.209   2.845  25.651  0.00  0.00    +0.133 C 
BRANCH  34  35
ATOM     35  N   UNL     1      20.537   1.450  25.319  0.00  0.00    -0.308 N 
ATOM     36  H   UNL     1      20.260   0.731  25.973  0.00  0.00    +0.149 HD
ATOM     37  C   UNL     1      21.178   1.071  24.210  0.00  0.00    +0.210 C 
ATOM     38  C   UNL     1      21.610   2.192  23.246  0.00  0.00    +0.109 C 
ATOM     39  O   UNL     1      21.427  -0.107  23.950  0.00  0.00    -0.276 OA
ENDBRANCH  34  35
BRANCH  31  40
ATOM     40  C   UNL     1      18.695   4.142  28.782  0.00  0.00    +0.414 C 
ATOM     41  O   UNL     1      17.756   3.346  28.780  0.00  0.00    -0.240 OA
ATOM     42  O   UNL     1      19.308   4.347  29.830  0.00  0.00    -0.240 OA
ENDBRANCH  31  40
BRANCH  33  43
ATOM     43  O   UNL     1      22.415   3.280  26.524  0.00  0.00    -0.390 OA
ATOM     44  H   UNL     1      22.779   4.167  26.575  0.00  0.00    +0.210 HD
ENDBRANCH  33  43
BRANCH  31  45
ATOM     45  O   UNL     1      18.766   6.281  27.595  0.00  0.00    -0.343 OA
ATOM     46  C   UNL     1      18.798   7.017  26.346  0.00  0.00    +0.198 C 
ENDBRANCH  31  45
ENDBRANCH  28  29
BRANCH  28  47
ATOM     47  O   UNL     1      17.811   1.095  24.671  0.00  0.00    -0.387 OA
ATOM     48  H   UNL     1      17.994   0.682  25.518  0.00  0.00    +0.210 HD
ENDBRANCH  28  47
ENDBRANCH  25  28
ENDBRANCH   1  25
TORSDOF 15
