REMARK VINA RESULT:    -6.066      5.944     10.503
REMARK INTER + INTRA:         -14.399
REMARK INTER:                 -10.208
REMARK INTRA:                  -4.192
REMARK UNBOUND:                -3.014
REMARK  Name = lig_assembled_75.pdb
REMARK  19 active torsions:
REMARK  status: ('A' for Active; 'I' for Inactive)
REMARK    1  A    between atoms: _2  and  _9
REMARK    2  A    between atoms: _4  and  _23
REMARK    3  A    between atoms: _6  and  _7
REMARK    4  A    between atoms: _6  and  _23
REMARK    5  A    between atoms: _11  and  _12
REMARK    6  A    between atoms: _13  and  _14
REMARK    7  A    between atoms: _14  and  _17
REMARK    8  A    between atoms: _19  and  _39
REMARK    9  A    between atoms: _21  and  _27
REMARK   10  A    between atoms: _22  and  _26
REMARK   11  A    between atoms: _26  and  _27
REMARK   12  A    between atoms: _29  and  _30
REMARK   13  A    between atoms: _31  and  _32
REMARK   14  A    between atoms: _33  and  _35
REMARK   15  A    between atoms: _35  and  _36
REMARK   16  A    between atoms: _35  and  _37
REMARK   17  A    between atoms: _37  and  _38
REMARK   18  A    between atoms: _37  and  _39
REMARK   19  A    between atoms: _40  and  _42
REMARK                            x       y       z     vdW  Elec       q    Type
REMARK                         _______ _______ _______ _____ _____    ______ ____
ROOT
ATOM      1  C   UNL     1      -2.322   3.819  27.750  0.00  0.00    +0.141 C 
ENDROOT
BRANCH   1   4
ATOM      2  C   UNL     1      -0.297   3.280  29.060  0.00  0.00    +0.401 C 
ATOM      3  O   UNL     1      -0.197   4.409  29.546  0.00  0.00    -0.226 OA
ATOM      4  N   UNL     1      -1.256   2.918  28.206  0.00  0.00    -0.279 N 
ATOM      5  H   UNL     1      -1.249   1.972  27.854  0.00  0.00    +0.152 HD
BRANCH   2   6
ATOM      6  O   UNL     1       0.665   2.283  29.415  0.00  0.00    -0.444 OA
BRANCH   6   7
ATOM      7  C   UNL     1       1.920   2.592  28.804  0.00  0.00    +0.292 C 
BRANCH   7   9
ATOM      8  N   UNL     1       1.564   1.386  26.674  0.00  0.00    -0.131 NA
ATOM      9  C   UNL     1       1.799   2.557  27.334  0.00  0.00    +0.121 A 
ATOM     10  C   UNL     1       1.889   3.580  26.419  0.00  0.00    +0.143 A 
ATOM     11  N   UNL     1       1.702   2.981  25.195  0.00  0.00    -0.220 N 
ATOM     12  N   UNL     1       1.508   1.650  25.376  0.00  0.00    -0.060 NA
BRANCH  11  13
ATOM     13  C   UNL     1       1.723   3.567  23.903  0.00  0.00    +0.068 A 
ATOM     14  C   UNL     1       1.735   2.734  22.771  0.00  0.00    +0.035 A 
ATOM     15  C   UNL     1       1.823   3.278  21.481  0.00  0.00    -0.023 A 
ATOM     16  C   UNL     1       1.833   4.671  21.338  0.00  0.00    +0.008 A 
ATOM     17  C   UNL     1       1.798   5.503  22.459  0.00  0.00    +0.003 A 
ATOM     18  C   UNL     1       1.752   4.956  23.740  0.00  0.00    +0.028 A 
BRANCH  15  19
ATOM     19  C   UNL     1       1.885   2.441  20.273  0.00  0.00    +0.015 C 
ATOM     20  C   UNL     1       1.802   2.926  19.023  0.00  0.00    +0.092 C 
BRANCH  20  21
ATOM     21  C   UNL     1       1.820   1.999  17.877  0.00  0.00    +0.330 C 
ATOM     22  O   UNL     1       1.740   0.787  17.962  0.00  0.00    -0.246 OA
BRANCH  21  23
ATOM     23  O   UNL     1       1.924   2.653  16.702  0.00  0.00    -0.478 OA
ATOM     24  H   UNL     1       2.700   3.233  16.609  0.00  0.00    +0.295 HD
ENDBRANCH  21  23
ENDBRANCH  20  21
ENDBRANCH  15  19
ENDBRANCH  11  13
ENDBRANCH   7   9
ENDBRANCH   6   7
ENDBRANCH   2   6
ENDBRANCH   1   4
BRANCH   1  25
ATOM     25  C   UNL     1      -2.272   4.040  26.242  0.00  0.00    +0.163 C 
BRANCH  25  26
ATOM     26  O   UNL     1      -1.328   5.077  25.928  0.00  0.00    -0.388 OA
ATOM     27  H   UNL     1      -1.017   5.484  26.740  0.00  0.00    +0.210 HD
ENDBRANCH  25  26
BRANCH  25  28
ATOM     28  C   UNL     1      -1.897   2.723  25.541  0.00  0.00    +0.175 C 
BRANCH  28  29
ATOM     29  C   UNL     1      -1.925   2.854  24.011  0.00  0.00    +0.176 C 
ATOM     30  O   UNL     1      -3.045   3.710  23.656  0.00  0.00    -0.332 OA
ATOM     31  C   UNL     1      -3.167   4.036  22.232  0.00  0.00    +0.277 C 
ATOM     32  C   UNL     1      -3.207   2.743  21.382  0.00  0.00    +0.110 C 
ATOM     33  C   UNL     1      -2.053   1.786  21.747  0.00  0.00    +0.143 C 
ATOM     34  C   UNL     1      -2.017   1.518  23.251  0.00  0.00    +0.133 C 
BRANCH  34  35
ATOM     35  N   UNL     1      -0.861   0.675  23.597  0.00  0.00    -0.308 N 
ATOM     36  H   UNL     1       0.059   1.087  23.530  0.00  0.00    +0.149 HD
ATOM     37  C   UNL     1      -0.949  -0.597  23.994  0.00  0.00    +0.210 C 
ATOM     38  C   UNL     1      -2.364  -1.203  24.061  0.00  0.00    +0.109 C 
ATOM     39  O   UNL     1       0.036  -1.274  24.292  0.00  0.00    -0.276 OA
ENDBRANCH  34  35
BRANCH  31  40
ATOM     40  C   UNL     1      -1.990   4.920  21.770  0.00  0.00    +0.414 C 
ATOM     41  O   UNL     1      -1.591   5.842  22.481  0.00  0.00    -0.240 OA
ATOM     42  O   UNL     1      -1.440   4.712  20.688  0.00  0.00    -0.240 OA
ENDBRANCH  31  40
BRANCH  31  43
ATOM     43  O   UNL     1      -4.417   4.748  22.040  0.00  0.00    -0.343 OA
ATOM     44  C   UNL     1      -5.608   3.925  22.116  0.00  0.00    +0.198 C 
ENDBRANCH  31  43
BRANCH  33  45
ATOM     45  O   UNL     1      -2.214   0.549  21.052  0.00  0.00    -0.390 OA
ATOM     46  H   UNL     1      -2.039   0.681  20.117  0.00  0.00    +0.210 HD
ENDBRANCH  33  45
ENDBRANCH  28  29
BRANCH  28  47
ATOM     47  O   UNL     1      -2.780   1.666  25.965  0.00  0.00    -0.387 OA
ATOM     48  H   UNL     1      -3.692   1.941  25.841  0.00  0.00    +0.210 HD
ENDBRANCH  28  47
ENDBRANCH  25  28
ENDBRANCH   1  25
TORSDOF 17
