REMARK VINA RESULT:    -5.158     19.115     22.505
REMARK INTER + INTRA:         -12.349
REMARK INTER:                  -9.379
REMARK INTRA:                  -2.970
REMARK UNBOUND:                -2.970
REMARK  Name = lig_assembled_22.pdb
REMARK  20 active torsions:
REMARK  status: ('A' for Active; 'I' for Inactive)
REMARK    1  A    between atoms: _2  and  _9
REMARK    2  A    between atoms: _4  and  _18
REMARK    3  A    between atoms: _5  and  _9
REMARK    4  A    between atoms: _5  and  _12
REMARK    5  A    between atoms: _6  and  _7
REMARK    6  A    between atoms: _6  and  _18
REMARK    7  A    between atoms: _9  and  _10
REMARK    8  A    between atoms: _9  and  _11
REMARK    9  A    between atoms: _14  and  _34
REMARK   10  A    between atoms: _16  and  _22
REMARK   11  A    between atoms: _17  and  _21
REMARK   12  A    between atoms: _21  and  _22
REMARK   13  A    between atoms: _24  and  _25
REMARK   14  A    between atoms: _26  and  _27
REMARK   15  A    between atoms: _28  and  _30
REMARK   16  A    between atoms: _30  and  _31
REMARK   17  A    between atoms: _30  and  _32
REMARK   18  A    between atoms: _32  and  _33
REMARK   19  A    between atoms: _32  and  _34
REMARK   20  A    between atoms: _35  and  _37
REMARK                            x       y       z     vdW  Elec       q    Type
REMARK                         _______ _______ _______ _____ _____    ______ ____
ROOT
ATOM      1  C   UNL     1       9.269  23.149  25.750  0.00  0.00    +0.163 C 
ENDROOT
BRANCH   1   2
ATOM      2  O   UNL     1      10.465  22.353  25.739  0.00  0.00    -0.388 OA
ATOM      3  H   UNL     1      10.828  22.306  26.627  0.00  0.00    +0.210 HD
ENDBRANCH   1   2
BRANCH   1   4
ATOM      4  C   UNL     1       8.848  23.478  24.322  0.00  0.00    +0.141 C 
BRANCH   4   7
ATOM      5  C   UNL     1       7.367  25.372  23.752  0.00  0.00    +0.401 C 
ATOM      6  O   UNL     1       8.269  26.051  23.258  0.00  0.00    -0.226 OA
ATOM      7  N   UNL     1       7.548  24.160  24.278  0.00  0.00    -0.279 N 
ATOM      8  H   UNL     1       6.747  23.684  24.668  0.00  0.00    +0.152 HD
BRANCH   5   9
ATOM      9  O   UNL     1       6.037  25.896  23.777  0.00  0.00    -0.444 OA
BRANCH   9  10
ATOM     10  C   UNL     1       5.967  26.978  24.710  0.00  0.00    +0.292 C 
BRANCH  10  12
ATOM     11  N   UNL     1       4.296  25.738  26.039  0.00  0.00    -0.131 NA
ATOM     12  C   UNL     1       5.424  26.507  25.998  0.00  0.00    +0.120 A 
ATOM     13  C   UNL     1       5.875  26.712  27.284  0.00  0.00    +0.138 A 
ATOM     14  N   UNL     1       4.977  26.040  28.066  0.00  0.00    -0.235 N 
ATOM     15  N   UNL     1       4.028  25.461  27.305  0.00  0.00    -0.064 NA
BRANCH  14  16
ATOM     16  C   UNL     1       4.926  25.914  29.524  0.00  0.00    +0.155 C 
ATOM     17  C   UNL     1       3.653  26.553  30.120  0.00  0.00    +0.048 C 
ATOM     18  C   UNL     1       6.153  26.625  30.124  0.00  0.00    +0.048 C 
BRANCH  16  19
ATOM     19  C   UNL     1       4.936  24.438  29.931  0.00  0.00    +0.332 C 
ATOM     20  O   UNL     1       5.942  23.826  30.272  0.00  0.00    -0.248 OA
BRANCH  19  21
ATOM     21  O   UNL     1       3.732  23.819  29.895  0.00  0.00    -0.479 OA
ATOM     22  H   UNL     1       3.523  23.321  29.081  0.00  0.00    +0.295 HD
ENDBRANCH  19  21
ENDBRANCH  16  19
ENDBRANCH  14  16
ENDBRANCH  10  12
ENDBRANCH   9  10
ENDBRANCH   5   9
ENDBRANCH   4   7
ENDBRANCH   1   4
BRANCH   1  23
ATOM     23  C   UNL     1       9.485  24.454  26.536  0.00  0.00    +0.175 C 
BRANCH  23  24
ATOM     24  C   UNL     1      10.973  24.805  26.676  0.00  0.00    +0.176 C 
ATOM     25  O   UNL     1      11.525  23.992  27.748  0.00  0.00    -0.332 OA
ATOM     26  C   UNL     1      12.971  24.116  27.957  0.00  0.00    +0.277 C 
ATOM     27  C   UNL     1      13.362  25.599  28.171  0.00  0.00    +0.110 C 
ATOM     28  C   UNL     1      12.770  26.508  27.073  0.00  0.00    +0.143 C 
ATOM     29  C   UNL     1      11.262  26.295  26.938  0.00  0.00    +0.133 C 
BRANCH  29  30
ATOM     30  N   UNL     1      10.725  27.102  25.831  0.00  0.00    -0.308 N 
ATOM     31  H   UNL     1      11.086  26.930  24.904  0.00  0.00    +0.149 HD
ATOM     32  C   UNL     1       9.790  28.046  25.972  0.00  0.00    +0.210 C 
ATOM     33  C   UNL     1       9.278  28.301  27.402  0.00  0.00    +0.109 C 
ATOM     34  O   UNL     1       9.348  28.696  25.025  0.00  0.00    -0.276 OA
ENDBRANCH  29  30
BRANCH  26  35
ATOM     35  C   UNL     1      13.749  23.547  26.752  0.00  0.00    +0.414 C 
ATOM     36  O   UNL     1      13.276  22.625  26.088  0.00  0.00    -0.240 OA
ATOM     37  O   UNL     1      14.848  24.009  26.444  0.00  0.00    -0.240 OA
ENDBRANCH  26  35
BRANCH  26  38
ATOM     38  O   UNL     1      13.316  23.374  29.155  0.00  0.00    -0.343 OA
ATOM     39  C   UNL     1      14.101  24.112  30.127  0.00  0.00    +0.198 C 
ENDBRANCH  26  38
BRANCH  28  40
ATOM     40  O   UNL     1      13.026  27.876  27.391  0.00  0.00    -0.390 OA
ATOM     41  H   UNL     1      12.334  28.427  27.017  0.00  0.00    +0.210 HD
ENDBRANCH  28  40
ENDBRANCH  23  24
BRANCH  23  42
ATOM     42  O   UNL     1       8.872  24.357  27.837  0.00  0.00    -0.387 OA
ATOM     43  H   UNL     1       8.831  25.229  28.238  0.00  0.00    +0.210 HD
ENDBRANCH  23  42
ENDBRANCH   1  23
TORSDOF 16
