REMARK VINA RESULT:    -6.317     14.515     19.194
REMARK INTER + INTRA:         -15.680
REMARK INTER:                 -13.941
REMARK INTRA:                  -1.739
REMARK UNBOUND:                -3.269
REMARK  Name = lig_assembled_84.pdb
REMARK  21 active torsions:
REMARK  status: ('A' for Active; 'I' for Inactive)
REMARK    1  A    between atoms: _2  and  _11
REMARK    2  A    between atoms: _3  and  _14
REMARK    3  A    between atoms: _4  and  _17
REMARK    4  A    between atoms: _6  and  _28
REMARK    5  A    between atoms: _8  and  _9
REMARK    6  A    between atoms: _8  and  _28
REMARK    7  A    between atoms: _11  and  _12
REMARK    8  A    between atoms: _12  and  _13
REMARK    9  A    between atoms: _12  and  _14
REMARK   10  A    between atoms: _24  and  _44
REMARK   11  A    between atoms: _26  and  _32
REMARK   12  A    between atoms: _27  and  _31
REMARK   13  A    between atoms: _31  and  _32
REMARK   14  A    between atoms: _34  and  _35
REMARK   15  A    between atoms: _36  and  _37
REMARK   16  A    between atoms: _38  and  _40
REMARK   17  A    between atoms: _40  and  _41
REMARK   18  A    between atoms: _40  and  _42
REMARK   19  A    between atoms: _42  and  _43
REMARK   20  A    between atoms: _42  and  _44
REMARK   21  A    between atoms: _45  and  _47
REMARK                            x       y       z     vdW  Elec       q    Type
REMARK                         _______ _______ _______ _____ _____    ______ ____
ROOT
ATOM      1  C   UNL     1      19.070   5.520  25.955  0.00  0.00    +0.401 C 
ATOM      2  O   UNL     1      20.223   5.359  26.363  0.00  0.00    -0.226 OA
ATOM      3  N   UNL     1      18.262   4.523  25.591  0.00  0.00    -0.279 N 
ATOM      4  H   UNL     1      17.330   4.755  25.278  0.00  0.00    +0.152 HD
ENDROOT
BRANCH   1   5
ATOM      5  O   UNL     1      18.546   6.847  25.860  0.00  0.00    -0.444 OA
BRANCH   5   6
ATOM      6  C   UNL     1      19.568   7.790  26.193  0.00  0.00    +0.292 C 
BRANCH   6   8
ATOM      7  N   UNL     1      18.640   9.981  26.889  0.00  0.00    -0.131 NA
ATOM      8  C   UNL     1      19.095   8.732  27.225  0.00  0.00    +0.120 A 
ATOM      9  C   UNL     1      19.050   8.591  28.594  0.00  0.00    +0.137 A 
ATOM     10  N   UNL     1      18.624   9.808  29.035  0.00  0.00    -0.251 N 
ATOM     11  N   UNL     1      18.356  10.633  28.009  0.00  0.00    -0.065 NA
BRANCH  10  12
ATOM     12  C   UNL     1      18.582  10.291  30.402  0.00  0.00    +0.149 C 
BRANCH  12  13
ATOM     13  C   UNL     1      18.031   9.275  31.417  0.00  0.00    +0.021 C 
ATOM     14  C   UNL     1      19.148   8.720  32.313  0.00  0.00    +0.010 C 
BRANCH  13  15
ATOM     15  C   UNL     1      16.942   9.912  32.313  0.00  0.00    +0.089 C 
BRANCH  15  16
ATOM     16  N   UNL     1      17.406  10.429  33.608  0.00  0.00    -0.299 NA
ATOM     17  C   UNL     1      16.492   9.982  34.692  0.00  0.00    +0.103 C 
ATOM     18  C   UNL     1      16.991  10.432  36.081  0.00  0.00    +0.120 C 
ATOM     19  N   UNL     1      17.117  11.894  36.111  0.00  0.00    -0.327 N 
ATOM     20  C   UNL     1      17.958  12.451  35.041  0.00  0.00    +0.120 C 
ATOM     21  C   UNL     1      17.491  11.911  33.658  0.00  0.00    +0.103 C 
BRANCH  19  22
ATOM     22  C   UNL     1      16.541  12.669  37.091  0.00  0.00    +0.030 A 
ATOM     23  C   UNL     1      15.397  12.237  37.786  0.00  0.00    +0.024 A 
ATOM     24  C   UNL     1      14.783  13.022  38.769  0.00  0.00    +0.022 A 
ATOM     25  C   UNL     1      15.311  14.264  39.082  0.00  0.00    +0.041 A 
ATOM     26 CL   UNL     1      14.558  15.237  40.285  0.00  0.00    -0.084 Cl
ATOM     27  C   UNL     1      16.443  14.726  38.421  0.00  0.00    +0.022 A 
ATOM     28  C   UNL     1      17.045  13.932  37.435  0.00  0.00    +0.024 A 
ENDBRANCH  19  22
ENDBRANCH  15  16
ENDBRANCH  13  15
ENDBRANCH  12  13
ENDBRANCH  10  12
ENDBRANCH   6   8
ENDBRANCH   5   6
ENDBRANCH   1   5
BRANCH   3  29
ATOM     29  C   UNL     1      18.651   3.108  25.620  0.00  0.00    +0.141 C 
BRANCH  29  30
ATOM     30  C   UNL     1      17.476   2.202  25.974  0.00  0.00    +0.163 C 
BRANCH  30  31
ATOM     31  O   UNL     1      16.542   2.911  26.805  0.00  0.00    -0.388 OA
ATOM     32  H   UNL     1      16.197   2.318  27.477  0.00  0.00    +0.210 HD
ENDBRANCH  30  31
BRANCH  30  33
ATOM     33  C   UNL     1      16.800   1.710  24.683  0.00  0.00    +0.175 C 
BRANCH  33  34
ATOM     34  C   UNL     1      17.789   0.994  23.750  0.00  0.00    +0.176 C 
ATOM     35  O   UNL     1      17.721   1.639  22.448  0.00  0.00    -0.332 OA
ATOM     36  C   UNL     1      18.680   1.154  21.450  0.00  0.00    +0.277 C 
ATOM     37  C   UNL     1      18.555  -0.380  21.281  0.00  0.00    +0.110 C 
ATOM     38  C   UNL     1      18.589  -1.107  22.642  0.00  0.00    +0.143 C 
ATOM     39  C   UNL     1      17.555  -0.521  23.604  0.00  0.00    +0.133 C 
BRANCH  39  40
ATOM     40  N   UNL     1      17.657  -1.163  24.924  0.00  0.00    -0.308 N 
ATOM     41  H   UNL     1      18.466  -0.951  25.490  0.00  0.00    +0.149 HD
ATOM     42  C   UNL     1      16.750  -2.008  25.422  0.00  0.00    +0.210 C 
ATOM     43  C   UNL     1      15.542  -2.331  24.523  0.00  0.00    +0.109 C 
ATOM     44  O   UNL     1      16.854  -2.520  26.537  0.00  0.00    -0.276 OA
ENDBRANCH  39  40
BRANCH  36  45
ATOM     45  C   UNL     1      20.124   1.512  21.859  0.00  0.00    +0.414 C 
ATOM     46  O   UNL     1      20.332   2.214  22.848  0.00  0.00    -0.240 OA
ATOM     47  O   UNL     1      21.079   1.100  21.201  0.00  0.00    -0.240 OA
ENDBRANCH  36  45
BRANCH  36  48
ATOM     48  O   UNL     1      18.362   1.781  20.181  0.00  0.00    -0.343 OA
ATOM     49  C   UNL     1      16.949   1.827  19.858  0.00  0.00    +0.198 C 
ENDBRANCH  36  48
BRANCH  38  50
ATOM     50  O   UNL     1      18.321  -2.497  22.452  0.00  0.00    -0.390 OA
ATOM     51  H   UNL     1      18.453  -2.965  23.280  0.00  0.00    +0.210 HD
ENDBRANCH  38  50
ENDBRANCH  33  34
BRANCH  33  52
ATOM     52  O   UNL     1      16.178   2.814  23.995  0.00  0.00    -0.387 OA
ATOM     53  H   UNL     1      16.854   3.429  23.701  0.00  0.00    +0.210 HD
ENDBRANCH  33  52
ENDBRANCH  30  33
ENDBRANCH  29  30
ENDBRANCH   3  29
TORSDOF 18
