REMARK VINA RESULT:    -6.424      2.422      4.331
REMARK INTER + INTRA:         -14.090
REMARK INTER:                 -11.208
REMARK INTRA:                  -2.882
REMARK UNBOUND:                -2.597
REMARK  Name = lig_assembled_89.pdb
REMARK  19 active torsions:
REMARK  status: ('A' for Active; 'I' for Inactive)
REMARK    1  A    between atoms: _2  and  _12
REMARK    2  A    between atoms: _5  and  _20
REMARK    3  A    between atoms: _7  and  _29
REMARK    4  A    between atoms: _9  and  _10
REMARK    5  A    between atoms: _9  and  _29
REMARK    6  A    between atoms: _20  and  _21
REMARK    7  A    between atoms: _20  and  _22
REMARK    8  A    between atoms: _25  and  _45
REMARK    9  A    between atoms: _27  and  _33
REMARK   10  A    between atoms: _28  and  _32
REMARK   11  A    between atoms: _32  and  _33
REMARK   12  A    between atoms: _35  and  _36
REMARK   13  A    between atoms: _37  and  _38
REMARK   14  A    between atoms: _39  and  _41
REMARK   15  A    between atoms: _41  and  _42
REMARK   16  A    between atoms: _41  and  _43
REMARK   17  A    between atoms: _43  and  _44
REMARK   18  A    between atoms: _43  and  _45
REMARK   19  A    between atoms: _46  and  _48
REMARK                            x       y       z     vdW  Elec       q    Type
REMARK                         _______ _______ _______ _____ _____    ______ ____
ROOT
ATOM      1  C   UNL     1      -0.493   2.719  34.574  0.00  0.00    +0.401 C 
ATOM      2  O   UNL     1      -0.099   1.552  34.520  0.00  0.00    -0.226 OA
ATOM      3  N   UNL     1       0.033   3.647  35.374  0.00  0.00    -0.279 N 
ATOM      4  H   UNL     1      -0.352   4.581  35.339  0.00  0.00    +0.152 HD
ENDROOT
BRANCH   3   5
ATOM      5  C   UNL     1       1.141   3.389  36.302  0.00  0.00    +0.141 C 
BRANCH   5   6
ATOM      6  C   UNL     1       2.382   4.201  35.947  0.00  0.00    +0.163 C 
BRANCH   6   7
ATOM      7  O   UNL     1       3.237   4.321  37.096  0.00  0.00    -0.388 OA
ATOM      8  H   UNL     1       3.464   5.244  37.231  0.00  0.00    +0.210 HD
ENDBRANCH   6   7
BRANCH   6   9
ATOM      9  C   UNL     1       3.122   3.524  34.779  0.00  0.00    +0.175 C 
BRANCH   9  10
ATOM     10  C   UNL     1       4.620   3.859  34.773  0.00  0.00    +0.176 C 
ATOM     11  O   UNL     1       4.762   5.281  35.042  0.00  0.00    -0.332 OA
ATOM     12  C   UNL     1       6.139   5.765  35.179  0.00  0.00    +0.277 C 
ATOM     13  C   UNL     1       6.975   5.382  33.933  0.00  0.00    +0.110 C 
ATOM     14  C   UNL     1       6.830   3.885  33.589  0.00  0.00    +0.143 C 
ATOM     15  C   UNL     1       5.358   3.488  33.473  0.00  0.00    +0.133 C 
BRANCH  15  16
ATOM     16  N   UNL     1       5.232   2.042  33.231  0.00  0.00    -0.308 N 
ATOM     17  H   UNL     1       5.556   1.413  33.953  0.00  0.00    +0.149 HD
ATOM     18  C   UNL     1       4.716   1.507  32.121  0.00  0.00    +0.210 C 
ATOM     19  C   UNL     1       4.255   2.492  31.031  0.00  0.00    +0.109 C 
ATOM     20  O   UNL     1       4.609   0.292  31.953  0.00  0.00    -0.276 OA
ENDBRANCH  15  16
BRANCH  12  21
ATOM     21  C   UNL     1       6.801   5.181  36.444  0.00  0.00    +0.414 C 
ATOM     22  O   UNL     1       6.130   4.551  37.261  0.00  0.00    -0.240 OA
ATOM     23  O   UNL     1       8.006   5.338  36.648  0.00  0.00    -0.240 OA
ENDBRANCH  12  21
BRANCH  14  24
ATOM     24  O   UNL     1       7.491   3.608  32.354  0.00  0.00    -0.390 OA
ATOM     25  H   UNL     1       7.056   4.086  31.644  0.00  0.00    +0.210 HD
ENDBRANCH  14  24
BRANCH  12  26
ATOM     26  O   UNL     1       6.098   7.213  35.275  0.00  0.00    -0.343 OA
ATOM     27  C   UNL     1       7.045   7.909  34.426  0.00  0.00    +0.198 C 
ENDBRANCH  12  26
ENDBRANCH   9  10
BRANCH   9  28
ATOM     28  O   UNL     1       2.522   3.905  33.525  0.00  0.00    -0.387 OA
ATOM     29  H   UNL     1       2.839   3.324  32.829  0.00  0.00    +0.210 HD
ENDBRANCH   9  28
ENDBRANCH   6   9
ENDBRANCH   5   6
ENDBRANCH   3   5
BRANCH   1  30
ATOM     30  O   UNL     1      -1.575   3.126  33.733  0.00  0.00    -0.444 OA
BRANCH  30  31
ATOM     31  C   UNL     1      -1.231   4.344  33.066  0.00  0.00    +0.292 C 
BRANCH  31  33
ATOM     32  N   UNL     1       0.660   4.860  31.571  0.00  0.00    -0.131 NA
ATOM     33  C   UNL     1      -0.398   4.059  31.885  0.00  0.00    +0.121 A 
ATOM     34  C   UNL     1      -0.477   3.040  30.968  0.00  0.00    +0.145 A 
ATOM     35  N   UNL     1       0.587   3.242  30.108  0.00  0.00    -0.199 N 
ATOM     36  N   UNL     1       1.254   4.353  30.499  0.00  0.00    -0.059 NA
BRANCH  35  37
ATOM     37  C   UNL     1       0.978   2.373  29.048  0.00  0.00    +0.186 A 
ATOM     38  C   UNL     1       0.934   2.571  27.683  0.00  0.00    +0.158 A 
ATOM     39  C   UNL     1       0.390   3.607  26.860  0.00  0.00    +0.280 A 
ATOM     40  O   UNL     1      -0.467   4.382  27.263  0.00  0.00    -0.265 OA
ATOM     41  N   UNL     1       0.888   3.651  25.542  0.00  0.00    -0.302 N 
ATOM     42  C   UNL     1       1.513   2.483  24.962  0.00  0.00    +0.069 A 
ATOM     43  C   UNL     1       1.775   2.367  23.589  0.00  0.00    +0.028 A 
ATOM     44  C   UNL     1       2.336   1.199  23.054  0.00  0.00    +0.002 A 
ATOM     45  C   UNL     1       2.656   0.126  23.878  0.00  0.00    +0.002 A 
ATOM     46  C   UNL     1       2.421   0.212  25.247  0.00  0.00    +0.028 A 
ATOM     47  C   UNL     1       1.847   1.378  25.775  0.00  0.00    +0.072 A 
ATOM     48  N   UNL     1       1.589   1.493  27.150  0.00  0.00    -0.291 N 
ATOM     49  C   UNL     1       1.896   0.647  28.186  0.00  0.00    +0.207 A 
ATOM     50  N   UNL     1       1.551   1.152  29.351  0.00  0.00    -0.216 NA
BRANCH  41  51
ATOM     51  C   UNL     1       0.566   4.840  24.719  0.00  0.00    +0.085 C 
ATOM     52  C   UNL     1      -0.717   4.683  23.878  0.00  0.00    +0.030 C 
ATOM     53  C   UNL     1       1.740   5.253  23.832  0.00  0.00    +0.030 C 
ENDBRANCH  41  51
ENDBRANCH  35  37
ENDBRANCH  31  33
ENDBRANCH  30  31
ENDBRANCH   1  30
TORSDOF 15
