REMARK VINA RESULT:    -6.882     13.428     17.902
REMARK INTER + INTRA:         -15.515
REMARK INTER:                 -13.328
REMARK INTRA:                  -2.186
REMARK UNBOUND:                -2.597
REMARK  Name = lig_assembled_77.pdb
REMARK  19 active torsions:
REMARK  status: ('A' for Active; 'I' for Inactive)
REMARK    1  A    between atoms: _2  and  _10
REMARK    2  A    between atoms: _3  and  _17
REMARK    3  A    between atoms: _5  and  _27
REMARK    4  A    between atoms: _7  and  _8
REMARK    5  A    between atoms: _7  and  _27
REMARK    6  A    between atoms: _13  and  _47
REMARK    7  A    between atoms: _14  and  _47
REMARK    8  A    between atoms: _23  and  _43
REMARK    9  A    between atoms: _25  and  _31
REMARK   10  A    between atoms: _26  and  _30
REMARK   11  A    between atoms: _30  and  _31
REMARK   12  A    between atoms: _33  and  _34
REMARK   13  A    between atoms: _35  and  _36
REMARK   14  A    between atoms: _37  and  _39
REMARK   15  A    between atoms: _39  and  _40
REMARK   16  A    between atoms: _39  and  _41
REMARK   17  A    between atoms: _41  and  _42
REMARK   18  A    between atoms: _41  and  _43
REMARK   19  A    between atoms: _44  and  _46
REMARK                            x       y       z     vdW  Elec       q    Type
REMARK                         _______ _______ _______ _____ _____    ______ ____
ROOT
ATOM      1  C   UNL     1      17.697   5.249  23.015  0.00  0.00    +0.401 C 
ATOM      2  O   UNL     1      16.763   5.220  22.210  0.00  0.00    -0.226 OA
ATOM      3  N   UNL     1      18.169   4.174  23.647  0.00  0.00    -0.279 N 
ATOM      4  H   UNL     1      18.946   4.297  24.282  0.00  0.00    +0.152 HD
ENDROOT
BRANCH   3   5
ATOM      5  C   UNL     1      17.624   2.822  23.473  0.00  0.00    +0.141 C 
BRANCH   5   6
ATOM      6  C   UNL     1      17.426   2.112  24.809  0.00  0.00    +0.163 C 
BRANCH   6   7
ATOM      7  O   UNL     1      16.106   1.550  24.875  0.00  0.00    -0.388 OA
ATOM      8  H   UNL     1      15.465   2.200  24.579  0.00  0.00    +0.210 HD
ENDBRANCH   6   7
BRANCH   6   9
ATOM      9  C   UNL     1      18.498   1.021  24.975  0.00  0.00    +0.175 C 
BRANCH   9  10
ATOM     10  C   UNL     1      18.093  -0.295  24.295  0.00  0.00    +0.176 C 
ATOM     11  O   UNL     1      17.677  -1.224  25.333  0.00  0.00    -0.332 OA
ATOM     12  C   UNL     1      17.152  -2.509  24.860  0.00  0.00    +0.277 C 
ATOM     13  C   UNL     1      18.171  -3.197  23.920  0.00  0.00    +0.110 C 
ATOM     14  C   UNL     1      18.668  -2.237  22.818  0.00  0.00    +0.143 C 
ATOM     15  C   UNL     1      19.189  -0.932  23.421  0.00  0.00    +0.133 C 
BRANCH  15  16
ATOM     16  N   UNL     1      19.578   0.007  22.357  0.00  0.00    -0.308 N 
ATOM     17  H   UNL     1      18.899   0.211  21.637  0.00  0.00    +0.149 HD
ATOM     18  C   UNL     1      20.769   0.608  22.282  0.00  0.00    +0.210 C 
ATOM     19  C   UNL     1      21.789   0.256  23.380  0.00  0.00    +0.109 C 
ATOM     20  O   UNL     1      21.061   1.402  21.387  0.00  0.00    -0.276 OA
ENDBRANCH  15  16
BRANCH  12  21
ATOM     21  C   UNL     1      15.815  -2.313  24.115  0.00  0.00    +0.414 C 
ATOM     22  O   UNL     1      15.182  -1.265  24.243  0.00  0.00    -0.240 OA
ATOM     23  O   UNL     1      15.370  -3.201  23.387  0.00  0.00    -0.240 OA
ENDBRANCH  12  21
BRANCH  14  24
ATOM     24  O   UNL     1      19.713  -2.861  22.071  0.00  0.00    -0.390 OA
ATOM     25  H   UNL     1      20.171  -3.495  22.628  0.00  0.00    +0.210 HD
ENDBRANCH  14  24
BRANCH  12  26
ATOM     26  O   UNL     1      16.946  -3.362  26.015  0.00  0.00    -0.343 OA
ATOM     27  C   UNL     1      16.751  -2.660  27.269  0.00  0.00    +0.198 C 
ENDBRANCH  12  26
ENDBRANCH   9  10
BRANCH   9  28
ATOM     28  O   UNL     1      18.765   0.797  26.373  0.00  0.00    -0.387 OA
ATOM     29  H   UNL     1      19.409   0.090  26.467  0.00  0.00    +0.210 HD
ENDBRANCH   9  28
ENDBRANCH   6   9
ENDBRANCH   5   6
ENDBRANCH   3   5
BRANCH   1  30
ATOM     30  O   UNL     1      18.331   6.499  23.299  0.00  0.00    -0.444 OA
BRANCH  30  31
ATOM     31  C   UNL     1      19.566   6.264  23.981  0.00  0.00    +0.292 C 
BRANCH  31  33
ATOM     32  N   UNL     1      20.613   8.173  25.152  0.00  0.00    -0.131 NA
ATOM     33  C   UNL     1      19.694   7.166  25.142  0.00  0.00    +0.121 A 
ATOM     34  C   UNL     1      18.992   7.186  26.325  0.00  0.00    +0.143 A 
ATOM     35  N   UNL     1      19.518   8.243  27.033  0.00  0.00    -0.220 N 
ATOM     36  N   UNL     1      20.508   8.817  26.306  0.00  0.00    -0.060 NA
BRANCH  35  37
ATOM     37  C   UNL     1      19.111   8.765  28.289  0.00  0.00    +0.067 A 
ATOM     38  C   UNL     1      18.941   7.922  29.399  0.00  0.00    +0.030 A 
ATOM     39  C   UNL     1      18.425   8.433  30.594  0.00  0.00    +0.029 A 
ATOM     40  C   UNL     1      18.084   9.784  30.679  0.00  0.00    +0.094 A 
ATOM     41  C   UNL     1      18.335  10.650  29.611  0.00  0.00    +0.029 A 
ATOM     42  C   UNL     1      18.837  10.138  28.412  0.00  0.00    +0.030 A 
BRANCH  40  43
ATOM     43  S   UNL     1      17.361  10.418  32.179  0.00  0.00    +0.025 S 
ATOM     44  O   UNL     1      18.405  11.182  32.840  0.00  0.00    -0.164 OA
ATOM     45  O   UNL     1      16.101  11.042  31.822  0.00  0.00    -0.164 OA
BRANCH  43  46
ATOM     46  C   UNL     1      16.959   9.051  33.247  0.00  0.00    +0.094 A 
ATOM     47  C   UNL     1      15.699   8.452  33.206  0.00  0.00    +0.029 A 
ATOM     48  C   UNL     1      15.397   7.420  34.103  0.00  0.00    +0.024 A 
ATOM     49  C   UNL     1      16.355   6.948  35.010  0.00  0.00    +0.025 A 
ATOM     50  C   UNL     1      17.601   7.580  35.057  0.00  0.00    +0.024 A 
ATOM     51  C   UNL     1      17.915   8.612  34.169  0.00  0.00    +0.029 A 
BRANCH  49  52
ATOM     52  N   UNL     1      15.990   6.042  36.010  0.00  0.00    -0.358 N 
ATOM     53  H   UNL     1      16.769   5.621  36.507  0.00  0.00    +0.142 HD
ATOM     54  H   UNL     1      15.264   6.376  36.635  0.00  0.00    +0.142 HD
ENDBRANCH  49  52
ENDBRANCH  43  46
ENDBRANCH  40  43
ENDBRANCH  35  37
ENDBRANCH  31  33
ENDBRANCH  30  31
ENDBRANCH   1  30
TORSDOF 17
