REMARK VINA RESULT:    -5.539     14.008     17.937
REMARK INTER + INTRA:         -13.389
REMARK INTER:                 -11.488
REMARK INTRA:                  -1.901
REMARK UNBOUND:                -3.154
REMARK  Name = lig_assembled_67.pdb
REMARK  18 active torsions:
REMARK  status: ('A' for Active; 'I' for Inactive)
REMARK    1  A    between atoms: _2  and  _9
REMARK    2  A    between atoms: _4  and  _19
REMARK    3  A    between atoms: _6  and  _7
REMARK    4  A    between atoms: _6  and  _19
REMARK    5  A    between atoms: _9  and  _10
REMARK    6  A    between atoms: _10  and  _11
REMARK    7  A    between atoms: _15  and  _35
REMARK    8  A    between atoms: _17  and  _23
REMARK    9  A    between atoms: _18  and  _22
REMARK   10  A    between atoms: _22  and  _23
REMARK   11  A    between atoms: _25  and  _26
REMARK   12  A    between atoms: _27  and  _28
REMARK   13  A    between atoms: _29  and  _31
REMARK   14  A    between atoms: _31  and  _32
REMARK   15  A    between atoms: _31  and  _33
REMARK   16  A    between atoms: _33  and  _34
REMARK   17  A    between atoms: _33  and  _35
REMARK   18  A    between atoms: _36  and  _38
REMARK                            x       y       z     vdW  Elec       q    Type
REMARK                         _______ _______ _______ _____ _____    ______ ____
ROOT
ATOM      1  C   UNL     1      18.626   5.855  23.997  0.00  0.00    +0.163 C 
ENDROOT
BRANCH   1   2
ATOM      2  O   UNL     1      17.589   5.903  23.003  0.00  0.00    -0.388 OA
ATOM      3  H   UNL     1      17.465   5.028  22.627  0.00  0.00    +0.210 HD
ENDBRANCH   1   2
BRANCH   1   4
ATOM      4  C   UNL     1      19.277   4.462  24.046  0.00  0.00    +0.175 C 
BRANCH   4   5
ATOM      5  C   UNL     1      18.468   3.476  24.902  0.00  0.00    +0.176 C 
ATOM      6  O   UNL     1      19.325   3.015  25.983  0.00  0.00    -0.332 OA
ATOM      7  C   UNL     1      18.684   2.141  26.970  0.00  0.00    +0.277 C 
ATOM      8  C   UNL     1      18.025   0.927  26.271  0.00  0.00    +0.110 C 
ATOM      9  C   UNL     1      17.129   1.365  25.094  0.00  0.00    +0.143 C 
ATOM     10  C   UNL     1      17.894   2.273  24.130  0.00  0.00    +0.133 C 
BRANCH  10  11
ATOM     11  N   UNL     1      17.006   2.754  23.060  0.00  0.00    -0.308 N 
ATOM     12  H   UNL     1      16.261   3.388  23.315  0.00  0.00    +0.149 HD
ATOM     13  C   UNL     1      17.120   2.409  21.775  0.00  0.00    +0.210 C 
ATOM     14  C   UNL     1      18.249   1.421  21.424  0.00  0.00    +0.109 C 
ATOM     15  O   UNL     1      16.370   2.839  20.898  0.00  0.00    -0.276 OA
ENDBRANCH  10  11
BRANCH   7  16
ATOM     16  C   UNL     1      17.619   2.913  27.776  0.00  0.00    +0.414 C 
ATOM     17  O   UNL     1      17.938   3.539  28.786  0.00  0.00    -0.240 OA
ATOM     18  O   UNL     1      16.441   2.911  27.415  0.00  0.00    -0.240 OA
ENDBRANCH   7  16
BRANCH   9  19
ATOM     19  O   UNL     1      16.664   0.215  24.387  0.00  0.00    -0.390 OA
ATOM     20  H   UNL     1      17.370  -0.128  23.834  0.00  0.00    +0.210 HD
ENDBRANCH   9  19
BRANCH   7  21
ATOM     21  O   UNL     1      19.713   1.649  27.868  0.00  0.00    -0.343 OA
ATOM     22  C   UNL     1      19.470   0.326  28.410  0.00  0.00    +0.198 C 
ENDBRANCH   7  21
ENDBRANCH   4   5
BRANCH   4  23
ATOM     23  O   UNL     1      20.626   4.562  24.545  0.00  0.00    -0.387 OA
ATOM     24  H   UNL     1      20.915   3.702  24.860  0.00  0.00    +0.210 HD
ENDBRANCH   4  23
ENDBRANCH   1   4
BRANCH   1  25
ATOM     25  C   UNL     1      19.690   6.904  23.692  0.00  0.00    +0.141 C 
BRANCH  25  28
ATOM     26  C   UNL     1      20.841   7.843  25.666  0.00  0.00    +0.401 C 
ATOM     27  O   UNL     1      21.742   7.002  25.658  0.00  0.00    -0.226 OA
ATOM     28  N   UNL     1      19.838   7.869  24.788  0.00  0.00    -0.279 N 
ATOM     29  H   UNL     1      19.140   8.594  24.882  0.00  0.00    +0.152 HD
BRANCH  26  30
ATOM     30  O   UNL     1      20.848   8.860  26.672  0.00  0.00    -0.444 OA
BRANCH  30  31
ATOM     31  C   UNL     1      19.663   9.652  26.559  0.00  0.00    +0.292 C 
BRANCH  31  33
ATOM     32  N   UNL     1      18.047  10.751  28.077  0.00  0.00    -0.131 NA
ATOM     33  C   UNL     1      19.016   9.801  27.876  0.00  0.00    +0.120 A 
ATOM     34  C   UNL     1      19.215   9.108  29.048  0.00  0.00    +0.137 A 
ATOM     35  N   UNL     1      18.344   9.683  29.922  0.00  0.00    -0.251 N 
ATOM     36  N   UNL     1      17.645  10.670  29.338  0.00  0.00    -0.065 NA
BRANCH  35  37
ATOM     37  C   UNL     1      18.112   9.344  31.308  0.00  0.00    +0.150 C 
BRANCH  37  38
ATOM     38  C   UNL     1      17.464  10.468  32.113  0.00  0.00    +0.084 C 
BRANCH  38  39
ATOM     39  C   UNL     1      16.337   9.971  33.005  0.00  0.00    +0.252 C 
ATOM     40  O   UNL     1      15.743   8.796  32.442  0.00  0.00    -0.349 OA
ATOM     41  C   UNL     1      15.276   8.087  33.588  0.00  0.00    +0.191 C 
ATOM     42  C   UNL     1      16.335   8.363  34.623  0.00  0.00    +0.191 C 
ATOM     43  O   UNL     1      16.831   9.667  34.313  0.00  0.00    -0.349 OA
ENDBRANCH  38  39
ENDBRANCH  37  38
ENDBRANCH  35  37
ENDBRANCH  31  33
ENDBRANCH  30  31
ENDBRANCH  26  30
ENDBRANCH  25  28
ENDBRANCH   1  25
TORSDOF 16
