REMARK VINA RESULT:    -5.748      1.438      3.730
REMARK INTER + INTRA:         -14.173
REMARK INTER:                 -12.708
REMARK INTRA:                  -1.464
REMARK UNBOUND:                -3.888
REMARK  Name = lig_assembled_46.pdb
REMARK  17 active torsions:
REMARK  status: ('A' for Active; 'I' for Inactive)
REMARK    1  A    between atoms: _2  and  _9
REMARK    2  A    between atoms: _4  and  _19
REMARK    3  A    between atoms: _6  and  _7
REMARK    4  A    between atoms: _6  and  _19
REMARK    5  A    between atoms: _9  and  _10
REMARK    6  A    between atoms: _15  and  _35
REMARK    7  A    between atoms: _17  and  _23
REMARK    8  A    between atoms: _18  and  _22
REMARK    9  A    between atoms: _22  and  _23
REMARK   10  A    between atoms: _25  and  _26
REMARK   11  A    between atoms: _27  and  _28
REMARK   12  A    between atoms: _29  and  _31
REMARK   13  A    between atoms: _31  and  _32
REMARK   14  A    between atoms: _31  and  _33
REMARK   15  A    between atoms: _33  and  _34
REMARK   16  A    between atoms: _33  and  _35
REMARK   17  A    between atoms: _36  and  _38
REMARK                            x       y       z     vdW  Elec       q    Type
REMARK                         _______ _______ _______ _____ _____    ______ ____
ROOT
ATOM      1  C   UNL     1       3.005   2.702  32.922  0.00  0.00    +0.163 C 
ENDROOT
BRANCH   1   2
ATOM      2  O   UNL     1       3.684   1.882  31.956  0.00  0.00    -0.388 OA
ATOM      3  H   UNL     1       4.415   2.374  31.575  0.00  0.00    +0.210 HD
ENDBRANCH   1   2
BRANCH   1   4
ATOM      4  C   UNL     1       1.762   3.325  32.295  0.00  0.00    +0.141 C 
BRANCH   4   7
ATOM      5  C   UNL     1       0.927   3.658  29.994  0.00  0.00    +0.401 C 
ATOM      6  O   UNL     1       0.349   4.715  30.256  0.00  0.00    -0.226 OA
ATOM      7  N   UNL     1       1.606   2.938  30.887  0.00  0.00    -0.279 N 
ATOM      8  H   UNL     1       2.038   2.079  30.579  0.00  0.00    +0.152 HD
BRANCH   5   9
ATOM      9  O   UNL     1       0.875   3.151  28.658  0.00  0.00    -0.444 OA
BRANCH   9  10
ATOM     10  C   UNL     1      -0.326   3.598  28.023  0.00  0.00    +0.292 C 
BRANCH  10  12
ATOM     11  N   UNL     1      -0.803   5.149  26.154  0.00  0.00    -0.131 NA
ATOM     12  C   UNL     1      -0.026   4.158  26.692  0.00  0.00    +0.120 A 
ATOM     13  C   UNL     1       1.004   3.872  25.823  0.00  0.00    +0.137 A 
ATOM     14  N   UNL     1       0.833   4.762  24.801  0.00  0.00    -0.247 N 
ATOM     15  N   UNL     1      -0.264   5.519  24.999  0.00  0.00    -0.065 NA
BRANCH  14  16
ATOM     16  C   UNL     1       1.787   5.113  23.764  0.00  0.00    +0.180 C 
BRANCH  16  17
ATOM     17  C   UNL     1       1.843   4.121  22.629  0.00  0.00    -0.026 A 
ATOM     18  C   UNL     1       1.869   2.740  22.878  0.00  0.00    +0.005 A 
ATOM     19  C   UNL     1       1.823   1.828  21.821  0.00  0.00    +0.000 A 
ATOM     20  C   UNL     1       1.748   2.283  20.507  0.00  0.00    +0.000 A 
ATOM     21  C   UNL     1       1.731   3.651  20.245  0.00  0.00    +0.000 A 
ATOM     22  C   UNL     1       1.777   4.566  21.300  0.00  0.00    +0.005 A 
ENDBRANCH  16  17
ENDBRANCH  14  16
ENDBRANCH  10  12
ENDBRANCH   9  10
ENDBRANCH   5   9
ENDBRANCH   4   7
ENDBRANCH   1   4
BRANCH   1  23
ATOM     23  C   UNL     1       3.930   3.816  33.444  0.00  0.00    +0.175 C 
BRANCH  23  24
ATOM     24  C   UNL     1       5.371   3.324  33.643  0.00  0.00    +0.176 C 
ATOM     25  O   UNL     1       5.313   1.957  34.135  0.00  0.00    -0.332 OA
ATOM     26  C   UNL     1       6.606   1.282  34.285  0.00  0.00    +0.277 C 
ATOM     27  C   UNL     1       7.553   2.120  35.178  0.00  0.00    +0.110 C 
ATOM     28  C   UNL     1       7.623   3.590  34.713  0.00  0.00    +0.143 C 
ATOM     29  C   UNL     1       6.223   4.192  34.588  0.00  0.00    +0.133 C 
BRANCH  29  30
ATOM     30  N   UNL     1       6.298   5.564  34.061  0.00  0.00    -0.308 N 
ATOM     31  H   UNL     1       6.527   5.682  33.084  0.00  0.00    +0.149 HD
ATOM     32  C   UNL     1       6.082   6.663  34.789  0.00  0.00    +0.210 C 
ATOM     33  C   UNL     1       5.760   6.450  36.280  0.00  0.00    +0.109 C 
ATOM     34  O   UNL     1       6.137   7.799  34.317  0.00  0.00    -0.276 OA
ENDBRANCH  29  30
BRANCH  26  35
ATOM     35  C   UNL     1       7.265   1.050  32.910  0.00  0.00    +0.414 C 
ATOM     36  O   UNL     1       6.599   0.623  31.967  0.00  0.00    -0.240 OA
ATOM     37  O   UNL     1       8.461   1.290  32.742  0.00  0.00    -0.240 OA
ENDBRANCH  26  35
BRANCH  26  38
ATOM     38  O   UNL     1       6.373   0.006  34.937  0.00  0.00    -0.343 OA
ATOM     39  C   UNL     1       7.555  -0.815  35.113  0.00  0.00    +0.198 C 
ENDBRANCH  26  38
BRANCH  28  40
ATOM     40  O   UNL     1       8.383   4.356  35.648  0.00  0.00    -0.390 OA
ATOM     41  H   UNL     1       8.447   3.877  36.478  0.00  0.00    +0.210 HD
ENDBRANCH  28  40
ENDBRANCH  23  24
BRANCH  23  42
ATOM     42  O   UNL     1       3.413   4.352  34.678  0.00  0.00    -0.387 OA
ATOM     43  H   UNL     1       3.145   3.631  35.254  0.00  0.00    +0.210 HD
ENDBRANCH  23  42
ENDBRANCH   1  23
TORSDOF 15
