REMARK VINA RESULT:    -5.912      8.517     12.903
REMARK INTER + INTRA:         -13.421
REMARK INTER:                 -11.405
REMARK INTRA:                  -2.017
REMARK UNBOUND:                -2.326
REMARK  Name = lig_assembled_32.pdb
REMARK  19 active torsions:
REMARK  status: ('A' for Active; 'I' for Inactive)
REMARK    1  A    between atoms: _2  and  _9
REMARK    2  A    between atoms: _4  and  _17
REMARK    3  A    between atoms: _5  and  _10
REMARK    4  A    between atoms: _5  and  _11
REMARK    5  A    between atoms: _6  and  _7
REMARK    6  A    between atoms: _6  and  _17
REMARK    7  A    between atoms: _9  and  _10
REMARK    8  A    between atoms: _13  and  _33
REMARK    9  A    between atoms: _15  and  _21
REMARK   10  A    between atoms: _16  and  _20
REMARK   11  A    between atoms: _20  and  _21
REMARK   12  A    between atoms: _23  and  _24
REMARK   13  A    between atoms: _25  and  _26
REMARK   14  A    between atoms: _27  and  _29
REMARK   15  A    between atoms: _29  and  _30
REMARK   16  A    between atoms: _29  and  _31
REMARK   17  A    between atoms: _31  and  _32
REMARK   18  A    between atoms: _31  and  _33
REMARK   19  A    between atoms: _34  and  _36
REMARK                            x       y       z     vdW  Elec       q    Type
REMARK                         _______ _______ _______ _____ _____    ______ ____
ROOT
ATOM      1  C   UNL     1      18.944   7.275  30.217  0.00  0.00    +0.163 C 
ENDROOT
BRANCH   1   2
ATOM      2  O   UNL     1      18.300   5.993  30.294  0.00  0.00    -0.388 OA
ATOM      3  H   UNL     1      17.694   5.983  31.038  0.00  0.00    +0.210 HD
ENDBRANCH   1   2
BRANCH   1   4
ATOM      4  C   UNL     1      19.460   7.716  31.597  0.00  0.00    +0.175 C 
BRANCH   4   5
ATOM      5  C   UNL     1      18.414   8.532  32.372  0.00  0.00    +0.176 C 
ATOM      6  O   UNL     1      17.348   7.627  32.771  0.00  0.00    -0.332 OA
ATOM      7  C   UNL     1      16.304   8.213  33.617  0.00  0.00    +0.277 C 
ATOM      8  C   UNL     1      15.700   9.468  32.942  0.00  0.00    +0.110 C 
ATOM      9  C   UNL     1      16.798  10.445  32.471  0.00  0.00    +0.143 C 
ATOM     10  C   UNL     1      17.832   9.731  31.600  0.00  0.00    +0.133 C 
BRANCH  10  11
ATOM     11  N   UNL     1      18.918  10.652  31.230  0.00  0.00    -0.308 N 
ATOM     12  H   UNL     1      19.533  10.975  31.964  0.00  0.00    +0.149 HD
ATOM     13  C   UNL     1      19.145  11.088  29.989  0.00  0.00    +0.210 C 
ATOM     14  C   UNL     1      18.174  10.598  28.897  0.00  0.00    +0.109 C 
ATOM     15  O   UNL     1      20.072  11.848  29.706  0.00  0.00    -0.276 OA
ENDBRANCH  10  11
BRANCH   7  16
ATOM     16  C   UNL     1      16.872   8.594  35.000  0.00  0.00    +0.414 C 
ATOM     17  O   UNL     1      17.806   7.958  35.484  0.00  0.00    -0.240 OA
ATOM     18  O   UNL     1      16.395   9.539  35.632  0.00  0.00    -0.240 OA
ENDBRANCH   7  16
BRANCH   7  19
ATOM     19  O   UNL     1      15.251   7.228  33.777  0.00  0.00    -0.343 OA
ATOM     20  C   UNL     1      15.666   5.851  33.590  0.00  0.00    +0.198 C 
ENDBRANCH   7  19
BRANCH   9  21
ATOM     21  O   UNL     1      16.207  11.509  31.723  0.00  0.00    -0.390 OA
ATOM     22  H   UNL     1      15.324  11.254  31.445  0.00  0.00    +0.210 HD
ENDBRANCH   9  21
ENDBRANCH   4   5
BRANCH   4  23
ATOM     23  O   UNL     1      20.676   8.477  31.453  0.00  0.00    -0.387 OA
ATOM     24  H   UNL     1      20.759   8.780  30.546  0.00  0.00    +0.210 HD
ENDBRANCH   4  23
ENDBRANCH   1   4
BRANCH   1  25
ATOM     25  C   UNL     1      20.108   7.216  29.232  0.00  0.00    +0.141 C 
BRANCH  25  28
ATOM     26  C   UNL     1      19.146   6.568  27.051  0.00  0.00    +0.401 C 
ATOM     27  O   UNL     1      18.974   5.389  27.371  0.00  0.00    -0.226 OA
ATOM     28  N   UNL     1      19.675   7.489  27.856  0.00  0.00    -0.279 N 
ATOM     29  H   UNL     1      19.784   8.428  27.500  0.00  0.00    +0.152 HD
BRANCH  26  30
ATOM     30  O   UNL     1      18.766   6.994  25.740  0.00  0.00    -0.444 OA
BRANCH  30  31
ATOM     31  C   UNL     1      19.492   6.243  24.764  0.00  0.00    +0.292 C 
BRANCH  31  33
ATOM     32  N   UNL     1      17.668   6.291  23.091  0.00  0.00    -0.131 NA
ATOM     33  C   UNL     1      18.563   5.569  23.838  0.00  0.00    +0.120 A 
ATOM     34  C   UNL     1      18.404   4.229  23.559  0.00  0.00    +0.137 A 
ATOM     35  N   UNL     1      17.394   4.204  22.648  0.00  0.00    -0.251 N 
ATOM     36  N   UNL     1      16.954   5.442  22.366  0.00  0.00    -0.065 NA
BRANCH  35  37
ATOM     37  C   UNL     1      16.800   3.055  22.000  0.00  0.00    +0.156 C 
BRANCH  37  38
ATOM     38  C   UNL     1      17.533   1.766  22.343  0.00  0.00    +0.143 C 
BRANCH  38  39
ATOM     39  C   UNL     1      18.428   1.361  21.207  0.00  0.00    +0.306 C 
ATOM     40  O   UNL     1      19.648   1.360  21.246  0.00  0.00    -0.251 OA
BRANCH  39  41
ATOM     41  O   UNL     1      17.738   1.000  20.102  0.00  0.00    -0.481 OA
ATOM     42  H   UNL     1      17.924   0.094  19.790  0.00  0.00    +0.295 HD
ENDBRANCH  39  41
ENDBRANCH  38  39
ENDBRANCH  37  38
ENDBRANCH  35  37
ENDBRANCH  31  33
ENDBRANCH  30  31
ENDBRANCH  26  30
ENDBRANCH  25  28
ENDBRANCH   1  25
TORSDOF 17
