REMARK VINA RESULT:    -5.903     17.326     20.577
REMARK INTER + INTRA:         -14.046
REMARK INTER:                 -10.163
REMARK INTRA:                  -3.883
REMARK UNBOUND:                -2.450
REMARK  Name = lig_assembled_10.pdb
REMARK  21 active torsions:
REMARK  status: ('A' for Active; 'I' for Inactive)
REMARK    1  A    between atoms: _2  and  _9
REMARK    2  A    between atoms: _4  and  _20
REMARK    3  A    between atoms: _5  and  _9
REMARK    4  A    between atoms: _5  and  _12
REMARK    5  A    between atoms: _6  and  _7
REMARK    6  A    between atoms: _6  and  _20
REMARK    7  A    between atoms: _9  and  _10
REMARK    8  A    between atoms: _10  and  _11
REMARK    9  A    between atoms: _11  and  _14
REMARK   10  A    between atoms: _16  and  _36
REMARK   11  A    between atoms: _18  and  _24
REMARK   12  A    between atoms: _19  and  _23
REMARK   13  A    between atoms: _23  and  _24
REMARK   14  A    between atoms: _26  and  _27
REMARK   15  A    between atoms: _28  and  _29
REMARK   16  A    between atoms: _30  and  _32
REMARK   17  A    between atoms: _32  and  _33
REMARK   18  A    between atoms: _32  and  _34
REMARK   19  A    between atoms: _34  and  _35
REMARK   20  A    between atoms: _34  and  _36
REMARK   21  A    between atoms: _37  and  _39
REMARK                            x       y       z     vdW  Elec       q    Type
REMARK                         _______ _______ _______ _____ _____    ______ ____
ROOT
ATOM      1  C   UNL     1       7.341   9.260  42.465  0.00  0.00    +0.163 C 
ENDROOT
BRANCH   1   2
ATOM      2  O   UNL     1       7.076  10.565  41.925  0.00  0.00    -0.388 OA
ATOM      3  H   UNL     1       7.704  11.195  42.288  0.00  0.00    +0.210 HD
ENDBRANCH   1   2
BRANCH   1   4
ATOM      4  C   UNL     1       6.619   8.171  41.652  0.00  0.00    +0.175 C 
BRANCH   4   5
ATOM      5  C   UNL     1       5.285   8.669  41.077  0.00  0.00    +0.176 C 
ATOM      6  O   UNL     1       4.642   9.492  42.089  0.00  0.00    -0.332 OA
ATOM      7  C   UNL     1       3.395  10.145  41.676  0.00  0.00    +0.277 C 
ATOM      8  C   UNL     1       2.390   9.099  41.136  0.00  0.00    +0.110 C 
ATOM      9  C   UNL     1       3.038   8.179  40.079  0.00  0.00    +0.143 C 
ATOM     10  C   UNL     1       4.328   7.555  40.612  0.00  0.00    +0.133 C 
BRANCH  10  11
ATOM     11  N   UNL     1       4.981   6.751  39.568  0.00  0.00    -0.308 N 
ATOM     12  H   UNL     1       5.409   7.240  38.794  0.00  0.00    +0.149 HD
ATOM     13  C   UNL     1       5.046   5.416  39.576  0.00  0.00    +0.210 C 
ATOM     14  C   UNL     1       4.362   4.700  40.755  0.00  0.00    +0.109 C 
ATOM     15  O   UNL     1       5.612   4.769  38.694  0.00  0.00    -0.276 OA
ENDBRANCH  10  11
BRANCH   7  16
ATOM     16  C   UNL     1       3.667  11.207  40.591  0.00  0.00    +0.414 C 
ATOM     17  O   UNL     1       2.747  11.629  39.891  0.00  0.00    -0.240 OA
ATOM     18  O   UNL     1       4.806  11.643  40.415  0.00  0.00    -0.240 OA
ENDBRANCH   7  16
BRANCH   7  19
ATOM     19  O   UNL     1       2.813  10.778  42.844  0.00  0.00    -0.343 OA
ATOM     20  C   UNL     1       1.636  10.118  43.376  0.00  0.00    +0.198 C 
ENDBRANCH   7  19
BRANCH   9  21
ATOM     21  O   UNL     1       2.126   7.140  39.721  0.00  0.00    -0.390 OA
ATOM     22  H   UNL     1       2.467   6.295  40.025  0.00  0.00    +0.210 HD
ENDBRANCH   9  21
ENDBRANCH   4   5
BRANCH   4  23
ATOM     23  O   UNL     1       6.404   7.003  42.468  0.00  0.00    -0.387 OA
ATOM     24  H   UNL     1       6.251   6.242  41.903  0.00  0.00    +0.210 HD
ENDBRANCH   4  23
ENDBRANCH   1   4
BRANCH   1  25
ATOM     25  C   UNL     1       8.842   8.988  42.460  0.00  0.00    +0.141 C 
BRANCH  25  28
ATOM     26  C   UNL     1      10.445   7.545  41.255  0.00  0.00    +0.401 C 
ATOM     27  O   UNL     1      11.370   7.752  42.044  0.00  0.00    -0.226 OA
ATOM     28  N   UNL     1       9.231   8.086  41.370  0.00  0.00    -0.279 N 
ATOM     29  H   UNL     1       8.541   7.863  40.666  0.00  0.00    +0.152 HD
BRANCH  26  30
ATOM     30  O   UNL     1      10.665   6.677  40.140  0.00  0.00    -0.444 OA
BRANCH  30  31
ATOM     31  C   UNL     1       9.536   5.816  39.973  0.00  0.00    +0.292 C 
BRANCH  31  33
ATOM     32  N   UNL     1       8.031   7.252  38.628  0.00  0.00    -0.131 NA
ATOM     33  C   UNL     1       8.826   6.142  38.722  0.00  0.00    +0.120 A 
ATOM     34  C   UNL     1       8.818   5.479  37.515  0.00  0.00    +0.138 A 
ATOM     35  N   UNL     1       8.038   6.254  36.713  0.00  0.00    -0.237 N 
ATOM     36  N   UNL     1       7.547   7.308  37.397  0.00  0.00    -0.065 NA
BRANCH  35  37
ATOM     37  C   UNL     1       7.682   6.118  35.310  0.00  0.00    +0.227 C 
BRANCH  37  38
ATOM     38  C   UNL     1       6.998   7.329  34.714  0.00  0.00    +0.330 C 
ATOM     39  O   UNL     1       7.606   8.138  34.023  0.00  0.00    -0.249 OA
BRANCH  38  40
ATOM     40  O   UNL     1       5.673   7.465  34.935  0.00  0.00    -0.479 OA
ATOM     41  H   UNL     1       5.069   7.215  34.189  0.00  0.00    +0.295 HD
ENDBRANCH  38  40
ENDBRANCH  37  38
BRANCH  37  42
ATOM     42  C   UNL     1       6.956   4.810  34.968  0.00  0.00    +0.158 C 
BRANCH  42  43
ATOM     43  C   UNL     1       7.666   4.031  33.897  0.00  0.00    +0.307 C 
ATOM     44  O   UNL     1       7.977   2.851  34.008  0.00  0.00    -0.251 OA
BRANCH  43  45
ATOM     45  O   UNL     1       7.862   4.728  32.762  0.00  0.00    -0.481 OA
ATOM     46  H   UNL     1       8.760   4.662  32.382  0.00  0.00    +0.295 HD
ENDBRANCH  43  45
ENDBRANCH  42  43
ENDBRANCH  37  42
ENDBRANCH  35  37
ENDBRANCH  31  33
ENDBRANCH  30  31
ENDBRANCH  26  30
ENDBRANCH  25  28
ENDBRANCH   1  25
TORSDOF 19
