REMARK VINA RESULT:    -6.536      1.951      4.240
REMARK INTER + INTRA:         -13.429
REMARK INTER:                 -11.240
REMARK INTRA:                  -2.190
REMARK UNBOUND:                -2.118
REMARK  Name = lig_assembled_7.pdb
REMARK  19 active torsions:
REMARK  status: ('A' for Active; 'I' for Inactive)
REMARK    1  A    between atoms: _2  and  _9
REMARK    2  A    between atoms: _4  and  _21
REMARK    3  A    between atoms: _5  and  _16
REMARK    4  A    between atoms: _6  and  _7
REMARK    5  A    between atoms: _6  and  _21
REMARK    6  A    between atoms: _10  and  _11
REMARK    7  A    between atoms: _13  and  _14
REMARK    8  A    between atoms: _17  and  _37
REMARK    9  A    between atoms: _19  and  _25
REMARK   10  A    between atoms: _20  and  _24
REMARK   11  A    between atoms: _24  and  _25
REMARK   12  A    between atoms: _27  and  _28
REMARK   13  A    between atoms: _29  and  _30
REMARK   14  A    between atoms: _31  and  _33
REMARK   15  A    between atoms: _33  and  _34
REMARK   16  A    between atoms: _33  and  _35
REMARK   17  A    between atoms: _35  and  _36
REMARK   18  A    between atoms: _35  and  _37
REMARK   19  A    between atoms: _38  and  _40
REMARK                            x       y       z     vdW  Elec       q    Type
REMARK                         _______ _______ _______ _____ _____    ______ ____
ROOT
ATOM      1  C   UNL     1       2.401   2.692  35.259  0.00  0.00    +0.163 C 
ENDROOT
BRANCH   1   2
ATOM      2  O   UNL     1       2.578   1.311  34.902  0.00  0.00    -0.388 OA
ATOM      3  H   UNL     1       2.689   1.237  33.951  0.00  0.00    +0.210 HD
ENDBRANCH   1   2
BRANCH   1   4
ATOM      4  C   UNL     1       1.559   3.400  34.203  0.00  0.00    +0.141 C 
BRANCH   4   7
ATOM      5  C   UNL     1       1.529   3.222  31.739  0.00  0.00    +0.401 C 
ATOM      6  O   UNL     1       1.567   4.441  31.556  0.00  0.00    -0.226 OA
ATOM      7  N   UNL     1       1.516   2.649  32.943  0.00  0.00    -0.279 N 
ATOM      8  H   UNL     1       1.475   1.640  32.990  0.00  0.00    +0.152 HD
BRANCH   5   9
ATOM      9  O   UNL     1       1.492   2.351  30.605  0.00  0.00    -0.444 OA
BRANCH   9  10
ATOM     10  C   UNL     1       0.511   2.818  29.675  0.00  0.00    +0.292 C 
BRANCH  10  12
ATOM     11  N   UNL     1       2.200   3.799  28.172  0.00  0.00    -0.131 NA
ATOM     12  C   UNL     1       1.115   2.998  28.342  0.00  0.00    +0.121 A 
ATOM     13  C   UNL     1       0.767   2.455  27.121  0.00  0.00    +0.143 A 
ATOM     14  N   UNL     1       1.651   3.000  26.213  0.00  0.00    -0.219 N 
ATOM     15  N   UNL     1       2.535   3.774  26.893  0.00  0.00    -0.060 NA
BRANCH  14  16
ATOM     16  C   UNL     1       1.720   2.833  24.792  0.00  0.00    +0.073 A 
ATOM     17  C   UNL     1       2.254   1.623  24.254  0.00  0.00    -0.024 A 
ATOM     18  C   UNL     1       2.325   1.449  22.855  0.00  0.00    +0.008 A 
ATOM     19  C   UNL     1       1.875   2.431  21.975  0.00  0.00    -0.050 A 
ATOM     20  C   UNL     1       1.963   2.214  20.495  0.00  0.00    +0.044 C 
ATOM     21  C   UNL     1       1.354   3.609  22.504  0.00  0.00    +0.008 A 
ATOM     22  C   UNL     1       2.721   0.448  25.085  0.00  0.00    +0.046 C 
ATOM     23  C   UNL     1       1.284   3.845  23.897  0.00  0.00    -0.024 A 
ATOM     24  C   UNL     1       0.805   5.229  24.253  0.00  0.00    +0.046 C 
ENDBRANCH  14  16
ENDBRANCH  10  12
ENDBRANCH   9  10
ENDBRANCH   5   9
ENDBRANCH   4   7
ENDBRANCH   1   4
BRANCH   1  25
ATOM     25  C   UNL     1       3.759   3.403  35.395  0.00  0.00    +0.175 C 
BRANCH  25  26
ATOM     26  C   UNL     1       4.739   2.994  34.285  0.00  0.00    +0.176 C 
ATOM     27  O   UNL     1       5.265   1.679  34.615  0.00  0.00    -0.332 OA
ATOM     28  C   UNL     1       6.143   1.077  33.608  0.00  0.00    +0.277 C 
ATOM     29  C   UNL     1       7.310   2.035  33.265  0.00  0.00    +0.110 C 
ATOM     30  C   UNL     1       6.802   3.456  32.938  0.00  0.00    +0.143 C 
ATOM     31  C   UNL     1       5.895   3.983  34.050  0.00  0.00    +0.133 C 
BRANCH  31  32
ATOM     32  N   UNL     1       5.349   5.301  33.688  0.00  0.00    -0.308 N 
ATOM     33  H   UNL     1       4.724   5.350  32.896  0.00  0.00    +0.149 HD
ATOM     34  C   UNL     1       5.625   6.435  34.337  0.00  0.00    +0.210 C 
ATOM     35  C   UNL     1       6.602   6.330  35.523  0.00  0.00    +0.109 C 
ATOM     36  O   UNL     1       5.141   7.522  34.020  0.00  0.00    -0.276 OA
ENDBRANCH  31  32
BRANCH  28  37
ATOM     37  C   UNL     1       5.356   0.743  32.324  0.00  0.00    +0.414 C 
ATOM     38  O   UNL     1       5.938   0.292  31.338  0.00  0.00    -0.240 OA
ATOM     39  O   UNL     1       4.139   0.924  32.273  0.00  0.00    -0.240 OA
ENDBRANCH  28  37
BRANCH  30  40
ATOM     40  O   UNL     1       7.913   4.339  32.778  0.00  0.00    -0.390 OA
ATOM     41  H   UNL     1       7.594   5.221  32.572  0.00  0.00    +0.210 HD
ENDBRANCH  30  40
BRANCH  28  42
ATOM     42  O   UNL     1       6.701  -0.140  34.168  0.00  0.00    -0.343 OA
ATOM     43  C   UNL     1       8.134  -0.290  34.003  0.00  0.00    +0.198 C 
ENDBRANCH  28  42
ENDBRANCH  25  26
BRANCH  25  44
ATOM     44  O   UNL     1       4.334   3.132  36.689  0.00  0.00    -0.387 OA
ATOM     45  H   UNL     1       5.283   3.270  36.653  0.00  0.00    +0.210 HD
ENDBRANCH  25  44
ENDBRANCH   1  25
TORSDOF 14
