REMARK VINA RESULT:    -6.194      1.474      3.776
REMARK INTER + INTRA:         -13.329
REMARK INTER:                 -11.592
REMARK INTRA:                  -1.737
REMARK UNBOUND:                -2.246
REMARK  Name = lig_assembled_5.pdb
REMARK  18 active torsions:
REMARK  status: ('A' for Active; 'I' for Inactive)
REMARK    1  A    between atoms: _2  and  _9
REMARK    2  A    between atoms: _4  and  _20
REMARK    3  A    between atoms: _6  and  _7
REMARK    4  A    between atoms: _6  and  _20
REMARK    5  A    between atoms: _12  and  _15
REMARK    6  A    between atoms: _13  and  _15
REMARK    7  A    between atoms: _16  and  _36
REMARK    8  A    between atoms: _18  and  _24
REMARK    9  A    between atoms: _19  and  _23
REMARK   10  A    between atoms: _23  and  _24
REMARK   11  A    between atoms: _26  and  _27
REMARK   12  A    between atoms: _28  and  _29
REMARK   13  A    between atoms: _30  and  _32
REMARK   14  A    between atoms: _32  and  _33
REMARK   15  A    between atoms: _32  and  _34
REMARK   16  A    between atoms: _34  and  _35
REMARK   17  A    between atoms: _34  and  _36
REMARK   18  A    between atoms: _37  and  _39
REMARK                            x       y       z     vdW  Elec       q    Type
REMARK                         _______ _______ _______ _____ _____    ______ ____
ROOT
ATOM      1  C   UNL     1       3.698   2.409  32.385  0.00  0.00    +0.163 C 
ENDROOT
BRANCH   1   2
ATOM      2  O   UNL     1       4.568   1.751  31.449  0.00  0.00    -0.388 OA
ATOM      3  H   UNL     1       4.841   2.375  30.772  0.00  0.00    +0.210 HD
ENDBRANCH   1   2
BRANCH   1   4
ATOM      4  C   UNL     1       2.442   2.901  31.672  0.00  0.00    +0.141 C 
BRANCH   4   7
ATOM      5  C   UNL     1       1.743   3.340  29.344  0.00  0.00    +0.401 C 
ATOM      6  O   UNL     1       0.542   3.187  29.576  0.00  0.00    -0.226 OA
ATOM      7  N   UNL     1       2.702   3.219  30.263  0.00  0.00    -0.279 N 
ATOM      8  H   UNL     1       3.660   3.353  29.973  0.00  0.00    +0.152 HD
BRANCH   5   9
ATOM      9  O   UNL     1       2.157   3.662  28.013  0.00  0.00    -0.444 OA
BRANCH   9  10
ATOM     10  C   UNL     1       1.815   2.588  27.133  0.00  0.00    +0.292 C 
BRANCH  10  12
ATOM     11  N   UNL     1       1.728   4.399  25.449  0.00  0.00    -0.131 NA
ATOM     12  C   UNL     1       1.764   3.067  25.738  0.00  0.00    +0.121 A 
ATOM     13  C   UNL     1       1.752   2.351  24.563  0.00  0.00    +0.143 A 
ATOM     14  N   UNL     1       1.736   3.301  23.567  0.00  0.00    -0.220 N 
ATOM     15  N   UNL     1       1.703   4.535  24.130  0.00  0.00    -0.060 NA
BRANCH  14  16
ATOM     16  C   UNL     1       1.779   3.115  22.161  0.00  0.00    +0.067 A 
ATOM     17  C   UNL     1       1.820   4.213  21.294  0.00  0.00    +0.031 A 
ATOM     18  C   UNL     1       1.800   4.010  19.912  0.00  0.00    +0.048 A 
ATOM     19  C   UNL     1       1.760   2.721  19.377  0.00  0.00    +0.120 A 
ATOM     20  C   UNL     1       1.735   1.625  20.238  0.00  0.00    +0.048 A 
ATOM     21  C   UNL     1       1.744   1.819  21.626  0.00  0.00    +0.031 A 
BRANCH  19  22
ATOM     22  O   UNL     1       1.681   2.666  18.013  0.00  0.00    -0.495 OA
ATOM     23  C   UNL     1       2.531   1.726  17.370  0.00  0.00    +0.277 C 
ENDBRANCH  19  22
ENDBRANCH  14  16
ENDBRANCH  10  12
ENDBRANCH   9  10
ENDBRANCH   5   9
ENDBRANCH   4   7
ENDBRANCH   1   4
BRANCH   1  24
ATOM     24  C   UNL     1       4.409   3.598  33.054  0.00  0.00    +0.175 C 
BRANCH  24  25
ATOM     25  C   UNL     1       5.799   3.217  33.584  0.00  0.00    +0.176 C 
ATOM     26  O   UNL     1       5.728   1.853  34.083  0.00  0.00    -0.332 OA
ATOM     27  C   UNL     1       6.998   1.277  34.536  0.00  0.00    +0.277 C 
ATOM     28  C   UNL     1       7.658   2.190  35.599  0.00  0.00    +0.110 C 
ATOM     29  C   UNL     1       7.726   3.657  35.126  0.00  0.00    +0.143 C 
ATOM     30  C   UNL     1       6.352   4.153  34.675  0.00  0.00    +0.133 C 
BRANCH  30  31
ATOM     31  N   UNL     1       6.446   5.523  34.145  0.00  0.00    -0.308 N 
ATOM     32  H   UNL     1       6.873   5.649  33.238  0.00  0.00    +0.149 HD
ATOM     33  C   UNL     1       6.004   6.609  34.785  0.00  0.00    +0.210 C 
ATOM     34  C   UNL     1       5.383   6.385  36.176  0.00  0.00    +0.109 C 
ATOM     35  O   UNL     1       6.083   7.743  34.311  0.00  0.00    -0.276 OA
ENDBRANCH  30  31
BRANCH  27  36
ATOM     36  C   UNL     1       7.966   1.085  33.349  0.00  0.00    +0.414 C 
ATOM     37  O   UNL     1       7.547   0.676  32.268  0.00  0.00    -0.240 OA
ATOM     38  O   UNL     1       9.164   1.340  33.474  0.00  0.00    -0.240 OA
ENDBRANCH  27  36
BRANCH  27  39
ATOM     39  O   UNL     1       6.716  -0.007  35.148  0.00  0.00    -0.343 OA
ATOM     40  C   UNL     1       5.311  -0.360  35.212  0.00  0.00    +0.198 C 
ENDBRANCH  27  39
BRANCH  29  41
ATOM     41  O   UNL     1       8.199   4.485  36.189  0.00  0.00    -0.390 OA
ATOM     42  H   UNL     1       9.069   4.825  35.968  0.00  0.00    +0.210 HD
ENDBRANCH  29  41
ENDBRANCH  24  25
BRANCH  24  43
ATOM     43  O   UNL     1       3.597   4.124  34.123  0.00  0.00    -0.387 OA
ATOM     44  H   UNL     1       3.445   5.061  33.978  0.00  0.00    +0.210 HD
ENDBRANCH  24  43
ENDBRANCH   1  24
TORSDOF 15
