REMARK VINA RESULT:    -6.710      5.442      6.924
REMARK INTER + INTRA:         -13.692
REMARK INTER:                 -11.787
REMARK INTRA:                  -1.905
REMARK UNBOUND:                -1.294
REMARK  Name = lig_assembled_24.pdb
REMARK  19 active torsions:
REMARK  status: ('A' for Active; 'I' for Inactive)
REMARK    1  A    between atoms: _2  and  _9
REMARK    2  A    between atoms: _4  and  _21
REMARK    3  A    between atoms: _6  and  _7
REMARK    4  A    between atoms: _6  and  _21
REMARK    5  A    between atoms: _9  and  _10
REMARK    6  A    between atoms: _13  and  _16
REMARK    7  A    between atoms: _14  and  _16
REMARK    8  A    between atoms: _17  and  _37
REMARK    9  A    between atoms: _19  and  _25
REMARK   10  A    between atoms: _20  and  _24
REMARK   11  A    between atoms: _24  and  _25
REMARK   12  A    between atoms: _27  and  _28
REMARK   13  A    between atoms: _29  and  _30
REMARK   14  A    between atoms: _31  and  _33
REMARK   15  A    between atoms: _33  and  _34
REMARK   16  A    between atoms: _33  and  _35
REMARK   17  A    between atoms: _35  and  _36
REMARK   18  A    between atoms: _35  and  _37
REMARK   19  A    between atoms: _38  and  _40
REMARK                            x       y       z     vdW  Elec       q    Type
REMARK                         _______ _______ _______ _____ _____    ______ ____
ROOT
ATOM      1  C   UNL     1       8.064   2.493  34.278  0.00  0.00    +0.163 C 
ENDROOT
BRANCH   1   2
ATOM      2  O   UNL     1       8.888   2.802  35.413  0.00  0.00    -0.388 OA
ATOM      3  H   UNL     1       8.796   2.112  36.074  0.00  0.00    +0.210 HD
ENDBRANCH   1   2
BRANCH   1   4
ATOM      4  C   UNL     1       7.924   3.712  33.351  0.00  0.00    +0.175 C 
BRANCH   4   5
ATOM      5  C   UNL     1       7.054   4.815  33.973  0.00  0.00    +0.176 C 
ATOM      6  O   UNL     1       7.799   5.405  35.073  0.00  0.00    -0.332 OA
ATOM      7  C   UNL     1       7.164   6.554  35.724  0.00  0.00    +0.277 C 
ATOM      8  C   UNL     1       5.736   6.187  36.197  0.00  0.00    +0.110 C 
ATOM      9  C   UNL     1       4.915   5.527  35.069  0.00  0.00    +0.143 C 
ATOM     10  C   UNL     1       5.671   4.345  34.460  0.00  0.00    +0.133 C 
BRANCH  10  11
ATOM     11  N   UNL     1       4.917   3.779  33.330  0.00  0.00    -0.308 N 
ATOM     12  H   UNL     1       4.818   4.345  32.499  0.00  0.00    +0.149 HD
ATOM     13  C   UNL     1       4.356   2.567  33.332  0.00  0.00    +0.210 C 
ATOM     14  C   UNL     1       4.503   1.740  34.623  0.00  0.00    +0.109 C 
ATOM     15  O   UNL     1       3.743   2.113  32.365  0.00  0.00    -0.276 OA
ENDBRANCH  10  11
BRANCH   7  16
ATOM     16  C   UNL     1       7.095   7.759  34.763  0.00  0.00    +0.414 C 
ATOM     17  O   UNL     1       6.008   8.165  34.354  0.00  0.00    -0.240 OA
ATOM     18  O   UNL     1       8.126   8.325  34.396  0.00  0.00    -0.240 OA
ENDBRANCH   7  16
BRANCH   7  19
ATOM     19  O   UNL     1       7.955   6.904  36.889  0.00  0.00    -0.343 OA
ATOM     20  C   UNL     1       7.197   7.093  38.110  0.00  0.00    +0.198 C 
ENDBRANCH   7  19
BRANCH   9  21
ATOM     21  O   UNL     1       3.665   5.070  35.588  0.00  0.00    -0.390 OA
ATOM     22  H   UNL     1       3.343   4.341  35.052  0.00  0.00    +0.210 HD
ENDBRANCH   9  21
ENDBRANCH   4   5
BRANCH   4  23
ATOM     23  O   UNL     1       7.380   3.309  32.078  0.00  0.00    -0.387 OA
ATOM     24  H   UNL     1       7.236   2.360  32.078  0.00  0.00    +0.210 HD
ENDBRANCH   4  23
ENDBRANCH   1   4
BRANCH   1  25
ATOM     25  C   UNL     1       8.664   1.327  33.499  0.00  0.00    +0.141 C 
BRANCH  25  28
ATOM     26  C   UNL     1       7.444  -0.820  33.594  0.00  0.00    +0.401 C 
ATOM     27  O   UNL     1       8.116  -1.268  34.526  0.00  0.00    -0.226 OA
ATOM     28  N   UNL     1       7.635   0.382  33.048  0.00  0.00    -0.279 N 
ATOM     29  H   UNL     1       7.038   0.658  32.281  0.00  0.00    +0.152 HD
BRANCH  26  30
ATOM     30  O   UNL     1       6.392  -1.620  33.048  0.00  0.00    -0.444 OA
BRANCH  30  31
ATOM     31  C   UNL     1       5.715  -0.886  32.024  0.00  0.00    +0.292 C 
BRANCH  31  33
ATOM     32  N   UNL     1       5.361  -1.071  29.581  0.00  0.00    -0.131 NA
ATOM     33  C   UNL     1       6.092  -1.396  30.692  0.00  0.00    +0.120 A 
ATOM     34  C   UNL     1       7.148  -2.197  30.319  0.00  0.00    +0.137 A 
ATOM     35  N   UNL     1       7.049  -2.267  28.960  0.00  0.00    -0.247 N 
ATOM     36  N   UNL     1       5.949  -1.617  28.527  0.00  0.00    -0.065 NA
BRANCH  35  37
ATOM     37  C   UNL     1       7.939  -2.857  27.973  0.00  0.00    +0.180 C 
BRANCH  37  38
ATOM     38  C   UNL     1       7.349  -2.991  26.589  0.00  0.00    -0.026 A 
ATOM     39  C   UNL     1       6.394  -3.979  26.316  0.00  0.00    +0.009 A 
ATOM     40  C   UNL     1       5.852  -4.094  25.032  0.00  0.00    +0.046 A 
ATOM     41  C   UNL     1       6.238  -3.220  24.015  0.00  0.00    +0.120 A 
ATOM     42  C   UNL     1       7.204  -2.252  24.274  0.00  0.00    +0.046 A 
ATOM     43  C   UNL     1       7.757  -2.135  25.555  0.00  0.00    +0.009 A 
BRANCH  41  44
ATOM     44  O   UNL     1       5.655  -3.444  22.798  0.00  0.00    -0.495 OA
ATOM     45  C   UNL     1       4.377  -4.072  22.838  0.00  0.00    +0.277 C 
ENDBRANCH  41  44
ENDBRANCH  37  38
ENDBRANCH  35  37
ENDBRANCH  31  33
ENDBRANCH  30  31
ENDBRANCH  26  30
ENDBRANCH  25  28
ENDBRANCH   1  25
TORSDOF 16
