REMARK VINA RESULT:    -5.792     18.752     22.359
REMARK INTER + INTRA:         -12.660
REMARK INTER:                  -9.916
REMARK INTRA:                  -2.744
REMARK UNBOUND:                -2.296
REMARK  Name = lig_assembled_63.pdb
REMARK  17 active torsions:
REMARK  status: ('A' for Active; 'I' for Inactive)
REMARK    1  A    between atoms: _2  and  _11
REMARK    2  A    between atoms: _6  and  _20
REMARK    3  A    between atoms: _7  and  _15
REMARK    4  A    between atoms: _8  and  _9
REMARK    5  A    between atoms: _8  and  _20
REMARK    6  A    between atoms: _16  and  _36
REMARK    7  A    between atoms: _18  and  _24
REMARK    8  A    between atoms: _19  and  _23
REMARK    9  A    between atoms: _23  and  _24
REMARK   10  A    between atoms: _26  and  _27
REMARK   11  A    between atoms: _28  and  _29
REMARK   12  A    between atoms: _30  and  _32
REMARK   13  A    between atoms: _32  and  _33
REMARK   14  A    between atoms: _32  and  _34
REMARK   15  A    between atoms: _34  and  _35
REMARK   16  A    between atoms: _34  and  _36
REMARK   17  A    between atoms: _37  and  _39
REMARK                            x       y       z     vdW  Elec       q    Type
REMARK                         _______ _______ _______ _____ _____    ______ ____
ROOT
ATOM      1  C   UNL     1       3.275   5.344  37.579  0.00  0.00    +0.163 C 
ENDROOT
BRANCH   1   2
ATOM      2  O   UNL     1       3.098   5.992  36.309  0.00  0.00    -0.388 OA
ATOM      3  H   UNL     1       2.753   6.877  36.446  0.00  0.00    +0.210 HD
ENDBRANCH   1   2
BRANCH   1   4
ATOM      4  C   UNL     1       2.030   5.532  38.440  0.00  0.00    +0.141 C 
BRANCH   4   7
ATOM      5  C   UNL     1       2.058   6.455  40.732  0.00  0.00    +0.401 C 
ATOM      6  O   UNL     1       1.762   5.384  41.267  0.00  0.00    -0.226 OA
ATOM      7  N   UNL     1       2.198   6.616  39.415  0.00  0.00    -0.279 N 
ATOM      8  H   UNL     1       2.434   7.536  39.070  0.00  0.00    +0.152 HD
BRANCH   5   9
ATOM      9  O   UNL     1       2.264   7.608  41.552  0.00  0.00    -0.444 OA
BRANCH   9  10
ATOM     10  C   UNL     1       3.603   8.082  41.383  0.00  0.00    +0.292 C 
BRANCH  10  12
ATOM     11  N   UNL     1       4.771  10.193  40.849  0.00  0.00    -0.131 NA
ATOM     12  C   UNL     1       3.601   9.507  41.004  0.00  0.00    +0.121 A 
ATOM     13  C   UNL     1       2.549  10.361  40.770  0.00  0.00    +0.145 A 
ATOM     14  N   UNL     1       3.133  11.584  40.508  0.00  0.00    -0.200 N 
ATOM     15  N   UNL     1       4.477  11.449  40.540  0.00  0.00    -0.059 NA
BRANCH  14  16
ATOM     16  C   UNL     1       2.454  12.820  40.296  0.00  0.00    +0.173 A 
ATOM     17  C   UNL     1       2.259  13.752  41.319  0.00  0.00    +0.096 A 
ATOM     18  C   UNL     1       1.491  14.891  41.024  0.00  0.00    +0.024 A 
ATOM     19  C   UNL     1       0.972  15.084  39.747  0.00  0.00    +0.021 A 
ATOM     20  C   UNL     1       1.245  14.132  38.786  0.00  0.00    +0.113 A 
ATOM     21  N   UNL     1       1.963  13.015  39.030  0.00  0.00    -0.235 NA
BRANCH  17  22
ATOM     22  C   UNL     1       2.794  13.656  42.645  0.00  0.00    +0.103 C 
ATOM     23  N   UNL     1       3.197  13.681  43.734  0.00  0.00    -0.191 NA
ENDBRANCH  17  22
ENDBRANCH  14  16
ENDBRANCH  10  12
ENDBRANCH   9  10
ENDBRANCH   5   9
ENDBRANCH   4   7
ENDBRANCH   1   4
BRANCH   1  24
ATOM     24  C   UNL     1       4.501   5.908  38.318  0.00  0.00    +0.175 C 
BRANCH  24  25
ATOM     25  C   UNL     1       5.668   6.200  37.363  0.00  0.00    +0.176 C 
ATOM     26  O   UNL     1       5.689   5.156  36.351  0.00  0.00    -0.332 OA
ATOM     27  C   UNL     1       6.680   5.328  35.284  0.00  0.00    +0.277 C 
ATOM     28  C   UNL     1       8.096   5.506  35.883  0.00  0.00    +0.110 C 
ATOM     29  C   UNL     1       8.116   6.584  36.987  0.00  0.00    +0.143 C 
ATOM     30  C   UNL     1       7.045   6.309  38.043  0.00  0.00    +0.133 C 
BRANCH  30  31
ATOM     31  N   UNL     1       7.017   7.389  39.042  0.00  0.00    -0.308 N 
ATOM     32  H   UNL     1       6.660   8.289  38.753  0.00  0.00    +0.149 HD
ATOM     33  C   UNL     1       7.431   7.257  40.305  0.00  0.00    +0.210 C 
ATOM     34  C   UNL     1       7.992   5.880  40.707  0.00  0.00    +0.109 C 
ATOM     35  O   UNL     1       7.381   8.176  41.124  0.00  0.00    -0.276 OA
ENDBRANCH  30  31
BRANCH  27  36
ATOM     36  C   UNL     1       6.333   6.551  34.409  0.00  0.00    +0.414 C 
ATOM     37  O   UNL     1       7.225   7.297  34.005  0.00  0.00    -0.240 OA
ATOM     38  O   UNL     1       5.164   6.791  34.107  0.00  0.00    -0.240 OA
ENDBRANCH  27  36
BRANCH  27  39
ATOM     39  O   UNL     1       6.675   4.128  34.469  0.00  0.00    -0.343 OA
ATOM     40  C   UNL     1       7.986   3.589  34.164  0.00  0.00    +0.198 C 
ENDBRANCH  27  39
BRANCH  29  41
ATOM     41  O   UNL     1       9.400   6.608  37.614  0.00  0.00    -0.390 OA
ATOM     42  H   UNL     1       9.806   5.741  37.545  0.00  0.00    +0.210 HD
ENDBRANCH  29  41
ENDBRANCH  24  25
BRANCH  24  43
ATOM     43  O   UNL     1       4.922   4.995  39.351  0.00  0.00    -0.387 OA
ATOM     44  H   UNL     1       5.856   4.799  39.245  0.00  0.00    +0.210 HD
ENDBRANCH  24  43
ENDBRANCH   1  24
TORSDOF 15
