REMARK VINA RESULT:    -6.734     11.550     19.487
REMARK INTER + INTRA:         -15.516
REMARK INTER:                 -13.104
REMARK INTRA:                  -2.412
REMARK UNBOUND:                -2.090
REMARK  Name = lig_assembled_76.pdb
REMARK  21 active torsions:
REMARK  status: ('A' for Active; 'I' for Inactive)
REMARK    1  A    between atoms: _2  and  _9
REMARK    2  A    between atoms: _4  and  _23
REMARK    3  A    between atoms: _6  and  _7
REMARK    4  A    between atoms: _6  and  _23
REMARK    5  A    between atoms: _9  and  _10
REMARK    6  A    between atoms: _10  and  _11
REMARK    7  A    between atoms: _10  and  _18
REMARK    8  A    between atoms: _11  and  _12
REMARK    9  A    between atoms: _12  and  _13
REMARK   10  A    between atoms: _19  and  _39
REMARK   11  A    between atoms: _21  and  _27
REMARK   12  A    between atoms: _22  and  _26
REMARK   13  A    between atoms: _26  and  _27
REMARK   14  A    between atoms: _29  and  _30
REMARK   15  A    between atoms: _31  and  _32
REMARK   16  A    between atoms: _33  and  _35
REMARK   17  A    between atoms: _35  and  _36
REMARK   18  A    between atoms: _35  and  _37
REMARK   19  A    between atoms: _37  and  _38
REMARK   20  A    between atoms: _37  and  _39
REMARK   21  A    between atoms: _40  and  _42
REMARK                            x       y       z     vdW  Elec       q    Type
REMARK                         _______ _______ _______ _____ _____    ______ ____
ROOT
ATOM      1  C   UNL     1      -2.971   6.994  13.967  0.00  0.00    +0.141 C 
ENDROOT
BRANCH   1   4
ATOM      2  C   UNL     1      -2.743   6.497  16.377  0.00  0.00    +0.401 C 
ATOM      3  O   UNL     1      -3.714   7.182  16.706  0.00  0.00    -0.226 OA
ATOM      4  N   UNL     1      -2.321   6.358  15.120  0.00  0.00    -0.279 N 
ATOM      5  H   UNL     1      -1.507   5.783  14.951  0.00  0.00    +0.152 HD
BRANCH   2   6
ATOM      6  O   UNL     1      -2.006   5.805  17.389  0.00  0.00    -0.444 OA
BRANCH   6   7
ATOM      7  C   UNL     1      -0.617   5.799  17.049  0.00  0.00    +0.292 C 
BRANCH   7   9
ATOM      8  N   UNL     1       0.928   3.921  16.567  0.00  0.00    -0.131 NA
ATOM      9  C   UNL     1      -0.011   4.499  17.382  0.00  0.00    +0.120 A 
ATOM     10  C   UNL     1      -0.246   3.673  18.458  0.00  0.00    +0.137 A 
ATOM     11  N   UNL     1       0.583   2.616  18.242  0.00  0.00    -0.249 N 
ATOM     12  N   UNL     1       1.279   2.759  17.103  0.00  0.00    -0.065 NA
BRANCH  11  13
ATOM     13  C   UNL     1       0.664   1.387  18.999  0.00  0.00    +0.176 C 
BRANCH  13  14
ATOM     14  C   UNL     1      -0.230   1.392  20.244  0.00  0.00    +0.136 C 
BRANCH  14  15
ATOM     15  O   UNL     1      -1.345   0.509  20.056  0.00  0.00    -0.390 OA
ATOM     16  H   UNL     1      -2.164   0.974  20.299  0.00  0.00    +0.210 HD
ENDBRANCH  14  15
BRANCH  14  17
ATOM     17  C   UNL     1       0.517   0.929  21.505  0.00  0.00    +0.038 C 
BRANCH  17  18
ATOM     18  C   UNL     1       1.908   1.545  21.650  0.00  0.00    +0.038 C 
BRANCH  18  19
ATOM     19  C   UNL     1       1.868   2.877  22.353  0.00  0.00    -0.047 A 
ATOM     20  C   UNL     1       1.757   4.064  21.614  0.00  0.00    +0.003 A 
ATOM     21  C   UNL     1       1.701   5.298  22.263  0.00  0.00    +0.000 A 
ATOM     22  C   UNL     1       1.762   5.358  23.653  0.00  0.00    +0.000 A 
ATOM     23  C   UNL     1       1.884   4.184  24.395  0.00  0.00    +0.000 A 
ATOM     24  C   UNL     1       1.941   2.948  23.749  0.00  0.00    +0.003 A 
ENDBRANCH  18  19
ENDBRANCH  17  18
ENDBRANCH  14  17
ENDBRANCH  13  14
ENDBRANCH  11  13
ENDBRANCH   7   9
ENDBRANCH   6   7
ENDBRANCH   2   6
ENDBRANCH   1   4
BRANCH   1  25
ATOM     25  C   UNL     1      -2.248   8.265  13.536  0.00  0.00    +0.163 C 
BRANCH  25  26
ATOM     26  O   UNL     1      -2.277   8.386  12.105  0.00  0.00    -0.388 OA
ATOM     27  H   UNL     1      -2.855   9.111  11.856  0.00  0.00    +0.210 HD
ENDBRANCH  25  26
BRANCH  25  28
ATOM     28  C   UNL     1      -2.907   9.484  14.205  0.00  0.00    +0.175 C 
BRANCH  28  29
ATOM     29  C   UNL     1      -3.242  10.588  13.191  0.00  0.00    +0.176 C 
ATOM     30  O   UNL     1      -1.996  11.033  12.587  0.00  0.00    -0.332 OA
ATOM     31  C   UNL     1      -2.130  12.018  11.510  0.00  0.00    +0.277 C 
ATOM     32  C   UNL     1      -2.942  13.244  11.997  0.00  0.00    +0.110 C 
ATOM     33  C   UNL     1      -4.261  12.820  12.676  0.00  0.00    +0.143 C 
ATOM     34  C   UNL     1      -4.005  11.791  13.777  0.00  0.00    +0.133 C 
BRANCH  34  35
ATOM     35  N   UNL     1      -5.276  11.330  14.357  0.00  0.00    -0.308 N 
ATOM     36  H   UNL     1      -5.929  10.858  13.748  0.00  0.00    +0.149 HD
ATOM     37  C   UNL     1      -5.624  11.495  15.636  0.00  0.00    +0.210 C 
ATOM     38  C   UNL     1      -4.618  12.242  16.533  0.00  0.00    +0.109 C 
ATOM     39  O   UNL     1      -6.689  11.086  16.098  0.00  0.00    -0.276 OA
ENDBRANCH  34  35
BRANCH  31  40
ATOM     40  C   UNL     1      -2.824  11.395  10.281  0.00  0.00    +0.414 C 
ATOM     41  O   UNL     1      -3.486  12.099   9.519  0.00  0.00    -0.240 OA
ATOM     42  O   UNL     1      -2.723  10.189  10.052  0.00  0.00    -0.240 OA
ENDBRANCH  31  40
BRANCH  33  43
ATOM     43  O   UNL     1      -4.902  13.965  13.241  0.00  0.00    -0.390 OA
ATOM     44  H   UNL     1      -5.477  13.688  13.958  0.00  0.00    +0.210 HD
ENDBRANCH  33  43
BRANCH  31  45
ATOM     45  O   UNL     1      -0.800  12.467  11.144  0.00  0.00    -0.343 OA
ATOM     46  C   UNL     1      -0.494  13.837  11.507  0.00  0.00    +0.198 C 
ENDBRANCH  31  45
ENDBRANCH  28  29
BRANCH  28  47
ATOM     47  O   UNL     1      -2.053  10.004  15.242  0.00  0.00    -0.387 OA
ATOM     48  H   UNL     1      -2.520   9.987  16.081  0.00  0.00    +0.210 HD
ENDBRANCH  28  47
ENDBRANCH  25  28
ENDBRANCH   1  25
TORSDOF 19
