REMARK VINA RESULT:    -6.439      6.814     12.146
REMARK INTER + INTRA:         -13.444
REMARK INTER:                 -11.728
REMARK INTRA:                  -1.716
REMARK UNBOUND:                -1.736
REMARK  Name = lig_assembled_59.pdb
REMARK  18 active torsions:
REMARK  status: ('A' for Active; 'I' for Inactive)
REMARK    1  A    between atoms: _2  and  _10
REMARK    2  A    between atoms: _5  and  _20
REMARK    3  A    between atoms: _7  and  _8
REMARK    4  A    between atoms: _7  and  _20
REMARK    5  A    between atoms: _13  and  _14
REMARK    6  A    between atoms: _14  and  _15
REMARK    7  A    between atoms: _16  and  _36
REMARK    8  A    between atoms: _18  and  _24
REMARK    9  A    between atoms: _19  and  _23
REMARK   10  A    between atoms: _23  and  _24
REMARK   11  A    between atoms: _26  and  _27
REMARK   12  A    between atoms: _28  and  _29
REMARK   13  A    between atoms: _30  and  _32
REMARK   14  A    between atoms: _32  and  _33
REMARK   15  A    between atoms: _32  and  _34
REMARK   16  A    between atoms: _34  and  _35
REMARK   17  A    between atoms: _34  and  _36
REMARK   18  A    between atoms: _37  and  _39
REMARK                            x       y       z     vdW  Elec       q    Type
REMARK                         _______ _______ _______ _____ _____    ______ ____
ROOT
ATOM      1  C   UNL     1       9.769   2.922  34.760  0.00  0.00    +0.163 C 
ENDROOT
BRANCH   1   2
ATOM      2  O   UNL     1       9.469   2.020  33.682  0.00  0.00    -0.388 OA
ATOM      3  H   UNL     1      10.234   1.941  33.108  0.00  0.00    +0.210 HD
ENDBRANCH   1   2
BRANCH   1   4
ATOM      4  C   UNL     1       8.537   3.138  35.656  0.00  0.00    +0.175 C 
BRANCH   4   5
ATOM      5  C   UNL     1       7.765   4.412  35.279  0.00  0.00    +0.176 C 
ATOM      6  O   UNL     1       7.529   5.168  36.498  0.00  0.00    -0.332 OA
ATOM      7  C   UNL     1       6.892   6.476  36.319  0.00  0.00    +0.277 C 
ATOM      8  C   UNL     1       5.568   6.329  35.530  0.00  0.00    +0.110 C 
ATOM      9  C   UNL     1       5.762   5.504  34.240  0.00  0.00    +0.143 C 
ATOM     10  C   UNL     1       6.436   4.165  34.542  0.00  0.00    +0.133 C 
BRANCH  10  11
ATOM     11  N   UNL     1       6.694   3.426  33.297  0.00  0.00    -0.308 N 
ATOM     12  H   UNL     1       7.348   3.826  32.638  0.00  0.00    +0.149 HD
ATOM     13  C   UNL     1       6.122   2.261  32.980  0.00  0.00    +0.210 C 
ATOM     14  C   UNL     1       5.112   1.691  33.993  0.00  0.00    +0.109 C 
ATOM     15  O   UNL     1       6.369   1.657  31.935  0.00  0.00    -0.276 OA
ENDBRANCH  10  11
BRANCH   7  16
ATOM     16  C   UNL     1       7.832   7.445  35.573  0.00  0.00    +0.414 C 
ATOM     17  O   UNL     1       7.460   7.996  34.537  0.00  0.00    -0.240 OA
ATOM     18  O   UNL     1       8.961   7.677  36.007  0.00  0.00    -0.240 OA
ENDBRANCH   7  16
BRANCH   7  19
ATOM     19  O   UNL     1       6.584   7.009  37.633  0.00  0.00    -0.343 OA
ATOM     20  C   UNL     1       6.322   6.012  38.652  0.00  0.00    +0.198 C 
ENDBRANCH   7  19
BRANCH   9  21
ATOM     21  O   UNL     1       4.496   5.266  33.625  0.00  0.00    -0.390 OA
ATOM     22  H   UNL     1       3.999   4.632  34.149  0.00  0.00    +0.210 HD
ENDBRANCH   9  21
ENDBRANCH   4   5
BRANCH   4  23
ATOM     23  O   UNL     1       8.933   3.189  37.041  0.00  0.00    -0.387 OA
ATOM     24  H   UNL     1       8.434   3.874  37.492  0.00  0.00    +0.210 HD
ENDBRANCH   4  23
ENDBRANCH   1   4
BRANCH   1  25
ATOM     25  C   UNL     1      10.917   2.369  35.598  0.00  0.00    +0.141 C 
BRANCH  25  28
ATOM     26  C   UNL     1      13.091   3.501  35.281  0.00  0.00    +0.401 C 
ATOM     27  O   UNL     1      13.467   2.734  34.391  0.00  0.00    -0.226 OA
ATOM     28  N   UNL     1      11.917   3.400  35.905  0.00  0.00    -0.279 N 
ATOM     29  H   UNL     1      11.702   4.071  36.630  0.00  0.00    +0.152 HD
BRANCH  26  30
ATOM     30  O   UNL     1      13.952   4.567  35.689  0.00  0.00    -0.444 OA
BRANCH  30  31
ATOM     31  C   UNL     1      15.208   4.452  35.014  0.00  0.00    +0.292 C 
BRANCH  31  33
ATOM     32  N   UNL     1      14.893   6.878  34.662  0.00  0.00    -0.131 NA
ATOM     33  C   UNL     1      15.544   5.720  34.339  0.00  0.00    +0.121 A 
ATOM     34  C   UNL     1      16.469   5.982  33.356  0.00  0.00    +0.145 A 
ATOM     35  N   UNL     1      16.347   7.330  33.108  0.00  0.00    -0.202 N 
ATOM     36  N   UNL     1      15.388   7.854  33.913  0.00  0.00    -0.059 NA
BRANCH  35  37
ATOM     37  C   UNL     1      17.071   8.102  32.160  0.00  0.00    +0.156 A 
ATOM     38  C   UNL     1      18.042   7.480  31.378  0.00  0.00    +0.048 A 
ATOM     39  C   UNL     1      18.777   8.251  30.480  0.00  0.00    +0.011 A 
ATOM     40  C   UNL     1      18.529   9.622  30.371  0.00  0.00    -0.004 A 
ATOM     41  C   UNL     1      17.540  10.156  31.192  0.00  0.00    +0.119 A 
ATOM     42  N   UNL     1      16.803   9.434  32.070  0.00  0.00    -0.236 NA
BRANCH  40  43
ATOM     43  C   UNL     1      19.371  10.486  29.480  0.00  0.00    +0.192 C 
BRANCH  43  44
ATOM     44  O   UNL     1      18.579  11.429  28.774  0.00  0.00    -0.390 OA
ATOM     45  H   UNL     1      17.696  11.032  28.666  0.00  0.00    +0.210 HD
ENDBRANCH  43  44
ENDBRANCH  40  43
ENDBRANCH  35  37
ENDBRANCH  31  33
ENDBRANCH  30  31
ENDBRANCH  26  30
ENDBRANCH  25  28
ENDBRANCH   1  25
TORSDOF 16
