REMARK VINA RESULT:    -5.850     13.343     14.929
REMARK INTER + INTRA:         -14.397
REMARK INTER:                 -12.959
REMARK INTRA:                  -1.437
REMARK UNBOUND:                -3.588
REMARK  Name = lig_assembled_58.pdb
REMARK  18 active torsions:
REMARK  status: ('A' for Active; 'I' for Inactive)
REMARK    1  A    between atoms: _2  and  _9
REMARK    2  A    between atoms: _4  and  _25
REMARK    3  A    between atoms: _6  and  _7
REMARK    4  A    between atoms: _6  and  _25
REMARK    5  A    between atoms: _9  and  _10
REMARK    6  A    between atoms: _9  and  _16
REMARK    7  A    between atoms: _21  and  _41
REMARK    8  A    between atoms: _23  and  _29
REMARK    9  A    between atoms: _24  and  _28
REMARK   10  A    between atoms: _28  and  _29
REMARK   11  A    between atoms: _31  and  _32
REMARK   12  A    between atoms: _33  and  _34
REMARK   13  A    between atoms: _35  and  _37
REMARK   14  A    between atoms: _37  and  _38
REMARK   15  A    between atoms: _37  and  _39
REMARK   16  A    between atoms: _39  and  _40
REMARK   17  A    between atoms: _39  and  _41
REMARK   18  A    between atoms: _42  and  _44
REMARK                            x       y       z     vdW  Elec       q    Type
REMARK                         _______ _______ _______ _____ _____    ______ ____
ROOT
ATOM      1  C   UNL     1       4.965   3.419  33.481  0.00  0.00    +0.141 C 
ENDROOT
BRANCH   1   4
ATOM      2  C   UNL     1       2.837   3.554  32.234  0.00  0.00    +0.401 C 
ATOM      3  O   UNL     1       2.383   2.510  32.709  0.00  0.00    -0.226 OA
ATOM      4  N   UNL     1       4.038   4.050  32.534  0.00  0.00    -0.279 N 
ATOM      5  H   UNL     1       4.326   4.908  32.085  0.00  0.00    +0.152 HD
BRANCH   2   6
ATOM      6  O   UNL     1       2.046   4.292  31.298  0.00  0.00    -0.444 OA
BRANCH   6   7
ATOM      7  C   UNL     1       1.016   3.450  30.773  0.00  0.00    +0.292 C 
BRANCH   7   9
ATOM      8  N   UNL     1       2.163   3.935  28.622  0.00  0.00    -0.131 NA
ATOM      9  C   UNL     1       1.111   3.383  29.303  0.00  0.00    +0.120 A 
ATOM     10  C   UNL     1       0.266   2.776  28.404  0.00  0.00    +0.138 A 
ATOM     11  N   UNL     1       0.931   2.854  27.210  0.00  0.00    -0.240 N 
ATOM     12  N   UNL     1       2.034   3.625  27.338  0.00  0.00    -0.064 NA
BRANCH  11  13
ATOM     13  C   UNL     1       0.619   2.208  25.922  0.00  0.00    +0.169 C 
BRANCH  13  14
ATOM     14  C   UNL     1       1.002   3.139  24.763  0.00  0.00    -0.019 A 
ATOM     15  C   UNL     1       1.421   2.602  23.533  0.00  0.00    +0.006 A 
ATOM     16  C   UNL     1       1.827   3.440  22.491  0.00  0.00    +0.000 A 
ATOM     17  C   UNL     1       1.809   4.824  22.654  0.00  0.00    +0.000 A 
ATOM     18  C   UNL     1       1.401   5.375  23.863  0.00  0.00    +0.000 A 
ATOM     19  C   UNL     1       1.012   4.540  24.910  0.00  0.00    +0.006 A 
ENDBRANCH  13  14
BRANCH  13  20
ATOM     20  C   UNL     1       1.182   0.783  25.820  0.00  0.00    -0.019 A 
ATOM     21  C   UNL     1       0.414  -0.268  25.288  0.00  0.00    +0.006 A 
ATOM     22  C   UNL     1       0.931  -1.563  25.200  0.00  0.00    +0.000 A 
ATOM     23  C   UNL     1       2.231  -1.828  25.620  0.00  0.00    +0.000 A 
ATOM     24  C   UNL     1       3.027  -0.795  26.097  0.00  0.00    +0.000 A 
ATOM     25  C   UNL     1       2.515   0.499  26.179  0.00  0.00    +0.006 A 
ENDBRANCH  13  20
ENDBRANCH  11  13
ENDBRANCH   7   9
ENDBRANCH   6   7
ENDBRANCH   2   6
ENDBRANCH   1   4
BRANCH   1  26
ATOM     26  C   UNL     1       6.241   2.941  32.795  0.00  0.00    +0.163 C 
BRANCH  26  27
ATOM     27  O   UNL     1       6.150   3.165  31.378  0.00  0.00    -0.388 OA
ATOM     28  H   UNL     1       5.352   3.662  31.182  0.00  0.00    +0.210 HD
ENDBRANCH  26  27
BRANCH  26  29
ATOM     29  C   UNL     1       7.452   3.678  33.392  0.00  0.00    +0.175 C 
BRANCH  29  30
ATOM     30  C   UNL     1       7.179   4.180  34.817  0.00  0.00    +0.176 C 
ATOM     31  O   UNL     1       7.303   5.629  34.812  0.00  0.00    -0.332 OA
ATOM     32  C   UNL     1       6.970   6.298  36.074  0.00  0.00    +0.277 C 
ATOM     33  C   UNL     1       7.803   5.705  37.237  0.00  0.00    +0.110 C 
ATOM     34  C   UNL     1       7.727   4.164  37.263  0.00  0.00    +0.143 C 
ATOM     35  C   UNL     1       8.090   3.573  35.900  0.00  0.00    +0.133 C 
BRANCH  35  36
ATOM     36  N   UNL     1       7.930   2.111  35.913  0.00  0.00    -0.308 N 
ATOM     37  H   UNL     1       7.048   1.735  36.234  0.00  0.00    +0.149 HD
ATOM     38  C   UNL     1       8.874   1.247  35.530  0.00  0.00    +0.210 C 
ATOM     39  C   UNL     1      10.215   1.849  35.072  0.00  0.00    +0.109 C 
ATOM     40  O   UNL     1       8.707   0.027  35.538  0.00  0.00    -0.276 OA
ENDBRANCH  35  36
BRANCH  32  41
ATOM     41  C   UNL     1       5.467   6.153  36.389  0.00  0.00    +0.414 C 
ATOM     42  O   UNL     1       5.082   6.088  37.556  0.00  0.00    -0.240 OA
ATOM     43  O   UNL     1       4.640   6.101  35.478  0.00  0.00    -0.240 OA
ENDBRANCH  32  41
BRANCH  34  44
ATOM     44  O   UNL     1       8.625   3.655  38.250  0.00  0.00    -0.390 OA
ATOM     45  H   UNL     1       8.301   3.882  39.125  0.00  0.00    +0.210 HD
ENDBRANCH  34  44
BRANCH  32  46
ATOM     46  O   UNL     1       7.307   7.703  35.939  0.00  0.00    -0.343 OA
ATOM     47  C   UNL     1       7.601   8.135  34.587  0.00  0.00    +0.198 C 
ENDBRANCH  32  46
ENDBRANCH  29  30
BRANCH  29  48
ATOM     48  O   UNL     1       7.832   4.779  32.542  0.00  0.00    -0.387 OA
ATOM     49  H   UNL     1       7.989   4.456  31.651  0.00  0.00    +0.210 HD
ENDBRANCH  29  48
ENDBRANCH  26  29
ENDBRANCH   1  26
TORSDOF 16
