REMARK VINA RESULT:    -6.441     14.286     18.073
REMARK INTER + INTRA:         -14.237
REMARK INTER:                 -12.036
REMARK INTRA:                  -2.201
REMARK UNBOUND:                -3.089
REMARK  Name = lig_assembled_91.pdb
REMARK  16 active torsions:
REMARK  status: ('A' for Active; 'I' for Inactive)
REMARK    1  A    between atoms: _2  and  _10
REMARK    2  A    between atoms: _5  and  _26
REMARK    3  A    between atoms: _7  and  _8
REMARK    4  A    between atoms: _7  and  _26
REMARK    5  A    between atoms: _22  and  _42
REMARK    6  A    between atoms: _24  and  _30
REMARK    7  A    between atoms: _25  and  _29
REMARK    8  A    between atoms: _29  and  _30
REMARK    9  A    between atoms: _32  and  _33
REMARK   10  A    between atoms: _34  and  _35
REMARK   11  A    between atoms: _36  and  _38
REMARK   12  A    between atoms: _38  and  _39
REMARK   13  A    between atoms: _38  and  _40
REMARK   14  A    between atoms: _40  and  _41
REMARK   15  A    between atoms: _40  and  _42
REMARK   16  A    between atoms: _43  and  _45
REMARK                            x       y       z     vdW  Elec       q    Type
REMARK                         _______ _______ _______ _____ _____    ______ ____
ROOT
ATOM      1  C   UNL     1      18.625   1.484  27.990  0.00  0.00    +0.401 C 
ATOM      2  O   UNL     1      19.742   1.082  28.326  0.00  0.00    -0.226 OA
ATOM      3  N   UNL     1      17.760   0.768  27.271  0.00  0.00    -0.279 N 
ATOM      4  H   UNL     1      16.864   1.181  27.054  0.00  0.00    +0.152 HD
ENDROOT
BRANCH   3   5
ATOM      5  C   UNL     1      18.037  -0.587  26.778  0.00  0.00    +0.141 C 
BRANCH   5   6
ATOM      6  C   UNL     1      16.777  -1.270  26.255  0.00  0.00    +0.163 C 
BRANCH   6   7
ATOM      7  O   UNL     1      15.730  -1.188  27.236  0.00  0.00    -0.388 OA
ATOM      8  H   UNL     1      15.099  -1.896  27.091  0.00  0.00    +0.210 HD
ENDBRANCH   6   7
BRANCH   6   9
ATOM      9  C   UNL     1      16.345  -0.610  24.934  0.00  0.00    +0.175 C 
BRANCH   9  10
ATOM     10  C   UNL     1      17.544  -0.291  24.029  0.00  0.00    +0.176 C 
ATOM     11  O   UNL     1      17.270   0.966  23.351  0.00  0.00    -0.332 OA
ATOM     12  C   UNL     1      18.358   1.487  22.518  0.00  0.00    +0.277 C 
ATOM     13  C   UNL     1      18.807   0.423  21.486  0.00  0.00    +0.110 C 
ATOM     14  C   UNL     1      19.079  -0.941  22.156  0.00  0.00    +0.143 C 
ATOM     15  C   UNL     1      17.884  -1.385  23.000  0.00  0.00    +0.133 C 
BRANCH  15  16
ATOM     16  N   UNL     1      18.188  -2.642  23.702  0.00  0.00    -0.308 N 
ATOM     17  H   UNL     1      19.023  -2.675  24.271  0.00  0.00    +0.149 HD
ATOM     18  C   UNL     1      17.434  -3.743  23.636  0.00  0.00    +0.210 C 
ATOM     19  C   UNL     1      16.184  -3.670  22.740  0.00  0.00    +0.109 C 
ATOM     20  O   UNL     1      17.706  -4.777  24.247  0.00  0.00    -0.276 OA
ENDBRANCH  15  16
BRANCH  12  21
ATOM     21  C   UNL     1      19.563   1.901  23.387  0.00  0.00    +0.414 C 
ATOM     22  O   UNL     1      19.445   1.991  24.609  0.00  0.00    -0.240 OA
ATOM     23  O   UNL     1      20.653   2.146  22.868  0.00  0.00    -0.240 OA
ENDBRANCH  12  21
BRANCH  14  24
ATOM     24  O   UNL     1      19.341  -1.925  21.155  0.00  0.00    -0.390 OA
ATOM     25  H   UNL     1      19.129  -2.796  21.499  0.00  0.00    +0.210 HD
ENDBRANCH  14  24
BRANCH  12  26
ATOM     26  O   UNL     1      17.857   2.641  21.795  0.00  0.00    -0.343 OA
ATOM     27  C   UNL     1      16.439   2.607  21.494  0.00  0.00    +0.198 C 
ENDBRANCH  12  26
ENDBRANCH   9  10
BRANCH   9  28
ATOM     28  O   UNL     1      15.591   0.589  25.201  0.00  0.00    -0.387 OA
ATOM     29  H   UNL     1      15.580   1.141  24.415  0.00  0.00    +0.210 HD
ENDBRANCH   9  28
ENDBRANCH   6   9
ENDBRANCH   5   6
ENDBRANCH   3   5
BRANCH   1  30
ATOM     30  O   UNL     1      18.210   2.793  28.389  0.00  0.00    -0.444 OA
BRANCH  30  31
ATOM     31  C   UNL     1      17.859   3.556  27.231  0.00  0.00    +0.292 C 
BRANCH  31  33
ATOM     32  N   UNL     1      20.082   4.596  27.494  0.00  0.00    -0.131 NA
ATOM     33  C   UNL     1      18.801   4.677  27.043  0.00  0.00    +0.121 A 
ATOM     34  C   UNL     1      18.621   5.895  26.428  0.00  0.00    +0.143 A 
ATOM     35  N   UNL     1      19.823   6.560  26.565  0.00  0.00    -0.218 N 
ATOM     36  N   UNL     1      20.694   5.734  27.199  0.00  0.00    -0.060 NA
BRANCH  35  37
ATOM     37  C   UNL     1      20.184   7.881  26.159  0.00  0.00    +0.085 A 
ATOM     38  C   UNL     1      19.852   9.011  26.988  0.00  0.00    +0.026 A 
ATOM     39  C   UNL     1      20.232  10.270  26.482  0.00  0.00    +0.074 A 
ATOM     40  C   UNL     1      19.964  11.432  27.190  0.00  0.00    +0.028 A 
ATOM     41  C   UNL     1      19.321  11.418  28.423  0.00  0.00    +0.002 A 
ATOM     42  C   UNL     1      18.962  10.204  28.975  0.00  0.00    +0.001 A 
ATOM     43  N   UNL     1      20.879  10.442  25.332  0.00  0.00    -0.247 NA
ATOM     44  C   UNL     1      21.210   9.392  24.582  0.00  0.00    +0.074 A 
ATOM     45  C   UNL     1      21.881   9.687  23.399  0.00  0.00    +0.028 A 
ATOM     46  C   UNL     1      22.261   8.702  22.494  0.00  0.00    +0.002 A 
ATOM     47  C   UNL     1      21.950   7.385  22.770  0.00  0.00    +0.001 A 
ATOM     48  C   UNL     1      21.270   7.072  23.952  0.00  0.00    +0.012 A 
ATOM     49  C   UNL     1      19.241   9.021  28.282  0.00  0.00    +0.012 A 
ATOM     50  C   UNL     1      20.892   8.065  24.913  0.00  0.00    +0.026 A 
ENDBRANCH  35  37
ENDBRANCH  31  33
ENDBRANCH  30  31
ENDBRANCH   1  30
TORSDOF 14
