REMARK VINA RESULT:    -6.296     13.046     15.381
REMARK INTER + INTRA:         -13.985
REMARK INTER:                 -11.346
REMARK INTRA:                  -2.639
REMARK UNBOUND:                -3.089
REMARK  Name = lig_assembled_91.pdb
REMARK  16 active torsions:
REMARK  status: ('A' for Active; 'I' for Inactive)
REMARK    1  A    between atoms: _2  and  _10
REMARK    2  A    between atoms: _5  and  _26
REMARK    3  A    between atoms: _7  and  _8
REMARK    4  A    between atoms: _7  and  _26
REMARK    5  A    between atoms: _22  and  _42
REMARK    6  A    between atoms: _24  and  _30
REMARK    7  A    between atoms: _25  and  _29
REMARK    8  A    between atoms: _29  and  _30
REMARK    9  A    between atoms: _32  and  _33
REMARK   10  A    between atoms: _34  and  _35
REMARK   11  A    between atoms: _36  and  _38
REMARK   12  A    between atoms: _38  and  _39
REMARK   13  A    between atoms: _38  and  _40
REMARK   14  A    between atoms: _40  and  _41
REMARK   15  A    between atoms: _40  and  _42
REMARK   16  A    between atoms: _43  and  _45
REMARK                            x       y       z     vdW  Elec       q    Type
REMARK                         _______ _______ _______ _____ _____    ______ ____
ROOT
ATOM      1  C   UNL     1      19.768   9.098  26.505  0.00  0.00    +0.401 C 
ATOM      2  O   UNL     1      20.473   9.986  26.020  0.00  0.00    -0.226 OA
ATOM      3  N   UNL     1      18.945   9.281  27.538  0.00  0.00    -0.279 N 
ATOM      4  H   UNL     1      18.400   8.493  27.859  0.00  0.00    +0.152 HD
ENDROOT
BRANCH   3   5
ATOM      5  C   UNL     1      18.785  10.563  28.235  0.00  0.00    +0.141 C 
BRANCH   5   6
ATOM      6  C   UNL     1      18.477  10.370  29.716  0.00  0.00    +0.163 C 
BRANCH   6   7
ATOM      7  O   UNL     1      17.138  10.806  30.001  0.00  0.00    -0.388 OA
ATOM      8  H   UNL     1      16.676  10.122  30.493  0.00  0.00    +0.210 HD
ENDBRANCH   6   7
BRANCH   6   9
ATOM      9  C   UNL     1      18.667   8.891  30.092  0.00  0.00    +0.175 C 
BRANCH   9  10
ATOM     10  C   UNL     1      17.870   8.507  31.348  0.00  0.00    +0.176 C 
ATOM     11  O   UNL     1      17.967   9.608  32.293  0.00  0.00    -0.332 OA
ATOM     12  C   UNL     1      17.175   9.464  33.518  0.00  0.00    +0.277 C 
ATOM     13  C   UNL     1      17.518   8.132  34.230  0.00  0.00    +0.110 C 
ATOM     14  C   UNL     1      17.459   6.935  33.257  0.00  0.00    +0.143 C 
ATOM     15  C   UNL     1      18.315   7.193  32.017  0.00  0.00    +0.133 C 
BRANCH  15  16
ATOM     16  N   UNL     1      18.182   6.084  31.059  0.00  0.00    -0.308 N 
ATOM     17  H   UNL     1      17.302   5.984  30.573  0.00  0.00    +0.149 HD
ATOM     18  C   UNL     1      19.149   5.202  30.790  0.00  0.00    +0.210 C 
ATOM     19  C   UNL     1      20.469   5.367  31.566  0.00  0.00    +0.109 C 
ATOM     20  O   UNL     1      19.014   4.292  29.971  0.00  0.00    -0.276 OA
ENDBRANCH  15  16
BRANCH  12  21
ATOM     21  C   UNL     1      15.666   9.506  33.202  0.00  0.00    +0.414 C 
ATOM     22  O   UNL     1      15.216  10.361  32.440  0.00  0.00    -0.240 OA
ATOM     23  O   UNL     1      14.899   8.686  33.708  0.00  0.00    -0.240 OA
ENDBRANCH  12  21
BRANCH  14  24
ATOM     24  O   UNL     1      17.926   5.757  33.915  0.00  0.00    -0.390 OA
ATOM     25  H   UNL     1      18.456   5.238  33.305  0.00  0.00    +0.210 HD
ENDBRANCH  14  24
BRANCH  12  26
ATOM     26  O   UNL     1      17.519  10.558  34.406  0.00  0.00    -0.343 OA
ATOM     27  C   UNL     1      17.861  11.801  33.742  0.00  0.00    +0.198 C 
ENDBRANCH  12  26
ENDBRANCH   9  10
BRANCH   9  28
ATOM     28  O   UNL     1      20.066   8.602  30.284  0.00  0.00    -0.387 OA
ATOM     29  H   UNL     1      20.576   9.410  30.186  0.00  0.00    +0.210 HD
ENDBRANCH   9  28
ENDBRANCH   6   9
ENDBRANCH   5   6
ENDBRANCH   3   5
BRANCH   1  30
ATOM     30  O   UNL     1      19.818   7.786  25.940  0.00  0.00    -0.444 OA
BRANCH  30  31
ATOM     31  C   UNL     1      19.385   6.830  26.912  0.00  0.00    +0.292 C 
BRANCH  31  33
ATOM     32  N   UNL     1      18.397   4.568  26.882  0.00  0.00    -0.131 NA
ATOM     33  C   UNL     1      19.174   5.511  26.284  0.00  0.00    +0.121 A 
ATOM     34  C   UNL     1      19.642   5.010  25.090  0.00  0.00    +0.143 A 
ATOM     35  N   UNL     1      19.158   3.719  25.015  0.00  0.00    -0.218 N 
ATOM     36  N   UNL     1      18.389   3.491  26.110  0.00  0.00    -0.060 NA
BRANCH  35  37
ATOM     37  C   UNL     1      19.375   2.722  24.016  0.00  0.00    +0.085 A 
ATOM     38  C   UNL     1      18.451   2.583  22.918  0.00  0.00    +0.026 A 
ATOM     39  C   UNL     1      18.744   1.553  22.003  0.00  0.00    +0.074 A 
ATOM     40  C   UNL     1      17.927   1.321  20.907  0.00  0.00    +0.028 A 
ATOM     41  C   UNL     1      16.794   2.087  20.651  0.00  0.00    +0.002 A 
ATOM     42  C   UNL     1      16.488   3.130  21.501  0.00  0.00    +0.001 A 
ATOM     43  N   UNL     1      19.807   0.757  22.098  0.00  0.00    -0.247 NA
ATOM     44  C   UNL     1      20.673   0.907  23.098  0.00  0.00    +0.074 A 
ATOM     45  C   UNL     1      21.745   0.020  23.101  0.00  0.00    +0.028 A 
ATOM     46  C   UNL     1      22.713   0.028  24.100  0.00  0.00    +0.002 A 
ATOM     47  C   UNL     1      22.602   0.938  25.132  0.00  0.00    +0.001 A 
ATOM     48  C   UNL     1      21.527   1.833  25.147  0.00  0.00    +0.012 A 
ATOM     49  C   UNL     1      17.312   3.389  22.602  0.00  0.00    +0.012 A 
ATOM     50  C   UNL     1      20.532   1.863  24.116  0.00  0.00    +0.026 A 
ENDBRANCH  35  37
ENDBRANCH  31  33
ENDBRANCH  30  31
ENDBRANCH   1  30
TORSDOF 14
