REMARK VINA RESULT:    -5.755     12.692     14.888
REMARK INTER + INTRA:         -13.128
REMARK INTER:                 -10.544
REMARK INTRA:                  -2.583
REMARK UNBOUND:                -2.326
REMARK  Name = lig_assembled_32.pdb
REMARK  19 active torsions:
REMARK  status: ('A' for Active; 'I' for Inactive)
REMARK    1  A    between atoms: _2  and  _9
REMARK    2  A    between atoms: _4  and  _17
REMARK    3  A    between atoms: _5  and  _10
REMARK    4  A    between atoms: _5  and  _11
REMARK    5  A    between atoms: _6  and  _7
REMARK    6  A    between atoms: _6  and  _17
REMARK    7  A    between atoms: _9  and  _10
REMARK    8  A    between atoms: _13  and  _33
REMARK    9  A    between atoms: _15  and  _21
REMARK   10  A    between atoms: _16  and  _20
REMARK   11  A    between atoms: _20  and  _21
REMARK   12  A    between atoms: _23  and  _24
REMARK   13  A    between atoms: _25  and  _26
REMARK   14  A    between atoms: _27  and  _29
REMARK   15  A    between atoms: _29  and  _30
REMARK   16  A    between atoms: _29  and  _31
REMARK   17  A    between atoms: _31  and  _32
REMARK   18  A    between atoms: _31  and  _33
REMARK   19  A    between atoms: _34  and  _36
REMARK                            x       y       z     vdW  Elec       q    Type
REMARK                         _______ _______ _______ _____ _____    ______ ____
ROOT
ATOM      1  C   UNL     1      16.810   1.948  22.488  0.00  0.00    +0.163 C 
ENDROOT
BRANCH   1   2
ATOM      2  O   UNL     1      17.457   1.138  21.492  0.00  0.00    -0.388 OA
ATOM      3  H   UNL     1      18.297   1.537  21.251  0.00  0.00    +0.210 HD
ENDBRANCH   1   2
BRANCH   1   4
ATOM      4  C   UNL     1      17.537   1.844  23.839  0.00  0.00    +0.175 C 
BRANCH   4   5
ATOM      5  C   UNL     1      17.893   0.392  24.194  0.00  0.00    +0.176 C 
ATOM      6  O   UNL     1      16.726  -0.433  23.923  0.00  0.00    -0.332 OA
ATOM      7  C   UNL     1      16.915  -1.875  24.104  0.00  0.00    +0.277 C 
ATOM      8  C   UNL     1      17.450  -2.177  25.525  0.00  0.00    +0.110 C 
ATOM      9  C   UNL     1      18.672  -1.300  25.871  0.00  0.00    +0.143 C 
ATOM     10  C   UNL     1      18.367   0.181  25.644  0.00  0.00    +0.133 C 
BRANCH  10  11
ATOM     11  N   UNL     1      19.565   0.998  25.893  0.00  0.00    -0.308 N 
ATOM     12  H   UNL     1      20.348   0.892  25.262  0.00  0.00    +0.149 HD
ATOM     13  C   UNL     1      19.686   1.870  26.898  0.00  0.00    +0.210 C 
ATOM     14  C   UNL     1      18.486   1.989  27.856  0.00  0.00    +0.109 C 
ATOM     15  O   UNL     1      20.696   2.552  27.073  0.00  0.00    -0.276 OA
ENDBRANCH  10  11
BRANCH   7  16
ATOM     16  C   UNL     1      17.896  -2.435  23.054  0.00  0.00    +0.414 C 
ATOM     17  O   UNL     1      18.119  -1.809  22.018  0.00  0.00    -0.240 OA
ATOM     18  O   UNL     1      18.464  -3.512  23.241  0.00  0.00    -0.240 OA
ENDBRANCH   7  16
BRANCH   7  19
ATOM     19  O   UNL     1      15.622  -2.518  23.957  0.00  0.00    -0.343 OA
ATOM     20  C   UNL     1      15.329  -3.537  24.946  0.00  0.00    +0.198 C 
ENDBRANCH   7  19
BRANCH   9  21
ATOM     21  O   UNL     1      19.038  -1.501  27.237  0.00  0.00    -0.390 OA
ATOM     22  H   UNL     1      19.288  -0.661  27.629  0.00  0.00    +0.210 HD
ENDBRANCH   9  21
ENDBRANCH   4   5
BRANCH   4  23
ATOM     23  O   UNL     1      16.731   2.427  24.883  0.00  0.00    -0.387 OA
ATOM     24  H   UNL     1      16.622   1.793  25.595  0.00  0.00    +0.210 HD
ENDBRANCH   4  23
ENDBRANCH   1   4
BRANCH   1  25
ATOM     25  C   UNL     1      16.780   3.405  22.036  0.00  0.00    +0.141 C 
BRANCH  25  28
ATOM     26  C   UNL     1      17.749   5.459  23.009  0.00  0.00    +0.401 C 
ATOM     27  O   UNL     1      16.714   6.119  22.884  0.00  0.00    -0.226 OA
ATOM     28  N   UNL     1      17.870   4.185  22.634  0.00  0.00    -0.279 N 
ATOM     29  H   UNL     1      18.763   3.732  22.768  0.00  0.00    +0.152 HD
BRANCH  26  30
ATOM     30  O   UNL     1      18.902   6.079  23.584  0.00  0.00    -0.444 OA
BRANCH  30  31
ATOM     31  C   UNL     1      19.273   5.382  24.777  0.00  0.00    +0.292 C 
BRANCH  31  33
ATOM     32  N   UNL     1      18.908   5.802  27.188  0.00  0.00    -0.131 NA
ATOM     33  C   UNL     1      19.206   6.285  25.941  0.00  0.00    +0.120 A 
ATOM     34  C   UNL     1      19.399   7.647  26.019  0.00  0.00    +0.137 A 
ATOM     35  N   UNL     1      19.192   7.930  27.335  0.00  0.00    -0.251 N 
ATOM     36  N   UNL     1      18.899   6.821  28.036  0.00  0.00    -0.065 NA
BRANCH  35  37
ATOM     37  C   UNL     1      19.260   9.213  27.996  0.00  0.00    +0.156 C 
BRANCH  37  38
ATOM     38  C   UNL     1      20.364  10.092  27.425  0.00  0.00    +0.143 C 
BRANCH  38  39
ATOM     39  C   UNL     1      19.778  11.344  26.839  0.00  0.00    +0.306 C 
ATOM     40  O   UNL     1      20.129  12.478  27.125  0.00  0.00    -0.251 OA
BRANCH  39  41
ATOM     41  O   UNL     1      18.790  11.093  25.952  0.00  0.00    -0.481 OA
ATOM     42  H   UNL     1      17.999  10.671  26.341  0.00  0.00    +0.295 HD
ENDBRANCH  39  41
ENDBRANCH  38  39
ENDBRANCH  37  38
ENDBRANCH  35  37
ENDBRANCH  31  33
ENDBRANCH  30  31
ENDBRANCH  26  30
ENDBRANCH  25  28
ENDBRANCH   1  25
TORSDOF 17
