REMARK VINA RESULT:    -5.662      8.967     13.751
REMARK INTER + INTRA:         -14.184
REMARK INTER:                 -11.719
REMARK INTRA:                  -2.465
REMARK UNBOUND:                -2.564
REMARK  Name = lig_assembled_74.pdb
REMARK  24 active torsions:
REMARK  status: ('A' for Active; 'I' for Inactive)
REMARK    1  A    between atoms: _2  and  _9
REMARK    2  A    between atoms: _4  and  _22
REMARK    3  A    between atoms: _5  and  _14
REMARK    4  A    between atoms: _6  and  _7
REMARK    5  A    between atoms: _6  and  _22
REMARK    6  A    between atoms: _9  and  _10
REMARK    7  A    between atoms: _10  and  _11
REMARK    8  A    between atoms: _10  and  _13
REMARK    9  A    between atoms: _11  and  _12
REMARK   10  A    between atoms: _12  and  _16
REMARK   11  A    between atoms: _13  and  _14
REMARK   12  A    between atoms: _14  and  _15
REMARK   13  A    between atoms: _18  and  _38
REMARK   14  A    between atoms: _20  and  _26
REMARK   15  A    between atoms: _21  and  _25
REMARK   16  A    between atoms: _25  and  _26
REMARK   17  A    between atoms: _28  and  _29
REMARK   18  A    between atoms: _30  and  _31
REMARK   19  A    between atoms: _32  and  _34
REMARK   20  A    between atoms: _34  and  _35
REMARK   21  A    between atoms: _34  and  _36
REMARK   22  A    between atoms: _36  and  _37
REMARK   23  A    between atoms: _36  and  _38
REMARK   24  A    between atoms: _39  and  _41
REMARK                            x       y       z     vdW  Elec       q    Type
REMARK                         _______ _______ _______ _____ _____    ______ ____
ROOT
ATOM      1  C   UNL     1       9.659   3.716  37.049  0.00  0.00    +0.163 C 
ENDROOT
BRANCH   1   2
ATOM      2  O   UNL     1      10.003   5.104  36.912  0.00  0.00    -0.388 OA
ATOM      3  H   UNL     1       9.286   5.570  36.475  0.00  0.00    +0.210 HD
ENDBRANCH   1   2
BRANCH   1   4
ATOM      4  C   UNL     1       8.599   3.307  36.011  0.00  0.00    +0.175 C 
BRANCH   4   5
ATOM      5  C   UNL     1       7.798   4.512  35.497  0.00  0.00    +0.176 C 
ATOM      6  O   UNL     1       7.419   5.319  36.645  0.00  0.00    -0.332 OA
ATOM      7  C   UNL     1       6.733   6.577  36.337  0.00  0.00    +0.277 C 
ATOM      8  C   UNL     1       5.491   6.313  35.450  0.00  0.00    +0.110 C 
ATOM      9  C   UNL     1       5.839   5.432  34.232  0.00  0.00    +0.143 C 
ATOM     10  C   UNL     1       6.552   4.151  34.667  0.00  0.00    +0.133 C 
BRANCH  10  11
ATOM     11  N   UNL     1       6.955   3.361  33.493  0.00  0.00    -0.308 N 
ATOM     12  H   UNL     1       7.681   3.736  32.899  0.00  0.00    +0.149 HD
ATOM     13  C   UNL     1       6.424   2.181  33.161  0.00  0.00    +0.210 C 
ATOM     14  C   UNL     1       5.302   1.649  34.072  0.00  0.00    +0.109 C 
ATOM     15  O   UNL     1       6.792   1.535  32.180  0.00  0.00    -0.276 OA
ENDBRANCH  10  11
BRANCH   7  16
ATOM     16  C   UNL     1       7.683   7.556  35.616  0.00  0.00    +0.414 C 
ATOM     17  O   UNL     1       7.255   8.299  34.734  0.00  0.00    -0.240 OA
ATOM     18  O   UNL     1       8.876   7.603  35.917  0.00  0.00    -0.240 OA
ENDBRANCH   7  16
BRANCH   9  19
ATOM     19  O   UNL     1       4.644   5.089  33.529  0.00  0.00    -0.390 OA
ATOM     20  H   UNL     1       4.024   4.674  34.133  0.00  0.00    +0.210 HD
ENDBRANCH   9  19
BRANCH   7  21
ATOM     21  O   UNL     1       6.285   7.163  37.587  0.00  0.00    -0.343 OA
ATOM     22  C   UNL     1       7.193   6.989  38.704  0.00  0.00    +0.198 C 
ENDBRANCH   7  21
ENDBRANCH   4   5
BRANCH   4  23
ATOM     23  O   UNL     1       7.709   2.321  36.572  0.00  0.00    -0.387 OA
ATOM     24  H   UNL     1       7.206   1.906  35.867  0.00  0.00    +0.210 HD
ENDBRANCH   4  23
ENDBRANCH   1   4
BRANCH   1  25
ATOM     25  C   UNL     1      10.903   2.850  36.875  0.00  0.00    +0.141 C 
BRANCH  25  28
ATOM     26  C   UNL     1      12.518   2.908  35.006  0.00  0.00    +0.401 C 
ATOM     27  O   UNL     1      12.305   1.744  34.662  0.00  0.00    -0.226 OA
ATOM     28  N   UNL     1      11.912   3.505  36.033  0.00  0.00    -0.279 N 
ATOM     29  H   UNL     1      12.161   4.461  36.244  0.00  0.00    +0.152 HD
BRANCH  26  30
ATOM     30  O   UNL     1      13.472   3.685  34.277  0.00  0.00    -0.444 OA
BRANCH  30  31
ATOM     31  C   UNL     1      14.701   3.739  35.007  0.00  0.00    +0.292 C 
BRANCH  31  33
ATOM     32  N   UNL     1      14.616   5.515  36.740  0.00  0.00    -0.131 NA
ATOM     33  C   UNL     1      14.968   5.112  35.479  0.00  0.00    +0.120 A 
ATOM     34  C   UNL     1      15.638   6.139  34.850  0.00  0.00    +0.137 A 
ATOM     35  N   UNL     1      15.818   7.060  35.843  0.00  0.00    -0.251 N 
ATOM     36  N   UNL     1      15.121   6.724  36.944  0.00  0.00    -0.065 NA
BRANCH  35  37
ATOM     37  C   UNL     1      16.860   8.065  35.920  0.00  0.00    +0.149 C 
BRANCH  37  38
ATOM     38  C   UNL     1      16.409   9.515  35.638  0.00  0.00    +0.021 C 
BRANCH  38  39
ATOM     39  C   UNL     1      16.644   9.958  34.179  0.00  0.00    +0.125 C 
BRANCH  39  40
ATOM     40  C   UNL     1      15.437   9.828  33.274  0.00  0.00    +0.305 C 
ATOM     41  O   UNL     1      15.211   8.878  32.542  0.00  0.00    -0.251 OA
BRANCH  40  42
ATOM     42  O   UNL     1      14.573  10.852  33.398  0.00  0.00    -0.481 OA
ATOM     43  H   UNL     1      13.645  10.602  33.555  0.00  0.00    +0.295 HD
ENDBRANCH  40  42
ENDBRANCH  39  40
ENDBRANCH  38  39
BRANCH  38  44
ATOM     44  C   UNL     1      17.073  10.466  36.678  0.00  0.00    +0.009 C 
BRANCH  44  45
ATOM     45  C   UNL     1      16.484  10.422  38.104  0.00  0.00    -0.017 C 
ATOM     46  C   UNL     1      17.548  10.660  39.177  0.00  0.00    +0.007 C 
ATOM     47  C   UNL     1      15.375  11.468  38.260  0.00  0.00    +0.007 C 
ENDBRANCH  44  45
ENDBRANCH  38  44
ENDBRANCH  37  38
ENDBRANCH  35  37
ENDBRANCH  31  33
ENDBRANCH  30  31
ENDBRANCH  26  30
ENDBRANCH  25  28
ENDBRANCH   1  25
TORSDOF 20
