REMARK VINA RESULT:    -6.405     14.950     18.682
REMARK INTER + INTRA:         -14.826
REMARK INTER:                 -12.797
REMARK INTRA:                  -2.029
REMARK UNBOUND:                -2.243
REMARK  Name = lig_assembled_31.pdb
REMARK  20 active torsions:
REMARK  status: ('A' for Active; 'I' for Inactive)
REMARK    1  A    between atoms: _2  and  _11
REMARK    2  A    between atoms: _3  and  _12
REMARK    3  A    between atoms: _4  and  _14
REMARK    4  A    between atoms: _6  and  _24
REMARK    5  A    between atoms: _8  and  _9
REMARK    6  A    between atoms: _8  and  _24
REMARK    7  A    between atoms: _11  and  _12
REMARK    8  A    between atoms: _14  and  _15
REMARK    9  A    between atoms: _20  and  _40
REMARK   10  A    between atoms: _22  and  _28
REMARK   11  A    between atoms: _23  and  _27
REMARK   12  A    between atoms: _27  and  _28
REMARK   13  A    between atoms: _30  and  _31
REMARK   14  A    between atoms: _32  and  _33
REMARK   15  A    between atoms: _34  and  _36
REMARK   16  A    between atoms: _36  and  _37
REMARK   17  A    between atoms: _36  and  _38
REMARK   18  A    between atoms: _38  and  _39
REMARK   19  A    between atoms: _38  and  _40
REMARK   20  A    between atoms: _41  and  _43
REMARK                            x       y       z     vdW  Elec       q    Type
REMARK                         _______ _______ _______ _____ _____    ______ ____
ROOT
ATOM      1  C   UNL     1       4.494   2.214  31.719  0.00  0.00    +0.401 C 
ATOM      2  O   UNL     1       4.603   1.031  32.047  0.00  0.00    -0.226 OA
ATOM      3  N   UNL     1       5.439   3.134  31.918  0.00  0.00    -0.279 N 
ATOM      4  H   UNL     1       5.260   4.078  31.605  0.00  0.00    +0.152 HD
ENDROOT
BRANCH   1   5
ATOM      5  O   UNL     1       3.291   2.649  31.080  0.00  0.00    -0.444 OA
BRANCH   5   6
ATOM      6  C   UNL     1       2.624   1.525  30.500  0.00  0.00    +0.292 C 
BRANCH   6   8
ATOM      7  N   UNL     1       2.168   0.892  28.150  0.00  0.00    -0.131 NA
ATOM      8  C   UNL     1       2.168   1.846  29.132  0.00  0.00    +0.120 A 
ATOM      9  C   UNL     1       1.701   3.030  28.608  0.00  0.00    +0.137 A 
ATOM     10  N   UNL     1       1.444   2.732  27.303  0.00  0.00    -0.250 N 
ATOM     11  N   UNL     1       1.719   1.446  27.031  0.00  0.00    -0.065 NA
BRANCH  10  12
ATOM     12  C   UNL     1       0.944   3.611  26.266  0.00  0.00    +0.164 C 
BRANCH  12  13
ATOM     13  C   UNL     1       2.044   4.000  25.291  0.00  0.00    +0.129 C 
BRANCH  13  14
ATOM     14  N   UNL     1       2.455   2.938  24.381  0.00  0.00    -0.298 N 
ATOM     15  H   UNL     1       3.419   2.643  24.336  0.00  0.00    +0.150 HD
ATOM     16  C   UNL     1       1.647   2.650  23.313  0.00  0.00    +0.300 C 
ATOM     17  O   UNL     1       0.551   3.178  23.147  0.00  0.00    -0.253 OA
ATOM     18  N   UNL     1       2.150   1.711  22.466  0.00  0.00    -0.292 N 
ATOM     19  H   UNL     1       3.070   1.308  22.580  0.00  0.00    +0.151 HD
BRANCH  18  20
ATOM     20  C   UNL     1       1.369   1.333  21.311  0.00  0.00    +0.180 C 
BRANCH  20  21
ATOM     21  C   UNL     1       1.696   2.121  20.096  0.00  0.00    +0.122 A 
ATOM     22  O   UNL     1       1.793   1.478  18.893  0.00  0.00    -0.466 OA
ATOM     23  C   UNL     1       2.096   2.427  17.964  0.00  0.00    +0.195 A 
ATOM     24  C   UNL     1       2.199   3.667  18.550  0.00  0.00    +0.041 A 
ATOM     25  C   UNL     1       1.942   3.471  19.927  0.00  0.00    +0.046 A 
ENDBRANCH  20  21
ENDBRANCH  18  20
ENDBRANCH  13  14
ENDBRANCH  12  13
ENDBRANCH  10  12
ENDBRANCH   6   8
ENDBRANCH   5   6
ENDBRANCH   1   5
BRANCH   3  26
ATOM     26  C   UNL     1       6.725   2.852  32.568  0.00  0.00    +0.141 C 
BRANCH  26  27
ATOM     27  C   UNL     1       7.113   3.945  33.558  0.00  0.00    +0.163 C 
BRANCH  27  28
ATOM     28  O   UNL     1       7.767   5.023  32.867  0.00  0.00    -0.388 OA
ATOM     29  H   UNL     1       7.638   5.841  33.354  0.00  0.00    +0.210 HD
ENDBRANCH  27  28
BRANCH  27  30
ATOM     30  C   UNL     1       5.857   4.444  34.292  0.00  0.00    +0.175 C 
BRANCH  30  31
ATOM     31  C   UNL     1       6.190   5.506  35.351  0.00  0.00    +0.176 C 
ATOM     32  O   UNL     1       7.586   5.342  35.725  0.00  0.00    -0.332 OA
ATOM     33  C   UNL     1       8.114   6.344  36.656  0.00  0.00    +0.277 C 
ATOM     34  C   UNL     1       7.236   6.416  37.929  0.00  0.00    +0.110 C 
ATOM     35  C   UNL     1       5.739   6.559  37.581  0.00  0.00    +0.143 C 
ATOM     36  C   UNL     1       5.297   5.468  36.605  0.00  0.00    +0.133 C 
BRANCH  36  37
ATOM     37  N   UNL     1       3.892   5.666  36.213  0.00  0.00    -0.308 N 
ATOM     38  H   UNL     1       3.682   6.419  35.573  0.00  0.00    +0.149 HD
ATOM     39  C   UNL     1       2.877   4.916  36.649  0.00  0.00    +0.210 C 
ATOM     40  C   UNL     1       3.226   3.793  37.645  0.00  0.00    +0.109 C 
ATOM     41  O   UNL     1       1.712   5.095  36.293  0.00  0.00    -0.276 OA
ENDBRANCH  36  37
BRANCH  33  42
ATOM     42  C   UNL     1       8.171   7.734  35.989  0.00  0.00    +0.414 C 
ATOM     43  O   UNL     1       8.168   7.834  34.763  0.00  0.00    -0.240 OA
ATOM     44  O   UNL     1       8.219   8.755  36.677  0.00  0.00    -0.240 OA
ENDBRANCH  33  42
BRANCH  35  45
ATOM     45  O   UNL     1       4.957   6.469  38.773  0.00  0.00    -0.390 OA
ATOM     46  H   UNL     1       5.511   6.654  39.534  0.00  0.00    +0.210 HD
ENDBRANCH  35  45
BRANCH  33  47
ATOM     47  O   UNL     1       9.451   5.934  37.045  0.00  0.00    -0.343 OA
ATOM     48  C   UNL     1       9.536   5.260  38.325  0.00  0.00    +0.198 C 
ENDBRANCH  33  47
ENDBRANCH  30  31
BRANCH  30  49
ATOM     49  O   UNL     1       5.165   3.336  34.901  0.00  0.00    -0.387 OA
ATOM     50  H   UNL     1       4.235   3.371  34.666  0.00  0.00    +0.210 HD
ENDBRANCH  30  49
ENDBRANCH  27  30
ENDBRANCH  26  27
ENDBRANCH   3  26
TORSDOF 18
