REMARK VINA RESULT:    -6.149      1.556      3.945
REMARK INTER + INTRA:         -12.707
REMARK INTER:                 -11.152
REMARK INTRA:                  -1.555
REMARK UNBOUND:                -2.065
REMARK  Name = lig_assembled_49.pdb
REMARK  16 active torsions:
REMARK  status: ('A' for Active; 'I' for Inactive)
REMARK    1  A    between atoms: _2  and  _9
REMARK    2  A    between atoms: _4  and  _17
REMARK    3  A    between atoms: _6  and  _7
REMARK    4  A    between atoms: _6  and  _17
REMARK    5  A    between atoms: _13  and  _33
REMARK    6  A    between atoms: _15  and  _21
REMARK    7  A    between atoms: _16  and  _20
REMARK    8  A    between atoms: _20  and  _21
REMARK    9  A    between atoms: _23  and  _24
REMARK   10  A    between atoms: _25  and  _26
REMARK   11  A    between atoms: _27  and  _29
REMARK   12  A    between atoms: _29  and  _30
REMARK   13  A    between atoms: _29  and  _31
REMARK   14  A    between atoms: _31  and  _32
REMARK   15  A    between atoms: _31  and  _33
REMARK   16  A    between atoms: _34  and  _36
REMARK                            x       y       z     vdW  Elec       q    Type
REMARK                         _______ _______ _______ _____ _____    ______ ____
ROOT
ATOM      1  C   UNL     1       3.536   4.000  33.169  0.00  0.00    +0.175 C 
ENDROOT
BRANCH   1   2
ATOM      2  C   UNL     1       4.911   3.363  33.415  0.00  0.00    +0.176 C 
ATOM      3  O   UNL     1       4.698   1.980  33.811  0.00  0.00    -0.332 OA
ATOM      4  C   UNL     1       5.912   1.177  33.987  0.00  0.00    +0.277 C 
ATOM      5  C   UNL     1       6.876   1.865  34.985  0.00  0.00    +0.110 C 
ATOM      6  C   UNL     1       7.108   3.347  34.624  0.00  0.00    +0.143 C 
ATOM      7  C   UNL     1       5.779   4.086  34.461  0.00  0.00    +0.133 C 
BRANCH   7   8
ATOM      8  N   UNL     1       6.011   5.475  34.032  0.00  0.00    -0.308 N 
ATOM      9  H   UNL     1       6.348   5.628  33.092  0.00  0.00    +0.149 HD
ATOM     10  C   UNL     1       5.806   6.545  34.804  0.00  0.00    +0.210 C 
ATOM     11  C   UNL     1       5.317   6.277  36.240  0.00  0.00    +0.109 C 
ATOM     12  O   UNL     1       5.995   7.698  34.413  0.00  0.00    -0.276 OA
ENDBRANCH   7   8
BRANCH   4  13
ATOM     13  C   UNL     1       6.631   0.968  32.638  0.00  0.00    +0.414 C 
ATOM     14  O   UNL     1       7.858   1.031  32.572  0.00  0.00    -0.240 OA
ATOM     15  O   UNL     1       5.984   0.738  31.615  0.00  0.00    -0.240 OA
ENDBRANCH   4  13
BRANCH   6  16
ATOM     16  O   UNL     1       7.876   3.979  35.649  0.00  0.00    -0.390 OA
ATOM     17  H   UNL     1       8.800   3.998  35.391  0.00  0.00    +0.210 HD
ENDBRANCH   6  16
BRANCH   4  18
ATOM     18  O   UNL     1       5.525  -0.108  34.538  0.00  0.00    -0.343 OA
ATOM     19  C   UNL     1       6.584  -0.828  35.216  0.00  0.00    +0.198 C 
ENDBRANCH   4  18
ENDBRANCH   1   2
BRANCH   1  20
ATOM     20  O   UNL     1       2.756   3.983  34.382  0.00  0.00    -0.387 OA
ATOM     21  H   UNL     1       2.960   4.762  34.905  0.00  0.00    +0.210 HD
ENDBRANCH   1  20
BRANCH   1  22
ATOM     22  C   UNL     1       2.768   3.300  32.035  0.00  0.00    +0.163 C 
BRANCH  22  23
ATOM     23  O   UNL     1       3.671   2.788  31.042  0.00  0.00    -0.388 OA
ATOM     24  H   UNL     1       3.742   3.416  30.319  0.00  0.00    +0.210 HD
ENDBRANCH  22  23
BRANCH  22  25
ATOM     25  C   UNL     1       1.794   4.285  31.396  0.00  0.00    +0.141 C 
BRANCH  25  28
ATOM     26  C   UNL     1       1.145   3.386  29.187  0.00  0.00    +0.401 C 
ATOM     27  O   UNL     1       2.199   3.716  28.639  0.00  0.00    -0.226 OA
ATOM     28  N   UNL     1       0.869   3.617  30.471  0.00  0.00    -0.279 N 
ATOM     29  H   UNL     1      -0.027   3.317  30.828  0.00  0.00    +0.152 HD
BRANCH  26  30
ATOM     30  O   UNL     1       0.143   2.716  28.419  0.00  0.00    -0.444 OA
BRANCH  30  31
ATOM     31  C   UNL     1      -0.689   3.683  27.773  0.00  0.00    +0.292 C 
BRANCH  31  33
ATOM     32  N   UNL     1      -0.432   5.253  25.879  0.00  0.00    -0.131 NA
ATOM     33  C   UNL     1      -0.125   4.053  26.461  0.00  0.00    +0.120 A 
ATOM     34  C   UNL     1       0.723   3.354  25.632  0.00  0.00    +0.137 A 
ATOM     35  N   UNL     1       0.889   4.180  24.559  0.00  0.00    -0.248 N 
ATOM     36  N   UNL     1       0.196   5.321  24.714  0.00  0.00    -0.065 NA
BRANCH  35  37
ATOM     37  C   UNL     1       1.665   3.935  23.368  0.00  0.00    +0.109 C 
ATOM     38  C   UNL     1       1.207   2.711  22.572  0.00  0.00    +0.027 C 
ATOM     39  C   UNL     1       1.849   2.931  21.213  0.00  0.00    +0.002 C 
ATOM     40  C   UNL     1       1.704   4.427  20.969  0.00  0.00    +0.002 C 
ATOM     41  C   UNL     1       1.651   5.084  22.350  0.00  0.00    +0.027 C 
ENDBRANCH  35  37
ENDBRANCH  31  33
ENDBRANCH  30  31
ENDBRANCH  26  30
ENDBRANCH  25  28
ENDBRANCH  22  25
ENDBRANCH   1  22
TORSDOF 14
