REMARK VINA RESULT:    -5.822     21.630     23.561
REMARK INTER + INTRA:         -13.762
REMARK INTER:                 -11.763
REMARK INTRA:                  -1.999
REMARK UNBOUND:                -1.813
REMARK  Name = lig_assembled_33.pdb
REMARK  22 active torsions:
REMARK  status: ('A' for Active; 'I' for Inactive)
REMARK    1  A    between atoms: _2  and  _9
REMARK    2  A    between atoms: _4  and  _20
REMARK    3  A    between atoms: _5  and  _13
REMARK    4  A    between atoms: _5  and  _14
REMARK    5  A    between atoms: _6  and  _7
REMARK    6  A    between atoms: _6  and  _20
REMARK    7  A    between atoms: _9  and  _10
REMARK    8  A    between atoms: _10  and  _11
REMARK    9  A    between atoms: _11  and  _12
REMARK   10  A    between atoms: _12  and  _13
REMARK   11  A    between atoms: _16  and  _36
REMARK   12  A    between atoms: _18  and  _24
REMARK   13  A    between atoms: _19  and  _23
REMARK   14  A    between atoms: _23  and  _24
REMARK   15  A    between atoms: _26  and  _27
REMARK   16  A    between atoms: _28  and  _29
REMARK   17  A    between atoms: _30  and  _32
REMARK   18  A    between atoms: _32  and  _33
REMARK   19  A    between atoms: _32  and  _34
REMARK   20  A    between atoms: _34  and  _35
REMARK   21  A    between atoms: _34  and  _36
REMARK   22  A    between atoms: _37  and  _39
REMARK                            x       y       z     vdW  Elec       q    Type
REMARK                         _______ _______ _______ _____ _____    ______ ____
ROOT
ATOM      1  C   UNL     1      11.790  24.071  25.610  0.00  0.00    +0.163 C 
ENDROOT
BRANCH   1   2
ATOM      2  O   UNL     1      12.277  24.404  24.300  0.00  0.00    -0.388 OA
ATOM      3  H   UNL     1      11.622  24.155  23.642  0.00  0.00    +0.210 HD
ENDBRANCH   1   2
BRANCH   1   4
ATOM      4  C   UNL     1      10.411  23.395  25.530  0.00  0.00    +0.175 C 
BRANCH   4   5
ATOM      5  C   UNL     1       9.293  24.398  25.208  0.00  0.00    +0.176 C 
ATOM      6  O   UNL     1       9.456  24.820  23.826  0.00  0.00    -0.332 OA
ATOM      7  C   UNL     1       8.409  25.705  23.307  0.00  0.00    +0.277 C 
ATOM      8  C   UNL     1       8.248  26.946  24.218  0.00  0.00    +0.110 C 
ATOM      9  C   UNL     1       8.104  26.549  25.702  0.00  0.00    +0.143 C 
ATOM     10  C   UNL     1       9.243  25.626  26.136  0.00  0.00    +0.133 C 
BRANCH  10  11
ATOM     11  N   UNL     1       9.047  25.184  27.526  0.00  0.00    -0.308 N 
ATOM     12  H   UNL     1       8.268  24.572  27.721  0.00  0.00    +0.149 HD
ATOM     13  C   UNL     1       9.832  25.540  28.546  0.00  0.00    +0.210 C 
ATOM     14  C   UNL     1      10.996  26.495  28.221  0.00  0.00    +0.109 C 
ATOM     15  O   UNL     1       9.653  25.143  29.698  0.00  0.00    -0.276 OA
ENDBRANCH  10  11
BRANCH   7  16
ATOM     16  C   UNL     1       7.062  24.959  23.208  0.00  0.00    +0.414 C 
ATOM     17  O   UNL     1       6.003  25.587  23.220  0.00  0.00    -0.240 OA
ATOM     18  O   UNL     1       7.033  23.732  23.117  0.00  0.00    -0.240 OA
ENDBRANCH   7  16
BRANCH   9  19
ATOM     19  O   UNL     1       8.110  27.721  26.518  0.00  0.00    -0.390 OA
ATOM     20  H   UNL     1       8.983  28.120  26.498  0.00  0.00    +0.210 HD
ENDBRANCH   9  19
BRANCH   7  21
ATOM     21  O   UNL     1       8.815  26.155  21.988  0.00  0.00    -0.343 OA
ATOM     22  C   UNL     1      10.237  26.392  21.834  0.00  0.00    +0.198 C 
ENDBRANCH   7  21
ENDBRANCH   4   5
BRANCH   4  23
ATOM     23  O   UNL     1      10.122  22.708  26.764  0.00  0.00    -0.387 OA
ATOM     24  H   UNL     1       9.197  22.452  26.779  0.00  0.00    +0.210 HD
ENDBRANCH   4  23
ENDBRANCH   1   4
BRANCH   1  25
ATOM     25  C   UNL     1      12.774  23.140  26.311  0.00  0.00    +0.141 C 
BRANCH  25  28
ATOM     26  C   UNL     1      14.919  22.494  25.268  0.00  0.00    +0.401 C 
ATOM     27  O   UNL     1      15.596  23.244  25.975  0.00  0.00    -0.226 OA
ATOM     28  N   UNL     1      13.592  22.387  25.353  0.00  0.00    -0.279 N 
ATOM     29  H   UNL     1      13.124  21.751  24.722  0.00  0.00    +0.152 HD
BRANCH  26  30
ATOM     30  O   UNL     1      15.574  21.685  24.288  0.00  0.00    -0.444 OA
BRANCH  30  31
ATOM     31  C   UNL     1      16.413  22.507  23.473  0.00  0.00    +0.292 C 
BRANCH  31  33
ATOM     32  N   UNL     1      15.699  21.337  21.414  0.00  0.00    -0.131 NA
ATOM     33  C   UNL     1      15.933  22.512  22.079  0.00  0.00    +0.120 A 
ATOM     34  C   UNL     1      15.654  23.568  21.238  0.00  0.00    +0.137 A 
ATOM     35  N   UNL     1      15.248  22.967  20.085  0.00  0.00    -0.251 N 
ATOM     36  N   UNL     1      15.293  21.629  20.187  0.00  0.00    -0.065 NA
BRANCH  35  37
ATOM     37  C   UNL     1      14.819  23.593  18.851  0.00  0.00    +0.145 C 
BRANCH  37  38
ATOM     38  C   UNL     1      13.310  23.476  18.641  0.00  0.00    +0.023 C 
BRANCH  38  39
ATOM     39  C   UNL     1      12.935  22.345  17.681  0.00  0.00    +0.002 C 
BRANCH  39  40
ATOM     40  C   UNL     1      12.599  22.922  16.303  0.00  0.00    +0.011 C 
BRANCH  40  41
ATOM     41  C   UNL     1      13.786  22.894  15.344  0.00  0.00    +0.120 C 
BRANCH  41  42
ATOM     42  C   UNL     1      13.514  21.992  14.161  0.00  0.00    +0.305 C 
ATOM     43  O   UNL     1      13.799  22.242  13.001  0.00  0.00    -0.251 OA
BRANCH  42  44
ATOM     44  O   UNL     1      12.909  20.837  14.523  0.00  0.00    -0.481 OA
ATOM     45  H   UNL     1      12.295  20.932  15.273  0.00  0.00    +0.295 HD
ENDBRANCH  42  44
ENDBRANCH  41  42
ENDBRANCH  40  41
ENDBRANCH  39  40
ENDBRANCH  38  39
ENDBRANCH  37  38
ENDBRANCH  35  37
ENDBRANCH  31  33
ENDBRANCH  30  31
ENDBRANCH  26  30
ENDBRANCH  25  28
ENDBRANCH   1  25
TORSDOF 20
