REMARK VINA RESULT:    -6.758      1.259      1.694
REMARK INTER + INTRA:         -13.966
REMARK INTER:                 -11.931
REMARK INTRA:                  -2.035
REMARK UNBOUND:                -1.875
REMARK  Name = lig_assembled_82.pdb
REMARK  19 active torsions:
REMARK  status: ('A' for Active; 'I' for Inactive)
REMARK    1  A    between atoms: _2  and  _9
REMARK    2  A    between atoms: _4  and  _22
REMARK    3  A    between atoms: _5  and  _16
REMARK    4  A    between atoms: _6  and  _7
REMARK    5  A    between atoms: _6  and  _22
REMARK    6  A    between atoms: _9  and  _10
REMARK    7  A    between atoms: _16  and  _17
REMARK    8  A    between atoms: _18  and  _38
REMARK    9  A    between atoms: _20  and  _26
REMARK   10  A    between atoms: _21  and  _25
REMARK   11  A    between atoms: _25  and  _26
REMARK   12  A    between atoms: _28  and  _29
REMARK   13  A    between atoms: _30  and  _31
REMARK   14  A    between atoms: _32  and  _34
REMARK   15  A    between atoms: _34  and  _35
REMARK   16  A    between atoms: _34  and  _36
REMARK   17  A    between atoms: _36  and  _37
REMARK   18  A    between atoms: _36  and  _38
REMARK   19  A    between atoms: _39  and  _41
REMARK                            x       y       z     vdW  Elec       q    Type
REMARK                         _______ _______ _______ _____ _____    ______ ____
ROOT
ATOM      1  C   UNL     1       3.149   2.934  33.228  0.00  0.00    +0.163 C 
ENDROOT
BRANCH   1   2
ATOM      2  O   UNL     1       3.745   2.131  32.195  0.00  0.00    -0.388 OA
ATOM      3  H   UNL     1       3.089   1.938  31.521  0.00  0.00    +0.210 HD
ENDBRANCH   1   2
BRANCH   1   4
ATOM      4  C   UNL     1       1.891   3.614  32.699  0.00  0.00    +0.141 C 
BRANCH   4   7
ATOM      5  C   UNL     1       1.033   3.624  30.382  0.00  0.00    +0.401 C 
ATOM      6  O   UNL     1      -0.030   3.071  30.673  0.00  0.00    -0.226 OA
ATOM      7  N   UNL     1       1.991   3.911  31.265  0.00  0.00    -0.279 N 
ATOM      8  H   UNL     1       2.832   4.357  30.928  0.00  0.00    +0.152 HD
BRANCH   5   9
ATOM      9  O   UNL     1       1.278   3.986  29.020  0.00  0.00    -0.444 OA
BRANCH   9  10
ATOM     10  C   UNL     1       0.636   3.046  28.154  0.00  0.00    +0.292 C 
BRANCH  10  12
ATOM     11  N   UNL     1       2.109   4.001  26.409  0.00  0.00    -0.131 NA
ATOM     12  C   UNL     1       1.331   2.963  26.865  0.00  0.00    +0.120 A 
ATOM     13  C   UNL     1       1.353   1.952  25.921  0.00  0.00    +0.137 A 
ATOM     14  N   UNL     1       2.047   2.489  24.873  0.00  0.00    -0.247 N 
ATOM     15  N   UNL     1       2.572   3.682  25.209  0.00  0.00    -0.065 NA
BRANCH  14  16
ATOM     16  C   UNL     1       2.176   1.976  23.507  0.00  0.00    +0.176 C 
BRANCH  16  17
ATOM     17  C   UNL     1       1.248   2.668  22.538  0.00  0.00    -0.049 C 
ATOM     18  C   UNL     1       1.861   3.369  21.367  0.00  0.00    +0.023 C 
ATOM     19  C   UNL     1       1.084   3.341  19.974  0.00  0.00    -0.025 C 
ATOM     20  C   UNL     1       0.192   2.269  19.337  0.00  0.00    +0.012 C 
ATOM     21  C   UNL     1       0.166   4.421  20.716  0.00  0.00    -0.000 C 
ATOM     22  C   UNL     1      -0.817   3.826  21.773  0.00  0.00    +0.031 C 
ATOM     23  C   UNL     1       2.185   3.655  18.930  0.00  0.00    +0.012 C 
ATOM     24  C   UNL     1       1.466   4.900  21.414  0.00  0.00    +0.012 C 
ATOM     25  C   UNL     1      -0.072   2.878  22.700  0.00  0.00    -0.025 C 
ENDBRANCH  16  17
ENDBRANCH  14  16
ENDBRANCH  10  12
ENDBRANCH   9  10
ENDBRANCH   5   9
ENDBRANCH   4   7
ENDBRANCH   1   4
BRANCH   1  26
ATOM     26  C   UNL     1       4.136   4.000  33.734  0.00  0.00    +0.175 C 
BRANCH  26  27
ATOM     27  C   UNL     1       5.570   3.458  33.835  0.00  0.00    +0.176 C 
ATOM     28  O   UNL     1       5.499   2.100  34.348  0.00  0.00    -0.332 OA
ATOM     29  C   UNL     1       6.775   1.380  34.414  0.00  0.00    +0.277 C 
ATOM     30  C   UNL     1       7.813   2.192  35.225  0.00  0.00    +0.110 C 
ATOM     31  C   UNL     1       7.901   3.654  34.737  0.00  0.00    +0.143 C 
ATOM     32  C   UNL     1       6.518   4.305  34.705  0.00  0.00    +0.133 C 
BRANCH  32  33
ATOM     33  N   UNL     1       6.603   5.668  34.156  0.00  0.00    -0.308 N 
ATOM     34  H   UNL     1       6.805   5.768  33.171  0.00  0.00    +0.149 HD
ATOM     35  C   UNL     1       6.429   6.780  34.874  0.00  0.00    +0.210 C 
ATOM     36  C   UNL     1       6.148   6.595  36.377  0.00  0.00    +0.109 C 
ATOM     37  O   UNL     1       6.492   7.909  34.385  0.00  0.00    -0.276 OA
ENDBRANCH  32  33
BRANCH  29  38
ATOM     38  C   UNL     1       7.324   1.110  32.997  0.00  0.00    +0.414 C 
ATOM     39  O   UNL     1       6.551   0.907  32.061  0.00  0.00    -0.240 OA
ATOM     40  O   UNL     1       8.538   1.096  32.791  0.00  0.00    -0.240 OA
ENDBRANCH  29  38
BRANCH  29  41
ATOM     41  O   UNL     1       6.545   0.120  35.096  0.00  0.00    -0.343 OA
ATOM     42  C   UNL     1       7.445  -0.151  36.200  0.00  0.00    +0.198 C 
ENDBRANCH  29  41
BRANCH  31  43
ATOM     43  O   UNL     1       8.753   4.401  35.605  0.00  0.00    -0.390 OA
ATOM     44  H   UNL     1       9.660   4.104  35.499  0.00  0.00    +0.210 HD
ENDBRANCH  31  43
ENDBRANCH  26  27
BRANCH  26  45
ATOM     45  O   UNL     1       3.705   4.508  35.012  0.00  0.00    -0.387 OA
ATOM     46  H   UNL     1       3.359   3.787  35.544  0.00  0.00    +0.210 HD
ENDBRANCH  26  45
ENDBRANCH   1  26
TORSDOF 15
