REMARK VINA RESULT:    -6.094     18.393     21.404
REMARK INTER + INTRA:         -12.809
REMARK INTER:                  -8.787
REMARK INTRA:                  -4.022
REMARK UNBOUND:                -1.905
REMARK  Name = lig_assembled_38.pdb
REMARK  17 active torsions:
REMARK  status: ('A' for Active; 'I' for Inactive)
REMARK    1  A    between atoms: _2  and  _9
REMARK    2  A    between atoms: _4  and  _19
REMARK    3  A    between atoms: _6  and  _7
REMARK    4  A    between atoms: _6  and  _19
REMARK    5  A    between atoms: _9  and  _10
REMARK    6  A    between atoms: _15  and  _35
REMARK    7  A    between atoms: _17  and  _23
REMARK    8  A    between atoms: _18  and  _22
REMARK    9  A    between atoms: _22  and  _23
REMARK   10  A    between atoms: _25  and  _26
REMARK   11  A    between atoms: _27  and  _28
REMARK   12  A    between atoms: _29  and  _31
REMARK   13  A    between atoms: _31  and  _32
REMARK   14  A    between atoms: _31  and  _33
REMARK   15  A    between atoms: _33  and  _34
REMARK   16  A    between atoms: _33  and  _35
REMARK   17  A    between atoms: _36  and  _38
REMARK                            x       y       z     vdW  Elec       q    Type
REMARK                         _______ _______ _______ _____ _____    ______ ____
ROOT
ATOM      1  C   UNL     1      -3.423  22.035  24.135  0.00  0.00    +0.163 C 
ENDROOT
BRANCH   1   2
ATOM      2  O   UNL     1      -2.631  23.232  24.052  0.00  0.00    -0.388 OA
ATOM      3  H   UNL     1      -2.010  23.257  24.785  0.00  0.00    +0.210 HD
ENDBRANCH   1   2
BRANCH   1   4
ATOM      4  C   UNL     1      -3.293  21.419  25.523  0.00  0.00    +0.141 C 
BRANCH   4   7
ATOM      5  C   UNL     1      -5.358  20.213  26.149  0.00  0.00    +0.401 C 
ATOM      6  O   UNL     1      -5.943  21.226  26.540  0.00  0.00    -0.226 OA
ATOM      7  N   UNL     1      -4.115  20.211  25.664  0.00  0.00    -0.279 N 
ATOM      8  H   UNL     1      -3.717  19.327  25.378  0.00  0.00    +0.152 HD
BRANCH   5   9
ATOM      9  O   UNL     1      -6.031  18.954  26.214  0.00  0.00    -0.444 OA
BRANCH   9  10
ATOM     10  C   UNL     1      -7.159  18.969  25.336  0.00  0.00    +0.292 C 
BRANCH  10  12
ATOM     11  N   UNL     1      -5.620  17.814  23.776  0.00  0.00    -0.131 NA
ATOM     12  C   UNL     1      -6.761  18.545  23.979  0.00  0.00    +0.120 A 
ATOM     13  C   UNL     1      -7.395  18.734  22.771  0.00  0.00    +0.137 A 
ATOM     14  N   UNL     1      -6.621  18.047  21.881  0.00  0.00    -0.247 N 
ATOM     15  N   UNL     1      -5.548  17.508  22.488  0.00  0.00    -0.065 NA
BRANCH  14  16
ATOM     16  C   UNL     1      -6.959  17.671  20.520  0.00  0.00    +0.180 C 
BRANCH  16  17
ATOM     17  C   UNL     1      -6.390  18.605  19.480  0.00  0.00    -0.025 A 
ATOM     18  C   UNL     1      -5.070  19.074  19.578  0.00  0.00    +0.005 A 
ATOM     19  C   UNL     1      -4.520  19.865  18.564  0.00  0.00    +0.001 A 
ATOM     20  C   UNL     1      -5.280  20.197  17.444  0.00  0.00    +0.015 A 
ATOM     21  C   UNL     1      -6.592  19.744  17.345  0.00  0.00    +0.018 A 
ATOM     22 BR   UNL     1      -7.623  20.184  15.823  0.00  0.00    -0.050 Br
ATOM     23  C   UNL     1      -7.149  18.953  18.352  0.00  0.00    +0.020 A 
ENDBRANCH  16  17
ENDBRANCH  14  16
ENDBRANCH  10  12
ENDBRANCH   9  10
ENDBRANCH   5   9
ENDBRANCH   4   7
ENDBRANCH   1   4
BRANCH   1  24
ATOM     24  C   UNL     1      -2.983  21.011  23.074  0.00  0.00    +0.175 C 
BRANCH  24  25
ATOM     25  C   UNL     1      -2.289  21.679  21.878  0.00  0.00    +0.176 C 
ATOM     26  O   UNL     1      -3.272  22.505  21.195  0.00  0.00    -0.332 OA
ATOM     27  C   UNL     1      -2.761  23.308  20.080  0.00  0.00    +0.277 C 
ATOM     28  C   UNL     1      -2.031  22.407  19.054  0.00  0.00    +0.110 C 
ATOM     29  C   UNL     1      -0.998  21.487  19.738  0.00  0.00    +0.143 C 
ATOM     30  C   UNL     1      -1.636  20.701  20.884  0.00  0.00    +0.133 C 
BRANCH  30  31
ATOM     31  N   UNL     1      -0.622  19.895  21.582  0.00  0.00    -0.308 N 
ATOM     32  H   UNL     1       0.181  20.374  21.963  0.00  0.00    +0.149 HD
ATOM     33  C   UNL     1      -0.695  18.571  21.745  0.00  0.00    +0.210 C 
ATOM     34  C   UNL     1      -1.919  17.867  21.130  0.00  0.00    +0.109 C 
ATOM     35  O   UNL     1       0.162  17.923  22.348  0.00  0.00    -0.276 OA
ENDBRANCH  30  31
BRANCH  27  36
ATOM     36  C   UNL     1      -1.794  24.397  20.589  0.00  0.00    +0.414 C 
ATOM     37  O   UNL     1      -1.861  24.791  21.753  0.00  0.00    -0.240 OA
ATOM     38  O   UNL     1      -0.949  24.882  19.837  0.00  0.00    -0.240 OA
ENDBRANCH  27  36
BRANCH  27  39
ATOM     39  O   UNL     1      -3.893  23.930  19.419  0.00  0.00    -0.343 OA
ATOM     40  C   UNL     1      -5.174  23.300  19.676  0.00  0.00    +0.198 C 
ENDBRANCH  27  39
BRANCH  29  41
ATOM     41  O   UNL     1      -0.460  20.572  18.782  0.00  0.00    -0.390 OA
ATOM     42  H   UNL     1      -0.036  21.062  18.073  0.00  0.00    +0.210 HD
ENDBRANCH  29  41
ENDBRANCH  24  25
BRANCH  24  43
ATOM     43  O   UNL     1      -4.117  20.243  22.626  0.00  0.00    -0.387 OA
ATOM     44  H   UNL     1      -4.030  19.336  22.930  0.00  0.00    +0.210 HD
ENDBRANCH  24  43
ENDBRANCH   1  24
TORSDOF 15
