REMARK VINA RESULT:    -5.990     18.993     21.047
REMARK INTER + INTRA:         -14.058
REMARK INTER:                 -10.947
REMARK INTRA:                  -3.111
REMARK UNBOUND:                -2.640
REMARK  Name = lig_assembled_29.pdb
REMARK  21 active torsions:
REMARK  status: ('A' for Active; 'I' for Inactive)
REMARK    1  A    between atoms: _2  and  _9
REMARK    2  A    between atoms: _4  and  _23
REMARK    3  A    between atoms: _6  and  _7
REMARK    4  A    between atoms: _6  and  _23
REMARK    5  A    between atoms: _9  and  _10
REMARK    6  A    between atoms: _12  and  _18
REMARK    7  A    between atoms: _13  and  _18
REMARK    8  A    between atoms: _14  and  _17
REMARK    9  A    between atoms: _15  and  _17
REMARK   10  A    between atoms: _19  and  _39
REMARK   11  A    between atoms: _21  and  _27
REMARK   12  A    between atoms: _22  and  _26
REMARK   13  A    between atoms: _26  and  _27
REMARK   14  A    between atoms: _29  and  _30
REMARK   15  A    between atoms: _31  and  _32
REMARK   16  A    between atoms: _33  and  _35
REMARK   17  A    between atoms: _35  and  _36
REMARK   18  A    between atoms: _35  and  _37
REMARK   19  A    between atoms: _37  and  _38
REMARK   20  A    between atoms: _37  and  _39
REMARK   21  A    between atoms: _40  and  _42
REMARK                            x       y       z     vdW  Elec       q    Type
REMARK                         _______ _______ _______ _____ _____    ______ ____
ROOT
ATOM      1  C   UNL     1      20.892   6.342  29.698  0.00  0.00    +0.163 C 
ENDROOT
BRANCH   1   2
ATOM      2  O   UNL     1      21.375   7.500  30.398  0.00  0.00    -0.388 OA
ATOM      3  H   UNL     1      20.914   8.281  30.082  0.00  0.00    +0.210 HD
ENDBRANCH   1   2
BRANCH   1   4
ATOM      4  C   UNL     1      19.911   6.742  28.583  0.00  0.00    +0.175 C 
BRANCH   4   5
ATOM      5  C   UNL     1      19.682   8.260  28.532  0.00  0.00    +0.176 C 
ATOM      6  O   UNL     1      18.815   8.619  29.643  0.00  0.00    -0.332 OA
ATOM      7  C   UNL     1      18.570  10.053  29.818  0.00  0.00    +0.277 C 
ATOM      8  C   UNL     1      18.025  10.673  28.508  0.00  0.00    +0.110 C 
ATOM      9  C   UNL     1      18.897  10.293  27.292  0.00  0.00    +0.143 C 
ATOM     10  C   UNL     1      19.090   8.778  27.208  0.00  0.00    +0.133 C 
BRANCH  10  11
ATOM     11  N   UNL     1      19.993   8.435  26.098  0.00  0.00    -0.308 N 
ATOM     12  H   UNL     1      20.891   8.895  26.061  0.00  0.00    +0.149 HD
ATOM     13  C   UNL     1      19.702   7.555  25.136  0.00  0.00    +0.210 C 
ATOM     14  C   UNL     1      18.315   6.890  25.206  0.00  0.00    +0.109 C 
ATOM     15  O   UNL     1      20.484   7.276  24.226  0.00  0.00    -0.276 OA
ENDBRANCH  10  11
BRANCH   7  16
ATOM     16  C   UNL     1      19.864  10.783  30.234  0.00  0.00    +0.414 C 
ATOM     17  O   UNL     1      20.655  10.248  31.010  0.00  0.00    -0.240 OA
ATOM     18  O   UNL     1      20.117  11.905  29.794  0.00  0.00    -0.240 OA
ENDBRANCH   7  16
BRANCH   7  19
ATOM     19  O   UNL     1      17.565  10.214  30.852  0.00  0.00    -0.343 OA
ATOM     20  C   UNL     1      17.458   9.104  31.779  0.00  0.00    +0.198 C 
ENDBRANCH   7  19
BRANCH   9  21
ATOM     21  O   UNL     1      18.278  10.756  26.092  0.00  0.00    -0.390 OA
ATOM     22  H   UNL     1      17.503  11.279  26.311  0.00  0.00    +0.210 HD
ENDBRANCH   9  21
ENDBRANCH   4   5
BRANCH   4  23
ATOM     23  O   UNL     1      18.656   6.056  28.755  0.00  0.00    -0.387 OA
ATOM     24  H   UNL     1      18.402   6.079  29.681  0.00  0.00    +0.210 HD
ENDBRANCH   4  23
ENDBRANCH   1   4
BRANCH   1  25
ATOM     25  C   UNL     1      22.062   5.570  29.096  0.00  0.00    +0.141 C 
BRANCH  25  28
ATOM     26  C   UNL     1      21.712   3.506  27.784  0.00  0.00    +0.401 C 
ATOM     27  O   UNL     1      21.903   4.053  26.696  0.00  0.00    -0.226 OA
ATOM     28  N   UNL     1      21.760   4.140  28.956  0.00  0.00    -0.279 N 
ATOM     29  H   UNL     1      21.579   3.607  29.795  0.00  0.00    +0.152 HD
BRANCH  26  30
ATOM     30  O   UNL     1      21.414   2.108  27.816  0.00  0.00    -0.444 OA
BRANCH  30  31
ATOM     31  C   UNL     1      20.454   1.847  28.843  0.00  0.00    +0.292 C 
BRANCH  31  33
ATOM     32  N   UNL     1      18.438   3.260  28.546  0.00  0.00    -0.131 NA
ATOM     33  C   UNL     1      19.086   2.071  28.339  0.00  0.00    +0.120 A 
ATOM     34  C   UNL     1      18.271   1.236  27.609  0.00  0.00    +0.137 A 
ATOM     35  N   UNL     1      17.182   2.009  27.324  0.00  0.00    -0.247 N 
ATOM     36  N   UNL     1      17.265   3.207  27.927  0.00  0.00    -0.065 NA
BRANCH  35  37
ATOM     37  C   UNL     1      16.065   1.693  26.454  0.00  0.00    +0.180 C 
BRANCH  37  38
ATOM     38  C   UNL     1      16.536   1.456  25.038  0.00  0.00    -0.022 A 
ATOM     39  C   UNL     1      16.608   2.525  24.128  0.00  0.00    +0.054 A 
ATOM     40  C   UNL     1      17.118   2.334  22.836  0.00  0.00    +0.162 A 
ATOM     41  C   UNL     1      17.555   1.053  22.443  0.00  0.00    +0.162 A 
ATOM     42  C   UNL     1      17.482  -0.008  23.349  0.00  0.00    +0.050 A 
ATOM     43  C   UNL     1      16.975   0.191  24.635  0.00  0.00    +0.009 A 
BRANCH  40  44
ATOM     44  O   UNL     1      17.241   3.330  21.897  0.00  0.00    -0.491 OA
ATOM     45  C   UNL     1      17.226   4.675  22.352  0.00  0.00    +0.277 C 
ENDBRANCH  40  44
BRANCH  41  46
ATOM     46  O   UNL     1      18.035   0.946  21.160  0.00  0.00    -0.491 OA
ATOM     47  C   UNL     1      19.444   0.921  20.982  0.00  0.00    +0.277 C 
ENDBRANCH  41  46
ENDBRANCH  37  38
ENDBRANCH  35  37
ENDBRANCH  31  33
ENDBRANCH  30  31
ENDBRANCH  26  30
ENDBRANCH  25  28
ENDBRANCH   1  25
TORSDOF 17
