REMARK VINA RESULT:    -6.832      7.104     12.746
REMARK INTER + INTRA:         -13.799
REMARK INTER:                 -12.284
REMARK INTRA:                  -1.515
REMARK UNBOUND:                -1.575
REMARK  Name = lig_assembled_0.pdb
REMARK  17 active torsions:
REMARK  status: ('A' for Active; 'I' for Inactive)
REMARK    1  A    between atoms: _2  and  _10
REMARK    2  A    between atoms: _5  and  _21
REMARK    3  A    between atoms: _7  and  _8
REMARK    4  A    between atoms: _7  and  _21
REMARK    5  A    between atoms: _11  and  _12
REMARK    6  A    between atoms: _17  and  _37
REMARK    7  A    between atoms: _19  and  _25
REMARK    8  A    between atoms: _20  and  _24
REMARK    9  A    between atoms: _24  and  _25
REMARK   10  A    between atoms: _27  and  _28
REMARK   11  A    between atoms: _29  and  _30
REMARK   12  A    between atoms: _31  and  _33
REMARK   13  A    between atoms: _33  and  _34
REMARK   14  A    between atoms: _33  and  _35
REMARK   15  A    between atoms: _35  and  _36
REMARK   16  A    between atoms: _35  and  _37
REMARK   17  A    between atoms: _38  and  _40
REMARK                            x       y       z     vdW  Elec       q    Type
REMARK                         _______ _______ _______ _____ _____    ______ ____
ROOT
ATOM      1  C   UNL     1       9.898   3.015  34.862  0.00  0.00    +0.163 C 
ENDROOT
BRANCH   1   2
ATOM      2  O   UNL     1       9.647   2.109  33.775  0.00  0.00    -0.388 OA
ATOM      3  H   UNL     1       9.926   1.225  34.024  0.00  0.00    +0.210 HD
ENDBRANCH   1   2
BRANCH   1   4
ATOM      4  C   UNL     1      11.050   2.498  35.717  0.00  0.00    +0.141 C 
BRANCH   4   7
ATOM      5  C   UNL     1      13.210   3.623  35.298  0.00  0.00    +0.401 C 
ATOM      6  O   UNL     1      13.555   2.835  34.414  0.00  0.00    -0.226 OA
ATOM      7  N   UNL     1      12.057   3.537  35.964  0.00  0.00    -0.279 N 
ATOM      8  H   UNL     1      11.867   4.225  36.678  0.00  0.00    +0.152 HD
BRANCH   5   9
ATOM      9  O   UNL     1      14.083   4.699  35.649  0.00  0.00    -0.444 OA
BRANCH   9  10
ATOM     10  C   UNL     1      15.304   4.584  34.913  0.00  0.00    +0.292 C 
BRANCH  10  12
ATOM     11  N   UNL     1      14.822   6.949  34.404  0.00  0.00    -0.131 NA
ATOM     12  C   UNL     1      15.615   5.855  34.233  0.00  0.00    +0.121 A 
ATOM     13  C   UNL     1      16.661   6.182  33.400  0.00  0.00    +0.143 A 
ATOM     14  N   UNL     1      16.414   7.477  33.004  0.00  0.00    -0.219 N 
ATOM     15  N   UNL     1      15.339   7.942  33.699  0.00  0.00    -0.060 NA
BRANCH  14  16
ATOM     16  C   UNL     1      17.143   8.341  32.140  0.00  0.00    +0.079 A 
ATOM     17  C   UNL     1      17.090   9.749  32.179  0.00  0.00    +0.062 A 
ATOM     18  C   UNL     1      17.836  10.485  31.232  0.00  0.00    +0.015 A 
ATOM     19  C   UNL     1      18.606   9.847  30.259  0.00  0.00    +0.001 A 
ATOM     20  C   UNL     1      18.670   8.461  30.230  0.00  0.00    +0.002 A 
ATOM     21  C   UNL     1      17.956   7.715  31.167  0.00  0.00    +0.028 A 
BRANCH  17  22
ATOM     22  C   UNL     1      16.445  10.531  33.271  0.00  0.00    +0.244 C 
ATOM     23  O   UNL     1      17.044  10.851  34.286  0.00  0.00    -0.270 OA
ATOM     24  N   UNL     1      15.146  10.924  33.087  0.00  0.00    -0.325 N 
ATOM     25  H   UNL     1      14.732  11.498  33.812  0.00  0.00    +0.145 HD
ATOM     26  H   UNL     1      14.588  10.712  32.273  0.00  0.00    +0.145 HD
ENDBRANCH  17  22
ENDBRANCH  14  16
ENDBRANCH  10  12
ENDBRANCH   9  10
ENDBRANCH   5   9
ENDBRANCH   4   7
ENDBRANCH   1   4
BRANCH   1  27
ATOM     27  C   UNL     1       8.644   3.185  35.737  0.00  0.00    +0.175 C 
BRANCH  27  28
ATOM     28  C   UNL     1       7.829   4.427  35.344  0.00  0.00    +0.176 C 
ATOM     29  O   UNL     1       7.570   5.192  36.553  0.00  0.00    -0.332 OA
ATOM     30  C   UNL     1       6.888   6.475  36.357  0.00  0.00    +0.277 C 
ATOM     31  C   UNL     1       5.569   6.273  35.573  0.00  0.00    +0.110 C 
ATOM     32  C   UNL     1       5.789   5.437  34.294  0.00  0.00    +0.143 C 
ATOM     33  C   UNL     1       6.507   4.125  34.613  0.00  0.00    +0.133 C 
BRANCH  33  34
ATOM     34  N   UNL     1       6.789   3.378  33.377  0.00  0.00    -0.308 N 
ATOM     35  H   UNL     1       7.401   3.805  32.697  0.00  0.00    +0.149 HD
ATOM     36  C   UNL     1       6.287   2.172  33.096  0.00  0.00    +0.210 C 
ATOM     37  C   UNL     1       5.336   1.560  34.141  0.00  0.00    +0.109 C 
ATOM     38  O   UNL     1       6.552   1.563  32.059  0.00  0.00    -0.276 OA
ENDBRANCH  33  34
BRANCH  30  39
ATOM     39  C   UNL     1       7.794   7.465  35.596  0.00  0.00    +0.414 C 
ATOM     40  O   UNL     1       7.378   8.038  34.590  0.00  0.00    -0.240 OA
ATOM     41  O   UNL     1       8.940   7.690  35.987  0.00  0.00    -0.240 OA
ENDBRANCH  30  39
BRANCH  32  42
ATOM     42  O   UNL     1       4.530   5.147  33.685  0.00  0.00    -0.390 OA
ATOM     43  H   UNL     1       3.859   5.049  34.366  0.00  0.00    +0.210 HD
ENDBRANCH  32  42
BRANCH  30  44
ATOM     44  O   UNL     1       6.565   7.016  37.664  0.00  0.00    -0.343 OA
ATOM     45  C   UNL     1       7.022   6.219  38.786  0.00  0.00    +0.198 C 
ENDBRANCH  30  44
ENDBRANCH  27  28
BRANCH  27  46
ATOM     46  O   UNL     1       9.015   3.254  37.128  0.00  0.00    -0.387 OA
ATOM     47  H   UNL     1       9.811   2.738  37.273  0.00  0.00    +0.210 HD
ENDBRANCH  27  46
ENDBRANCH   1  27
TORSDOF 15
