REMARK VINA RESULT:    -6.431      1.925      3.818
REMARK INTER + INTRA:         -16.455
REMARK INTER:                 -12.614
REMARK INTRA:                  -3.841
REMARK UNBOUND:                -3.256
REMARK  Name = lig_assembled_47.pdb
REMARK  22 active torsions:
REMARK  status: ('A' for Active; 'I' for Inactive)
REMARK    1  A    between atoms: _2  and  _9
REMARK    2  A    between atoms: _4  and  _30
REMARK    3  A    between atoms: _6  and  _7
REMARK    4  A    between atoms: _6  and  _30
REMARK    5  A    between atoms: _9  and  _10
REMARK    6  A    between atoms: _10  and  _11
REMARK    7  A    between atoms: _10  and  _12
REMARK    8  A    between atoms: _11  and  _24
REMARK    9  A    between atoms: _12  and  _13
REMARK   10  A    between atoms: _12  and  _19
REMARK   11  A    between atoms: _26  and  _46
REMARK   12  A    between atoms: _28  and  _34
REMARK   13  A    between atoms: _29  and  _33
REMARK   14  A    between atoms: _33  and  _34
REMARK   15  A    between atoms: _36  and  _37
REMARK   16  A    between atoms: _38  and  _39
REMARK   17  A    between atoms: _40  and  _42
REMARK   18  A    between atoms: _42  and  _43
REMARK   19  A    between atoms: _42  and  _44
REMARK   20  A    between atoms: _44  and  _45
REMARK   21  A    between atoms: _44  and  _46
REMARK   22  A    between atoms: _47  and  _49
REMARK                            x       y       z     vdW  Elec       q    Type
REMARK                         _______ _______ _______ _____ _____    ______ ____
ROOT
ATOM      1  C   UNL     1       0.192  23.212  15.363  0.00  0.00    +0.401 C 
ATOM      2  O   UNL     1       0.658  22.176  14.883  0.00  0.00    -0.226 OA
ATOM      3  N   UNL     1       0.169  24.384  14.727  0.00  0.00    -0.279 N 
ATOM      4  H   UNL     1      -0.244  25.176  15.201  0.00  0.00    +0.152 HD
ENDROOT
BRANCH   3   5
ATOM      5  C   UNL     1       0.710  24.589  13.378  0.00  0.00    +0.141 C 
BRANCH   5   6
ATOM      6  C   UNL     1       2.047  25.322  13.407  0.00  0.00    +0.163 C 
BRANCH   6   7
ATOM      7  O   UNL     1       2.193  26.030  14.648  0.00  0.00    -0.388 OA
ATOM      8  H   UNL     1       2.932  25.664  15.141  0.00  0.00    +0.210 HD
ENDBRANCH   6   7
BRANCH   6   9
ATOM      9  C   UNL     1       3.191  24.312  13.211  0.00  0.00    +0.175 C 
BRANCH   9  10
ATOM     10  C   UNL     1       3.902  23.982  14.532  0.00  0.00    +0.176 C 
ATOM     11  O   UNL     1       4.924  24.993  14.754  0.00  0.00    -0.332 OA
ATOM     12  C   UNL     1       5.641  24.900  16.029  0.00  0.00    +0.277 C 
ATOM     13  C   UNL     1       6.255  23.489  16.203  0.00  0.00    +0.110 C 
ATOM     14  C   UNL     1       5.213  22.380  15.946  0.00  0.00    +0.143 C 
ATOM     15  C   UNL     1       4.526  22.575  14.594  0.00  0.00    +0.133 C 
BRANCH  15  16
ATOM     16  N   UNL     1       3.475  21.563  14.399  0.00  0.00    -0.308 N 
ATOM     17  H   UNL     1       2.660  21.609  14.994  0.00  0.00    +0.149 HD
ATOM     18  C   UNL     1       3.529  20.589  13.487  0.00  0.00    +0.210 C 
ATOM     19  C   UNL     1       4.796  20.531  12.613  0.00  0.00    +0.109 C 
ATOM     20  O   UNL     1       2.627  19.764  13.336  0.00  0.00    -0.276 OA
ENDBRANCH  15  16
BRANCH  12  21
ATOM     21  C   UNL     1       4.697  25.202  17.211  0.00  0.00    +0.414 C 
ATOM     22  O   UNL     1       5.035  24.925  18.361  0.00  0.00    -0.240 OA
ATOM     23  O   UNL     1       3.598  25.722  17.015  0.00  0.00    -0.240 OA
ENDBRANCH  12  21
BRANCH  12  24
ATOM     24  O   UNL     1       6.721  25.869  16.008  0.00  0.00    -0.343 OA
ATOM     25  C   UNL     1       6.300  27.256  16.006  0.00  0.00    +0.198 C 
ENDBRANCH  12  24
BRANCH  14  26
ATOM     26  O   UNL     1       5.853  21.103  15.968  0.00  0.00    -0.390 OA
ATOM     27  H   UNL     1       6.158  20.913  16.858  0.00  0.00    +0.210 HD
ENDBRANCH  14  26
ENDBRANCH   9  10
BRANCH   9  28
ATOM     28  O   UNL     1       4.139  24.815  12.248  0.00  0.00    -0.387 OA
ATOM     29  H   UNL     1       3.714  24.892  11.391  0.00  0.00    +0.210 HD
ENDBRANCH   9  28
ENDBRANCH   6   9
ENDBRANCH   5   6
ENDBRANCH   3   5
BRANCH   1  30
ATOM     30  O   UNL     1      -0.367  23.178  16.679  0.00  0.00    -0.444 OA
BRANCH  30  31
ATOM     31  C   UNL     1       0.682  23.273  17.647  0.00  0.00    +0.292 C 
BRANCH  31  33
ATOM     32  N   UNL     1       0.407  23.162  20.112  0.00  0.00    -0.131 NA
ATOM     33  C   UNL     1       0.328  22.553  18.886  0.00  0.00    +0.120 A 
ATOM     34  C   UNL     1      -0.082  21.250  19.062  0.00  0.00    +0.137 A 
ATOM     35  N   UNL     1      -0.188  21.114  20.415  0.00  0.00    -0.251 N 
ATOM     36  N   UNL     1       0.086  22.271  21.041  0.00  0.00    -0.065 NA
BRANCH  35  37
ATOM     37  C   UNL     1      -0.393  19.894  21.182  0.00  0.00    +0.160 C 
BRANCH  37  38
ATOM     38  C   UNL     1      -1.445  18.955  20.585  0.00  0.00    +0.131 C 
BRANCH  38  39
ATOM     39  C   UNL     1      -0.918  17.532  20.721  0.00  0.00    +0.311 C 
ATOM     40  O   UNL     1       0.022  17.108  20.065  0.00  0.00    -0.251 OA
BRANCH  39  41
ATOM     41  O   UNL     1      -1.466  16.770  21.690  0.00  0.00    -0.480 OA
ATOM     42  H   UNL     1      -0.998  16.684  22.537  0.00  0.00    +0.295 HD
ENDBRANCH  39  41
ENDBRANCH  38  39
BRANCH  38  43
ATOM     43  C   UNL     1      -2.875  19.106  21.194  0.00  0.00    +0.064 C 
BRANCH  43  44
ATOM     44  C   UNL     1      -2.993  20.061  22.384  0.00  0.00    -0.039 A 
ATOM     45  C   UNL     1      -2.839  19.566  23.693  0.00  0.00    +0.004 A 
ATOM     46  C   UNL     1      -2.940  20.412  24.803  0.00  0.00    +0.000 A 
ATOM     47  C   UNL     1      -3.215  21.765  24.627  0.00  0.00    +0.000 A 
ATOM     48  C   UNL     1      -3.390  22.268  23.342  0.00  0.00    +0.000 A 
ATOM     49  C   UNL     1      -3.270  21.427  22.230  0.00  0.00    +0.004 A 
ENDBRANCH  43  44
BRANCH  43  50
ATOM     50  C   UNL     1      -3.894  19.403  20.086  0.00  0.00    -0.039 A 
ATOM     51  C   UNL     1      -5.191  18.866  20.151  0.00  0.00    +0.004 A 
ATOM     52  C   UNL     1      -6.065  18.989  19.066  0.00  0.00    +0.000 A 
ATOM     53  C   UNL     1      -5.668  19.669  17.917  0.00  0.00    +0.000 A 
ATOM     54  C   UNL     1      -4.403  20.238  17.852  0.00  0.00    +0.000 A 
ATOM     55  C   UNL     1      -3.524  20.106  18.927  0.00  0.00    +0.004 A 
ENDBRANCH  43  50
ENDBRANCH  38  43
ENDBRANCH  37  38
ENDBRANCH  35  37
ENDBRANCH  31  33
ENDBRANCH  30  31
ENDBRANCH   1  30
TORSDOF 20
