REMARK VINA RESULT:    -5.729     13.639     15.056
REMARK INTER + INTRA:         -16.157
REMARK INTER:                 -13.941
REMARK INTRA:                  -2.216
REMARK UNBOUND:                -2.725
REMARK  Name = lig_assembled_30.pdb
REMARK  27 active torsions:
REMARK  status: ('A' for Active; 'I' for Inactive)
REMARK    1  A    between atoms: _2  and  _9
REMARK    2  A    between atoms: _4  and  _25
REMARK    3  A    between atoms: _5  and  _18
REMARK    4  A    between atoms: _5  and  _19
REMARK    5  A    between atoms: _6  and  _7
REMARK    6  A    between atoms: _6  and  _25
REMARK    7  A    between atoms: _9  and  _10
REMARK    8  A    between atoms: _10  and  _11
REMARK    9  A    between atoms: _11  and  _12
REMARK   10  A    between atoms: _12  and  _13
REMARK   11  A    between atoms: _13  and  _14
REMARK   12  A    between atoms: _14  and  _15
REMARK   13  A    between atoms: _15  and  _16
REMARK   14  A    between atoms: _16  and  _17
REMARK   15  A    between atoms: _17  and  _18
REMARK   16  A    between atoms: _21  and  _41
REMARK   17  A    between atoms: _23  and  _29
REMARK   18  A    between atoms: _24  and  _28
REMARK   19  A    between atoms: _28  and  _29
REMARK   20  A    between atoms: _31  and  _32
REMARK   21  A    between atoms: _33  and  _34
REMARK   22  A    between atoms: _35  and  _37
REMARK   23  A    between atoms: _37  and  _38
REMARK   24  A    between atoms: _37  and  _39
REMARK   25  A    between atoms: _39  and  _40
REMARK   26  A    between atoms: _39  and  _41
REMARK   27  A    between atoms: _42  and  _44
REMARK                            x       y       z     vdW  Elec       q    Type
REMARK                         _______ _______ _______ _____ _____    ______ ____
ROOT
ATOM      1  C   UNL     1       2.975   3.192  33.740  0.00  0.00    +0.401 C 
ATOM      2  O   UNL     1       2.652   2.216  34.421  0.00  0.00    -0.226 OA
ATOM      3  N   UNL     1       4.236   3.524  33.465  0.00  0.00    -0.279 N 
ATOM      4  H   UNL     1       4.401   4.338  32.889  0.00  0.00    +0.152 HD
ENDROOT
BRANCH   1   5
ATOM      5  O   UNL     1       1.951   4.031  33.199  0.00  0.00    -0.444 OA
BRANCH   5   6
ATOM      6  C   UNL     1       0.962   3.224  32.554  0.00  0.00    +0.292 C 
BRANCH   6   8
ATOM      7  N   UNL     1       0.088   4.091  30.407  0.00  0.00    -0.131 NA
ATOM      8  C   UNL     1       1.043   3.386  31.092  0.00  0.00    +0.120 A 
ATOM      9  C   UNL     1       1.983   2.918  30.201  0.00  0.00    +0.137 A 
ATOM     10  N   UNL     1       1.541   3.370  28.995  0.00  0.00    -0.251 N 
ATOM     11  N   UNL     1       0.404   4.073  29.118  0.00  0.00    -0.065 NA
BRANCH  10  12
ATOM     12  C   UNL     1       2.123   3.138  27.691  0.00  0.00    +0.145 C 
BRANCH  12  13
ATOM     13  C   UNL     1       1.216   3.657  26.581  0.00  0.00    +0.023 C 
BRANCH  13  14
ATOM     14  C   UNL     1       1.498   2.974  25.244  0.00  0.00    +0.002 C 
BRANCH  14  15
ATOM     15  C   UNL     1       2.270   3.918  24.323  0.00  0.00    +0.000 C 
BRANCH  15  16
ATOM     16  C   UNL     1       1.427   5.120  23.907  0.00  0.00    +0.000 C 
BRANCH  16  17
ATOM     17  C   UNL     1       1.364   5.238  22.383  0.00  0.00    +0.000 C 
BRANCH  17  18
ATOM     18  C   UNL     1       1.825   3.944  21.717  0.00  0.00    +0.000 C 
BRANCH  18  19
ATOM     19  C   UNL     1       1.849   4.071  20.194  0.00  0.00    +0.001 C 
BRANCH  19  20
ATOM     20  C   UNL     1       1.471   2.742  19.542  0.00  0.00    +0.011 C 
BRANCH  20  21
ATOM     21  C   UNL     1       0.903   2.938  18.139  0.00  0.00    +0.120 C 
BRANCH  21  22
ATOM     22  C   UNL     1      -0.015   1.802  17.750  0.00  0.00    +0.305 C 
ATOM     23  O   UNL     1       0.049   1.162  16.712  0.00  0.00    -0.251 OA
BRANCH  22  24
ATOM     24  O   UNL     1      -0.950   1.550  18.694  0.00  0.00    -0.481 OA
ATOM     25  H   UNL     1      -0.576   1.333  19.569  0.00  0.00    +0.295 HD
ENDBRANCH  22  24
ENDBRANCH  21  22
ENDBRANCH  20  21
ENDBRANCH  19  20
ENDBRANCH  18  19
ENDBRANCH  17  18
ENDBRANCH  16  17
ENDBRANCH  15  16
ENDBRANCH  14  15
ENDBRANCH  13  14
ENDBRANCH  12  13
ENDBRANCH  10  12
ENDBRANCH   6   8
ENDBRANCH   5   6
ENDBRANCH   1   5
BRANCH   3  26
ATOM     26  C   UNL     1       5.401   2.774  33.951  0.00  0.00    +0.141 C 
BRANCH  26  27
ATOM     27  C   UNL     1       6.531   2.752  32.928  0.00  0.00    +0.163 C 
BRANCH  27  28
ATOM     28  O   UNL     1       6.038   3.162  31.642  0.00  0.00    -0.388 OA
ATOM     29  H   UNL     1       5.770   2.389  31.140  0.00  0.00    +0.210 HD
ENDBRANCH  27  28
BRANCH  27  30
ATOM     30  C   UNL     1       7.669   3.674  33.400  0.00  0.00    +0.175 C 
BRANCH  30  31
ATOM     31  C   UNL     1       7.423   4.218  34.815  0.00  0.00    +0.176 C 
ATOM     32  O   UNL     1       7.369   5.668  34.733  0.00  0.00    -0.332 OA
ATOM     33  C   UNL     1       7.034   6.362  35.981  0.00  0.00    +0.277 C 
ATOM     34  C   UNL     1       8.002   5.937  37.112  0.00  0.00    +0.110 C 
ATOM     35  C   UNL     1       8.117   4.402  37.217  0.00  0.00    +0.143 C 
ATOM     36  C   UNL     1       8.465   3.784  35.862  0.00  0.00    +0.133 C 
BRANCH  36  37
ATOM     37  N   UNL     1       8.487   2.316  35.956  0.00  0.00    -0.308 N 
ATOM     38  H   UNL     1       7.659   1.853  36.306  0.00  0.00    +0.149 HD
ATOM     39  C   UNL     1       9.528   1.554  35.608  0.00  0.00    +0.210 C 
ATOM     40  C   UNL     1      10.783   2.291  35.103  0.00  0.00    +0.109 C 
ATOM     41  O   UNL     1       9.512   0.325  35.683  0.00  0.00    -0.276 OA
ENDBRANCH  36  37
BRANCH  33  42
ATOM     42  C   UNL     1       5.582   6.057  36.403  0.00  0.00    +0.414 C 
ATOM     43  O   UNL     1       4.715   5.867  35.551  0.00  0.00    -0.240 OA
ATOM     44  O   UNL     1       5.277   6.000  37.595  0.00  0.00    -0.240 OA
ENDBRANCH  33  42
BRANCH  35  45
ATOM     45  O   UNL     1       9.128   4.058  38.165  0.00  0.00    -0.390 OA
ATOM     46  H   UNL     1       9.690   4.820  38.325  0.00  0.00    +0.210 HD
ENDBRANCH  35  45
BRANCH  33  47
ATOM     47  O   UNL     1       7.188   7.787  35.758  0.00  0.00    -0.343 OA
ATOM     48  C   UNL     1       7.487   8.164  34.390  0.00  0.00    +0.198 C 
ENDBRANCH  33  47
ENDBRANCH  30  31
BRANCH  30  49
ATOM     49  O   UNL     1       7.843   4.763  32.472  0.00  0.00    -0.387 OA
ATOM     50  H   UNL     1       7.849   4.422  31.575  0.00  0.00    +0.210 HD
ENDBRANCH  30  49
ENDBRANCH  27  30
ENDBRANCH  26  27
ENDBRANCH   3  26
TORSDOF 25
