REMARK VINA RESULT:    -7.135      0.000      0.000
REMARK INTER + INTRA:         -15.989
REMARK INTER:                 -13.599
REMARK INTRA:                  -2.390
REMARK UNBOUND:                -2.597
REMARK  Name = lig_assembled_77.pdb
REMARK  19 active torsions:
REMARK  status: ('A' for Active; 'I' for Inactive)
REMARK    1  A    between atoms: _2  and  _10
REMARK    2  A    between atoms: _3  and  _17
REMARK    3  A    between atoms: _5  and  _27
REMARK    4  A    between atoms: _7  and  _8
REMARK    5  A    between atoms: _7  and  _27
REMARK    6  A    between atoms: _13  and  _47
REMARK    7  A    between atoms: _14  and  _47
REMARK    8  A    between atoms: _23  and  _43
REMARK    9  A    between atoms: _25  and  _31
REMARK   10  A    between atoms: _26  and  _30
REMARK   11  A    between atoms: _30  and  _31
REMARK   12  A    between atoms: _33  and  _34
REMARK   13  A    between atoms: _35  and  _36
REMARK   14  A    between atoms: _37  and  _39
REMARK   15  A    between atoms: _39  and  _40
REMARK   16  A    between atoms: _39  and  _41
REMARK   17  A    between atoms: _41  and  _42
REMARK   18  A    between atoms: _41  and  _43
REMARK   19  A    between atoms: _44  and  _46
REMARK                            x       y       z     vdW  Elec       q    Type
REMARK                         _______ _______ _______ _____ _____    ______ ____
ROOT
ATOM      1  C   UNL     1       7.314  -0.877  33.621  0.00  0.00    +0.401 C 
ATOM      2  O   UNL     1       8.092  -1.253  34.500  0.00  0.00    -0.226 OA
ATOM      3  N   UNL     1       7.418   0.289  32.982  0.00  0.00    -0.279 N 
ATOM      4  H   UNL     1       6.736   0.504  32.268  0.00  0.00    +0.152 HD
ENDROOT
BRANCH   3   5
ATOM      5  C   UNL     1       8.467   1.278  33.257  0.00  0.00    +0.141 C 
BRANCH   5   6
ATOM      6  C   UNL     1       7.947   2.442  34.093  0.00  0.00    +0.163 C 
BRANCH   6   7
ATOM      7  O   UNL     1       8.830   2.685  35.201  0.00  0.00    -0.388 OA
ATOM      8  H   UNL     1       8.604   2.097  35.926  0.00  0.00    +0.210 HD
ENDBRANCH   6   7
BRANCH   6   9
ATOM      9  C   UNL     1       7.817   3.693  33.208  0.00  0.00    +0.175 C 
BRANCH   9  10
ATOM     10  C   UNL     1       6.990   4.796  33.884  0.00  0.00    +0.176 C 
ATOM     11  O   UNL     1       7.783   5.349  34.970  0.00  0.00    -0.332 OA
ATOM     12  C   UNL     1       7.192   6.495  35.668  0.00  0.00    +0.277 C 
ATOM     13  C   UNL     1       5.775   6.142  36.183  0.00  0.00    +0.110 C 
ATOM     14  C   UNL     1       4.904   5.520  35.071  0.00  0.00    +0.143 C 
ATOM     15  C   UNL     1       5.616   4.340  34.411  0.00  0.00    +0.133 C 
BRANCH  15  16
ATOM     16  N   UNL     1       4.814   3.811  33.296  0.00  0.00    -0.308 N 
ATOM     17  H   UNL     1       4.694   4.397  32.482  0.00  0.00    +0.149 HD
ATOM     18  C   UNL     1       4.233   2.609  33.291  0.00  0.00    +0.210 C 
ATOM     19  C   UNL     1       4.412   1.751  34.558  0.00  0.00    +0.109 C 
ATOM     20  O   UNL     1       3.578   2.186  32.337  0.00  0.00    -0.276 OA
ENDBRANCH  15  16
BRANCH  12  21
ATOM     21  C   UNL     1       7.111   7.721  34.735  0.00  0.00    +0.414 C 
ATOM     22  O   UNL     1       6.018   8.139  34.353  0.00  0.00    -0.240 OA
ATOM     23  O   UNL     1       8.137   8.293  34.365  0.00  0.00    -0.240 OA
ENDBRANCH  12  21
BRANCH  14  24
ATOM     24  O   UNL     1       3.665   5.073  35.624  0.00  0.00    -0.390 OA
ATOM     25  H   UNL     1       3.019   5.782  35.580  0.00  0.00    +0.210 HD
ENDBRANCH  14  24
BRANCH  12  26
ATOM     26  O   UNL     1       8.030   6.805  36.811  0.00  0.00    -0.343 OA
ATOM     27  C   UNL     1       7.584   6.239  38.069  0.00  0.00    +0.198 C 
ENDBRANCH  12  26
ENDBRANCH   9  10
BRANCH   9  28
ATOM     28  O   UNL     1       7.235   3.344  31.937  0.00  0.00    -0.387 OA
ATOM     29  H   UNL     1       7.587   2.500  31.644  0.00  0.00    +0.210 HD
ENDBRANCH   9  28
ENDBRANCH   6   9
ENDBRANCH   5   6
ENDBRANCH   3   5
BRANCH   1  30
ATOM     30  O   UNL     1       6.229  -1.729  33.244  0.00  0.00    -0.444 OA
BRANCH  30  31
ATOM     31  C   UNL     1       6.700  -2.731  32.340  0.00  0.00    +0.292 C 
BRANCH  31  33
ATOM     32  N   UNL     1       7.358  -2.489  29.969  0.00  0.00    -0.131 NA
ATOM     33  C   UNL     1       6.416  -2.344  30.945  0.00  0.00    +0.121 A 
ATOM     34  C   UNL     1       5.271  -1.818  30.391  0.00  0.00    +0.143 A 
ATOM     35  N   UNL     1       5.561  -1.665  29.054  0.00  0.00    -0.220 N 
ATOM     36  N   UNL     1       6.836  -2.066  28.826  0.00  0.00    -0.060 NA
BRANCH  35  37
ATOM     37  C   UNL     1       4.711  -1.234  28.001  0.00  0.00    +0.067 A 
ATOM     38  C   UNL     1       3.532  -0.522  28.273  0.00  0.00    +0.030 A 
ATOM     39  C   UNL     1       2.647  -0.212  27.236  0.00  0.00    +0.029 A 
ATOM     40  C   UNL     1       2.944  -0.608  25.930  0.00  0.00    +0.094 A 
ATOM     41  C   UNL     1       4.157  -1.235  25.635  0.00  0.00    +0.029 A 
ATOM     42  C   UNL     1       5.035  -1.559  26.673  0.00  0.00    +0.030 A 
BRANCH  40  43
ATOM     43  S   UNL     1       1.782  -0.273  24.621  0.00  0.00    +0.025 S 
ATOM     44  O   UNL     1       2.263  -0.999  23.458  0.00  0.00    -0.164 OA
ATOM     45  O   UNL     1       0.453  -0.517  25.149  0.00  0.00    -0.164 OA
BRANCH  43  46
ATOM     46  C   UNL     1       1.851   1.461  24.219  0.00  0.00    +0.094 A 
ATOM     47  C   UNL     1       1.870   2.431  25.221  0.00  0.00    +0.029 A 
ATOM     48  C   UNL     1       1.862   3.786  24.868  0.00  0.00    +0.024 A 
ATOM     49  C   UNL     1       1.882   4.183  23.525  0.00  0.00    +0.025 A 
ATOM     50  C   UNL     1       1.832   3.197  22.535  0.00  0.00    +0.024 A 
ATOM     51  C   UNL     1       1.838   1.841  22.873  0.00  0.00    +0.029 A 
BRANCH  49  52
ATOM     52  N   UNL     1       1.701   5.527  23.186  0.00  0.00    -0.358 N 
ATOM     53  H   UNL     1       2.545   6.008  22.892  0.00  0.00    +0.142 HD
ATOM     54  H   UNL     1       0.918   5.701  22.565  0.00  0.00    +0.142 HD
ENDBRANCH  49  52
ENDBRANCH  43  46
ENDBRANCH  40  43
ENDBRANCH  35  37
ENDBRANCH  31  33
ENDBRANCH  30  31
ENDBRANCH   1  30
TORSDOF 17
