REMARK VINA RESULT:    -5.911      4.343      7.290
REMARK INTER + INTRA:         -14.109
REMARK INTER:                 -11.416
REMARK INTRA:                  -2.694
REMARK UNBOUND:                -3.014
REMARK  Name = lig_assembled_75.pdb
REMARK  19 active torsions:
REMARK  status: ('A' for Active; 'I' for Inactive)
REMARK    1  A    between atoms: _2  and  _9
REMARK    2  A    between atoms: _4  and  _23
REMARK    3  A    between atoms: _6  and  _7
REMARK    4  A    between atoms: _6  and  _23
REMARK    5  A    between atoms: _11  and  _12
REMARK    6  A    between atoms: _13  and  _14
REMARK    7  A    between atoms: _14  and  _17
REMARK    8  A    between atoms: _19  and  _39
REMARK    9  A    between atoms: _21  and  _27
REMARK   10  A    between atoms: _22  and  _26
REMARK   11  A    between atoms: _26  and  _27
REMARK   12  A    between atoms: _29  and  _30
REMARK   13  A    between atoms: _31  and  _32
REMARK   14  A    between atoms: _33  and  _35
REMARK   15  A    between atoms: _35  and  _36
REMARK   16  A    between atoms: _35  and  _37
REMARK   17  A    between atoms: _37  and  _38
REMARK   18  A    between atoms: _37  and  _39
REMARK   19  A    between atoms: _40  and  _42
REMARK                            x       y       z     vdW  Elec       q    Type
REMARK                         _______ _______ _______ _____ _____    ______ ____
ROOT
ATOM      1  C   UNL     1       8.408   1.900  35.260  0.00  0.00    +0.141 C 
ENDROOT
BRANCH   1   4
ATOM      2  C   UNL     1       8.396  -0.571  35.261  0.00  0.00    +0.401 C 
ATOM      3  O   UNL     1       9.522  -0.670  35.755  0.00  0.00    -0.226 OA
ATOM      4  N   UNL     1       7.800   0.591  34.991  0.00  0.00    -0.279 N 
ATOM      5  H   UNL     1       6.879   0.569  34.577  0.00  0.00    +0.152 HD
BRANCH   2   6
ATOM      6  O   UNL     1       7.668  -1.761  34.949  0.00  0.00    -0.444 OA
BRANCH   6   7
ATOM      7  C   UNL     1       8.315  -2.448  33.874  0.00  0.00    +0.292 C 
BRANCH   7   9
ATOM      8  N   UNL     1       6.926  -0.942  32.488  0.00  0.00    -0.131 NA
ATOM      9  C   UNL     1       7.740  -2.033  32.580  0.00  0.00    +0.121 A 
ATOM     10  C   UNL     1       7.884  -2.595  31.333  0.00  0.00    +0.143 A 
ATOM     11  N   UNL     1       7.129  -1.805  30.497  0.00  0.00    -0.220 N 
ATOM     12  N   UNL     1       6.557  -0.810  31.221  0.00  0.00    -0.060 NA
BRANCH  11  13
ATOM     13  C   UNL     1       6.900  -1.946  29.104  0.00  0.00    +0.068 A 
ATOM     14  C   UNL     1       5.700  -1.465  28.553  0.00  0.00    +0.035 A 
ATOM     15  C   UNL     1       5.411  -1.647  27.192  0.00  0.00    -0.023 A 
ATOM     16  C   UNL     1       6.371  -2.259  26.377  0.00  0.00    +0.008 A 
ATOM     17  C   UNL     1       7.575  -2.718  26.916  0.00  0.00    +0.003 A 
ATOM     18  C   UNL     1       7.838  -2.572  28.277  0.00  0.00    +0.028 A 
BRANCH  15  19
ATOM     19  C   UNL     1       4.148  -1.199  26.586  0.00  0.00    +0.015 C 
ATOM     20  C   UNL     1       3.816  -1.419  25.303  0.00  0.00    +0.092 C 
BRANCH  20  21
ATOM     21  C   UNL     1       2.548  -0.884  24.774  0.00  0.00    +0.330 C 
ATOM     22  O   UNL     1       1.562  -0.643  25.446  0.00  0.00    -0.246 OA
BRANCH  21  23
ATOM     23  O   UNL     1       2.606  -0.675  23.443  0.00  0.00    -0.478 OA
ATOM     24  H   UNL     1       3.057   0.142  23.164  0.00  0.00    +0.295 HD
ENDBRANCH  21  23
ENDBRANCH  20  21
ENDBRANCH  15  19
ENDBRANCH  11  13
ENDBRANCH   7   9
ENDBRANCH   6   7
ENDBRANCH   2   6
ENDBRANCH   1   4
BRANCH   1  25
ATOM     25  C   UNL     1       8.670   2.680  33.976  0.00  0.00    +0.163 C 
BRANCH  25  26
ATOM     26  O   UNL     1       8.305   1.886  32.835  0.00  0.00    -0.388 OA
ATOM     27  H   UNL     1       7.826   2.431  32.205  0.00  0.00    +0.210 HD
ENDBRANCH  25  26
BRANCH  25  28
ATOM     28  C   UNL     1       7.878   3.998  34.005  0.00  0.00    +0.175 C 
BRANCH  28  29
ATOM     29  C   UNL     1       6.469   3.813  34.588  0.00  0.00    +0.176 C 
ATOM     30  O   UNL     1       5.664   3.114  33.600  0.00  0.00    -0.332 OA
ATOM     31  C   UNL     1       4.309   2.753  34.026  0.00  0.00    +0.277 C 
ATOM     32  C   UNL     1       3.549   4.005  34.529  0.00  0.00    +0.110 C 
ATOM     33  C   UNL     1       4.379   4.800  35.559  0.00  0.00    +0.143 C 
ATOM     34  C   UNL     1       5.771   5.119  35.013  0.00  0.00    +0.133 C 
BRANCH  34  35
ATOM     35  N   UNL     1       6.582   5.799  36.035  0.00  0.00    -0.308 N 
ATOM     36  H   UNL     1       6.689   5.345  36.932  0.00  0.00    +0.149 HD
ATOM     37  C   UNL     1       7.185   6.977  35.856  0.00  0.00    +0.210 C 
ATOM     38  C   UNL     1       6.982   7.655  34.488  0.00  0.00    +0.109 C 
ATOM     39  O   UNL     1       7.871   7.517  36.725  0.00  0.00    -0.276 OA
ENDBRANCH  34  35
BRANCH  31  40
ATOM     40  C   UNL     1       4.351   1.692  35.145  0.00  0.00    +0.414 C 
ATOM     41  O   UNL     1       5.000   0.657  34.994  0.00  0.00    -0.240 OA
ATOM     42  O   UNL     1       3.738   1.871  36.198  0.00  0.00    -0.240 OA
ENDBRANCH  31  40
BRANCH  31  43
ATOM     43  O   UNL     1       3.603   2.221  32.875  0.00  0.00    -0.343 OA
ATOM     44  C   UNL     1       2.857   3.200  32.109  0.00  0.00    +0.198 C 
ENDBRANCH  31  43
BRANCH  33  45
ATOM     45  O   UNL     1       3.709   6.019  35.880  0.00  0.00    -0.390 OA
ATOM     46  H   UNL     1       2.759   5.876  35.869  0.00  0.00    +0.210 HD
ENDBRANCH  33  45
ENDBRANCH  28  29
BRANCH  28  47
ATOM     47  O   UNL     1       7.797   4.558  32.679  0.00  0.00    -0.387 OA
ATOM     48  H   UNL     1       7.558   5.486  32.737  0.00  0.00    +0.210 HD
ENDBRANCH  28  47
ENDBRANCH  25  28
ENDBRANCH   1  25
TORSDOF 17
