REMARK VINA RESULT:    -6.091     14.093     15.436
REMARK INTER + INTRA:         -12.954
REMARK INTER:                 -11.039
REMARK INTRA:                  -1.915
REMARK UNBOUND:                -2.413
REMARK  Name = lig_assembled_8.pdb
REMARK  16 active torsions:
REMARK  status: ('A' for Active; 'I' for Inactive)
REMARK    1  A    between atoms: _2  and  _9
REMARK    2  A    between atoms: _4  and  _18
REMARK    3  A    between atoms: _6  and  _7
REMARK    4  A    between atoms: _6  and  _18
REMARK    5  A    between atoms: _14  and  _34
REMARK    6  A    between atoms: _16  and  _22
REMARK    7  A    between atoms: _17  and  _21
REMARK    8  A    between atoms: _21  and  _22
REMARK    9  A    between atoms: _24  and  _25
REMARK   10  A    between atoms: _26  and  _27
REMARK   11  A    between atoms: _28  and  _30
REMARK   12  A    between atoms: _30  and  _31
REMARK   13  A    between atoms: _30  and  _32
REMARK   14  A    between atoms: _32  and  _33
REMARK   15  A    between atoms: _32  and  _34
REMARK   16  A    between atoms: _35  and  _37
REMARK                            x       y       z     vdW  Elec       q    Type
REMARK                         _______ _______ _______ _____ _____    ______ ____
ROOT
ATOM      1  C   UNL     1      18.790  10.245  29.206  0.00  0.00    +0.163 C 
ENDROOT
BRANCH   1   2
ATOM      2  O   UNL     1      17.511  10.890  29.096  0.00  0.00    -0.388 OA
ATOM      3  H   UNL     1      17.439  11.314  28.237  0.00  0.00    +0.210 HD
ENDBRANCH   1   2
BRANCH   1   4
ATOM      4  C   UNL     1      19.387  10.030  27.819  0.00  0.00    +0.141 C 
BRANCH   4   7
ATOM      5  C   UNL     1      19.519   8.087  26.298  0.00  0.00    +0.401 C 
ATOM      6  O   UNL     1      20.678   8.322  25.947  0.00  0.00    -0.226 OA
ATOM      7  N   UNL     1      18.837   8.837  27.164  0.00  0.00    -0.279 N 
ATOM      8  H   UNL     1      17.887   8.570  27.382  0.00  0.00    +0.152 HD
BRANCH   5   9
ATOM      9  O   UNL     1      18.845   6.950  25.753  0.00  0.00    -0.444 OA
BRANCH   9  10
ATOM     10  C   UNL     1      18.730   7.097  24.335  0.00  0.00    +0.292 C 
BRANCH  10  12
ATOM     11  N   UNL     1      17.260   5.867  22.780  0.00  0.00    -0.131 NA
ATOM     12  C   UNL     1      18.231   5.848  23.731  0.00  0.00    +0.121 A 
ATOM     13  C   UNL     1      18.601   4.543  23.963  0.00  0.00    +0.143 A 
ATOM     14  N   UNL     1      17.831   3.782  23.100  0.00  0.00    -0.219 N 
ATOM     15  N   UNL     1      17.023   4.617  22.411  0.00  0.00    -0.060 NA
BRANCH  14  16
ATOM     16  C   UNL     1      17.857   2.364  22.914  0.00  0.00    +0.081 A 
ATOM     17  C   UNL     1      18.356   1.863  21.691  0.00  0.00    +0.029 A 
ATOM     18  C   UNL     1      18.394   0.492  21.422  0.00  0.00    +0.002 A 
ATOM     19  C   UNL     1      17.936  -0.412  22.368  0.00  0.00    +0.001 A 
ATOM     20  C   UNL     1      17.446   0.056  23.583  0.00  0.00    +0.017 A 
ATOM     21  C   UNL     1      17.403   1.435  23.871  0.00  0.00    +0.043 A 
ATOM     22 BR   UNL     1      16.699   1.829  25.598  0.00  0.00    -0.048 Br
ENDBRANCH  14  16
ENDBRANCH  10  12
ENDBRANCH   9  10
ENDBRANCH   5   9
ENDBRANCH   4   7
ENDBRANCH   1   4
BRANCH   1  23
ATOM     23  C   UNL     1      18.664   8.891  29.926  0.00  0.00    +0.175 C 
BRANCH  23  24
ATOM     24  C   UNL     1      17.913   9.014  31.260  0.00  0.00    +0.176 C 
ATOM     25  O   UNL     1      18.179  10.337  31.802  0.00  0.00    -0.332 OA
ATOM     26  C   UNL     1      17.456  10.676  33.031  0.00  0.00    +0.277 C 
ATOM     27  C   UNL     1      17.707   9.604  34.120  0.00  0.00    +0.110 C 
ATOM     28  C   UNL     1      17.468   8.178  33.581  0.00  0.00    +0.143 C 
ATOM     29  C   UNL     1      18.266   7.934  32.300  0.00  0.00    +0.133 C 
BRANCH  29  30
ATOM     30  N   UNL     1      17.963   6.604  31.748  0.00  0.00    -0.308 N 
ATOM     31  H   UNL     1      17.048   6.458  31.346  0.00  0.00    +0.149 HD
ATOM     32  C   UNL     1      18.818   5.578  31.745  0.00  0.00    +0.210 C 
ATOM     33  C   UNL     1      20.195   5.826  32.389  0.00  0.00    +0.109 C 
ATOM     34  O   UNL     1      18.542   4.479  31.263  0.00  0.00    -0.276 OA
ENDBRANCH  29  30
BRANCH  26  35
ATOM     35  C   UNL     1      15.941  10.790  32.761  0.00  0.00    +0.414 C 
ATOM     36  O   UNL     1      15.131  10.320  33.559  0.00  0.00    -0.240 OA
ATOM     37  O   UNL     1      15.529  11.352  31.745  0.00  0.00    -0.240 OA
ENDBRANCH  26  35
BRANCH  28  38
ATOM     38  O   UNL     1      17.856   7.219  34.566  0.00  0.00    -0.390 OA
ATOM     39  H   UNL     1      18.393   6.537  34.156  0.00  0.00    +0.210 HD
ENDBRANCH  28  38
BRANCH  26  40
ATOM     40  O   UNL     1      17.963  11.946  33.515  0.00  0.00    -0.343 OA
ATOM     41  C   UNL     1      17.820  12.159  34.942  0.00  0.00    +0.198 C 
ENDBRANCH  26  40
ENDBRANCH  23  24
BRANCH  23  42
ATOM     42  O   UNL     1      19.969   8.319  30.141  0.00  0.00    -0.387 OA
ATOM     43  H   UNL     1      20.582   9.010  30.405  0.00  0.00    +0.210 HD
ENDBRANCH  23  42
ENDBRANCH   1  23
TORSDOF 14
