REMARK VINA RESULT:    -5.400      7.368     12.823
REMARK INTER + INTRA:         -13.411
REMARK INTER:                 -10.975
REMARK INTRA:                  -2.437
REMARK UNBOUND:                -2.172
REMARK  Name = lig_assembled_54.pdb
REMARK  24 active torsions:
REMARK  status: ('A' for Active; 'I' for Inactive)
REMARK    1  A    between atoms: _2  and  _9
REMARK    2  A    between atoms: _4  and  _21
REMARK    3  A    between atoms: _5  and  _14
REMARK    4  A    between atoms: _6  and  _7
REMARK    5  A    between atoms: _6  and  _21
REMARK    6  A    between atoms: _9  and  _10
REMARK    7  A    between atoms: _10  and  _11
REMARK    8  A    between atoms: _11  and  _15
REMARK    9  A    between atoms: _11  and  _16
REMARK   10  A    between atoms: _12  and  _13
REMARK   11  A    between atoms: _12  and  _16
REMARK   12  A    between atoms: _14  and  _15
REMARK   13  A    between atoms: _17  and  _37
REMARK   14  A    between atoms: _19  and  _25
REMARK   15  A    between atoms: _20  and  _24
REMARK   16  A    between atoms: _24  and  _25
REMARK   17  A    between atoms: _27  and  _28
REMARK   18  A    between atoms: _29  and  _30
REMARK   19  A    between atoms: _31  and  _33
REMARK   20  A    between atoms: _33  and  _34
REMARK   21  A    between atoms: _33  and  _35
REMARK   22  A    between atoms: _35  and  _36
REMARK   23  A    between atoms: _35  and  _37
REMARK   24  A    between atoms: _38  and  _40
REMARK                            x       y       z     vdW  Elec       q    Type
REMARK                         _______ _______ _______ _____ _____    ______ ____
ROOT
ATOM      1  C   UNL     1       8.868   2.832  34.009  0.00  0.00    +0.163 C 
ENDROOT
BRANCH   1   2
ATOM      2  O   UNL     1       8.351   1.745  33.224  0.00  0.00    -0.388 OA
ATOM      3  H   UNL     1       8.647   1.836  32.316  0.00  0.00    +0.210 HD
ENDBRANCH   1   2
BRANCH   1   4
ATOM      4  C   UNL     1       7.947   4.061  33.921  0.00  0.00    +0.175 C 
BRANCH   4   5
ATOM      5  C   UNL     1       6.574   3.802  34.558  0.00  0.00    +0.176 C 
ATOM      6  O   UNL     1       5.797   2.993  33.632  0.00  0.00    -0.332 OA
ATOM      7  C   UNL     1       4.486   2.555  34.120  0.00  0.00    +0.277 C 
ATOM      8  C   UNL     1       3.647   3.771  34.584  0.00  0.00    +0.110 C 
ATOM      9  C   UNL     1       4.443   4.677  35.547  0.00  0.00    +0.143 C 
ATOM     10  C   UNL     1       5.791   5.071  34.941  0.00  0.00    +0.133 C 
BRANCH  10  11
ATOM     11  N   UNL     1       6.576   5.862  35.901  0.00  0.00    -0.308 N 
ATOM     12  H   UNL     1       6.777   5.448  36.801  0.00  0.00    +0.149 HD
ATOM     13  C   UNL     1       7.040   7.092  35.662  0.00  0.00    +0.210 C 
ATOM     14  C   UNL     1       6.695   7.705  34.292  0.00  0.00    +0.109 C 
ATOM     15  O   UNL     1       7.708   7.725  36.480  0.00  0.00    -0.276 OA
ENDBRANCH  10  11
BRANCH   7  16
ATOM     16  C   UNL     1       4.642   1.559  35.288  0.00  0.00    +0.414 C 
ATOM     17  O   UNL     1       5.617   0.810  35.338  0.00  0.00    -0.240 OA
ATOM     18  O   UNL     1       3.794   1.505  36.179  0.00  0.00    -0.240 OA
ENDBRANCH   7  16
BRANCH   9  19
ATOM     19  O   UNL     1       3.691   5.858  35.829  0.00  0.00    -0.390 OA
ATOM     20  H   UNL     1       2.755   5.644  35.852  0.00  0.00    +0.210 HD
ENDBRANCH   9  19
BRANCH   7  21
ATOM     21  O   UNL     1       3.790   1.913  33.020  0.00  0.00    -0.343 OA
ATOM     22  C   UNL     1       4.640   1.481  31.927  0.00  0.00    +0.198 C 
ENDBRANCH   7  21
ENDBRANCH   4   5
BRANCH   4  23
ATOM     23  O   UNL     1       7.788   4.466  32.546  0.00  0.00    -0.387 OA
ATOM     24  H   UNL     1       8.282   5.275  32.391  0.00  0.00    +0.210 HD
ENDBRANCH   4  23
ENDBRANCH   1   4
BRANCH   1  25
ATOM     25  C   UNL     1       9.009   2.404  35.466  0.00  0.00    +0.141 C 
BRANCH  25  28
ATOM     26  C   UNL     1      10.212   4.051  36.861  0.00  0.00    +0.401 C 
ATOM     27  O   UNL     1       9.201   4.705  37.126  0.00  0.00    -0.226 OA
ATOM     28  N   UNL     1      10.215   2.964  36.087  0.00  0.00    -0.279 N 
ATOM     29  H   UNL     1      11.097   2.501  35.919  0.00  0.00    +0.152 HD
BRANCH  26  30
ATOM     30  O   UNL     1      11.470   4.466  37.400  0.00  0.00    -0.444 OA
BRANCH  30  31
ATOM     31  C   UNL     1      12.504   3.603  36.920  0.00  0.00    +0.292 C 
BRANCH  31  33
ATOM     32  N   UNL     1      13.721   3.971  34.795  0.00  0.00    -0.131 NA
ATOM     33  C   UNL     1      13.447   4.364  36.078  0.00  0.00    +0.120 A 
ATOM     34  C   UNL     1      14.157   5.511  36.360  0.00  0.00    +0.137 A 
ATOM     35  N   UNL     1      14.811   5.787  35.198  0.00  0.00    -0.251 N 
ATOM     36  N   UNL     1      14.553   4.856  34.261  0.00  0.00    -0.065 NA
BRANCH  35  37
ATOM     37  C   UNL     1      15.641   6.932  34.882  0.00  0.00    +0.150 C 
BRANCH  37  38
ATOM     38  C   UNL     1      16.052   6.943  33.418  0.00  0.00    +0.084 C 
BRANCH  38  39
ATOM     39  C   UNL     1      16.953   8.126  33.046  0.00  0.00    +0.252 C 
BRANCH  39  40
ATOM     40  O   UNL     1      16.626   9.266  33.844  0.00  0.00    -0.352 OA
BRANCH  40  41
ATOM     41  C   UNL     1      15.875  10.264  33.155  0.00  0.00    +0.159 C 
ATOM     42  C   UNL     1      16.673  11.552  33.139  0.00  0.00    +0.034 C 
ENDBRANCH  40  41
ENDBRANCH  39  40
BRANCH  39  43
ATOM     43  O   UNL     1      16.732   8.422  31.662  0.00  0.00    -0.352 OA
BRANCH  43  44
ATOM     44  C   UNL     1      17.950   8.635  30.946  0.00  0.00    +0.159 C 
ATOM     45  C   UNL     1      18.575   7.293  30.621  0.00  0.00    +0.034 C 
ENDBRANCH  43  44
ENDBRANCH  39  43
ENDBRANCH  38  39
ENDBRANCH  37  38
ENDBRANCH  35  37
ENDBRANCH  31  33
ENDBRANCH  30  31
ENDBRANCH  26  30
ENDBRANCH  25  28
ENDBRANCH   1  25
TORSDOF 20
