REMARK VINA RESULT:    -6.685      0.000      0.000
REMARK INTER + INTRA:         -16.402
REMARK INTER:                 -13.877
REMARK INTRA:                  -2.525
REMARK UNBOUND:                -3.269
REMARK  Name = lig_assembled_84.pdb
REMARK  21 active torsions:
REMARK  status: ('A' for Active; 'I' for Inactive)
REMARK    1  A    between atoms: _2  and  _11
REMARK    2  A    between atoms: _3  and  _14
REMARK    3  A    between atoms: _4  and  _17
REMARK    4  A    between atoms: _6  and  _28
REMARK    5  A    between atoms: _8  and  _9
REMARK    6  A    between atoms: _8  and  _28
REMARK    7  A    between atoms: _11  and  _12
REMARK    8  A    between atoms: _12  and  _13
REMARK    9  A    between atoms: _12  and  _14
REMARK   10  A    between atoms: _24  and  _44
REMARK   11  A    between atoms: _26  and  _32
REMARK   12  A    between atoms: _27  and  _31
REMARK   13  A    between atoms: _31  and  _32
REMARK   14  A    between atoms: _34  and  _35
REMARK   15  A    between atoms: _36  and  _37
REMARK   16  A    between atoms: _38  and  _40
REMARK   17  A    between atoms: _40  and  _41
REMARK   18  A    between atoms: _40  and  _42
REMARK   19  A    between atoms: _42  and  _43
REMARK   20  A    between atoms: _42  and  _44
REMARK   21  A    between atoms: _45  and  _47
REMARK                            x       y       z     vdW  Elec       q    Type
REMARK                         _______ _______ _______ _____ _____    ______ ____
ROOT
ATOM      1  C   UNL     1       6.547  -0.638  33.182  0.00  0.00    +0.401 C 
ATOM      2  O   UNL     1       7.325  -1.330  33.842  0.00  0.00    -0.226 OA
ATOM      3  N   UNL     1       6.743   0.653  32.912  0.00  0.00    -0.279 N 
ATOM      4  H   UNL     1       6.052   1.134  32.353  0.00  0.00    +0.152 HD
ENDROOT
BRANCH   1   5
ATOM      5  O   UNL     1       5.357  -1.236  32.660  0.00  0.00    -0.444 OA
BRANCH   5   6
ATOM      6  C   UNL     1       4.212  -0.553  33.178  0.00  0.00    +0.292 C 
BRANCH   6   8
ATOM      7  N   UNL     1       4.120   0.527  30.949  0.00  0.00    -0.131 NA
ATOM      8  C   UNL     1       3.483   0.138  32.099  0.00  0.00    +0.120 A 
ATOM      9  C   UNL     1       2.165   0.533  32.038  0.00  0.00    +0.137 A 
ATOM     10  N   UNL     1       2.080   1.212  30.860  0.00  0.00    -0.251 N 
ATOM     11  N   UNL     1       3.249   1.187  30.196  0.00  0.00    -0.065 NA
BRANCH  10  12
ATOM     12  C   UNL     1       0.973   2.015  30.376  0.00  0.00    +0.149 C 
BRANCH  12  13
ATOM     13  C   UNL     1       0.721   1.901  28.863  0.00  0.00    +0.021 C 
ATOM     14  C   UNL     1      -0.169   0.694  28.535  0.00  0.00    +0.010 C 
BRANCH  13  15
ATOM     15  C   UNL     1       0.050   3.181  28.308  0.00  0.00    +0.089 C 
BRANCH  15  16
ATOM     16  N   UNL     1       0.725   3.808  27.164  0.00  0.00    -0.299 NA
ATOM     17  C   UNL     1      -0.252   4.058  26.071  0.00  0.00    +0.103 C 
ATOM     18  C   UNL     1       0.397   4.795  24.881  0.00  0.00    +0.120 C 
ATOM     19  N   UNL     1       1.524   4.006  24.368  0.00  0.00    -0.327 N 
ATOM     20  C   UNL     1       2.527   3.653  25.382  0.00  0.00    +0.120 C 
ATOM     21  C   UNL     1       1.836   2.992  26.611  0.00  0.00    +0.103 C 
BRANCH  19  22
ATOM     22  C   UNL     1       1.654   3.676  23.039  0.00  0.00    +0.030 A 
ATOM     23  C   UNL     1       1.889   2.349  22.634  0.00  0.00    +0.024 A 
ATOM     24  C   UNL     1       2.049   1.999  21.289  0.00  0.00    +0.022 A 
ATOM     25  C   UNL     1       1.970   2.977  20.312  0.00  0.00    +0.041 A 
ATOM     26 CL   UNL     1       2.171   2.555  18.656  0.00  0.00    -0.084 Cl
ATOM     27  C   UNL     1       1.736   4.300  20.669  0.00  0.00    +0.022 A 
ATOM     28  C   UNL     1       1.583   4.639  22.021  0.00  0.00    +0.024 A 
ENDBRANCH  19  22
ENDBRANCH  15  16
ENDBRANCH  13  15
ENDBRANCH  12  13
ENDBRANCH  10  12
ENDBRANCH   6   8
ENDBRANCH   5   6
ENDBRANCH   1   5
BRANCH   3  29
ATOM     29  C   UNL     1       7.907   1.415  33.381  0.00  0.00    +0.141 C 
BRANCH  29  30
ATOM     30  C   UNL     1       7.508   2.523  34.350  0.00  0.00    +0.163 C 
BRANCH  30  31
ATOM     31  O   UNL     1       8.213   2.366  35.593  0.00  0.00    -0.388 OA
ATOM     32  H   UNL     1       7.991   3.092  36.181  0.00  0.00    +0.210 HD
ENDBRANCH  30  31
BRANCH  30  33
ATOM     33  C   UNL     1       7.807   3.893  33.717  0.00  0.00    +0.175 C 
BRANCH  33  34
ATOM     34  C   UNL     1       7.214   5.049  34.535  0.00  0.00    +0.176 C 
ATOM     35  O   UNL     1       7.973   5.160  35.770  0.00  0.00    -0.332 OA
ATOM     36  C   UNL     1       7.614   6.287  36.636  0.00  0.00    +0.277 C 
ATOM     37  C   UNL     1       6.098   6.263  36.954  0.00  0.00    +0.110 C 
ATOM     38  C   UNL     1       5.250   6.114  35.673  0.00  0.00    +0.143 C 
ATOM     39  C   UNL     1       5.712   4.914  34.846  0.00  0.00    +0.133 C 
BRANCH  39  40
ATOM     40  N   UNL     1       4.954   4.834  33.587  0.00  0.00    -0.308 N 
ATOM     41  H   UNL     1       5.144   5.527  32.877  0.00  0.00    +0.149 HD
ATOM     42  C   UNL     1       4.031   3.905  33.322  0.00  0.00    +0.210 C 
ATOM     43  C   UNL     1       3.746   2.879  34.434  0.00  0.00    +0.109 C 
ATOM     44  O   UNL     1       3.423   3.854  32.253  0.00  0.00    -0.276 OA
ENDBRANCH  39  40
BRANCH  36  45
ATOM     45  C   UNL     1       7.979   7.629  35.968  0.00  0.00    +0.414 C 
ATOM     46  O   UNL     1       8.017   7.721  34.742  0.00  0.00    -0.240 OA
ATOM     47  O   UNL     1       8.236   8.619  36.655  0.00  0.00    -0.240 OA
ENDBRANCH  36  45
BRANCH  36  48
ATOM     48  O   UNL     1       8.345   6.146  37.882  0.00  0.00    -0.343 OA
ATOM     49  C   UNL     1       7.585   5.574  38.976  0.00  0.00    +0.198 C 
ENDBRANCH  36  48
BRANCH  38  50
ATOM     50  O   UNL     1       3.876   5.944  36.023  0.00  0.00    -0.390 OA
ATOM     51  H   UNL     1       3.469   5.313  35.425  0.00  0.00    +0.210 HD
ENDBRANCH  38  50
ENDBRANCH  33  34
BRANCH  33  52
ATOM     52  O   UNL     1       7.311   3.934  32.365  0.00  0.00    -0.387 OA
ATOM     53  H   UNL     1       6.376   4.153  32.373  0.00  0.00    +0.210 HD
ENDBRANCH  33  52
ENDBRANCH  30  33
ENDBRANCH  29  30
ENDBRANCH   3  29
TORSDOF 18
