REMARK VINA RESULT:    -6.832      1.950      3.341
REMARK INTER + INTRA:         -15.711
REMARK INTER:                 -13.191
REMARK INTRA:                  -2.520
REMARK UNBOUND:                -2.090
REMARK  Name = lig_assembled_76.pdb
REMARK  21 active torsions:
REMARK  status: ('A' for Active; 'I' for Inactive)
REMARK    1  A    between atoms: _2  and  _9
REMARK    2  A    between atoms: _4  and  _23
REMARK    3  A    between atoms: _6  and  _7
REMARK    4  A    between atoms: _6  and  _23
REMARK    5  A    between atoms: _9  and  _10
REMARK    6  A    between atoms: _10  and  _11
REMARK    7  A    between atoms: _10  and  _18
REMARK    8  A    between atoms: _11  and  _12
REMARK    9  A    between atoms: _12  and  _13
REMARK   10  A    between atoms: _19  and  _39
REMARK   11  A    between atoms: _21  and  _27
REMARK   12  A    between atoms: _22  and  _26
REMARK   13  A    between atoms: _26  and  _27
REMARK   14  A    between atoms: _29  and  _30
REMARK   15  A    between atoms: _31  and  _32
REMARK   16  A    between atoms: _33  and  _35
REMARK   17  A    between atoms: _35  and  _36
REMARK   18  A    between atoms: _35  and  _37
REMARK   19  A    between atoms: _37  and  _38
REMARK   20  A    between atoms: _37  and  _39
REMARK   21  A    between atoms: _40  and  _42
REMARK                            x       y       z     vdW  Elec       q    Type
REMARK                         _______ _______ _______ _____ _____    ______ ____
ROOT
ATOM      1  C   UNL     1       6.748   2.848  32.532  0.00  0.00    +0.141 C 
ENDROOT
BRANCH   1   4
ATOM      2  C   UNL     1       4.378   2.574  31.891  0.00  0.00    +0.401 C 
ATOM      3  O   UNL     1       4.213   1.560  32.574  0.00  0.00    -0.226 OA
ATOM      4  N   UNL     1       5.532   3.237  31.809  0.00  0.00    -0.279 N 
ATOM      5  H   UNL     1       5.571   4.054  31.214  0.00  0.00    +0.152 HD
BRANCH   2   6
ATOM      6  O   UNL     1       3.280   3.086  31.131  0.00  0.00    -0.444 OA
BRANCH   6   7
ATOM      7  C   UNL     1       2.556   2.000  30.546  0.00  0.00    +0.292 C 
BRANCH   7   9
ATOM      8  N   UNL     1       1.104   3.767  29.591  0.00  0.00    -0.131 NA
ATOM      9  C   UNL     1       1.617   2.497  29.528  0.00  0.00    +0.120 A 
ATOM     10  C   UNL     1       1.099   1.856  28.424  0.00  0.00    +0.137 A 
ATOM     11  N   UNL     1       0.287   2.788  27.858  0.00  0.00    -0.249 N 
ATOM     12  N   UNL     1       0.281   3.931  28.563  0.00  0.00    -0.065 NA
BRANCH  11  13
ATOM     13  C   UNL     1      -0.607   2.617  26.735  0.00  0.00    +0.176 C 
BRANCH  13  14
ATOM     14  C   UNL     1      -0.030   3.160  25.424  0.00  0.00    +0.136 C 
BRANCH  14  15
ATOM     15  O   UNL     1       1.040   4.077  25.697  0.00  0.00    -0.390 OA
ATOM     16  H   UNL     1       0.815   4.948  25.327  0.00  0.00    +0.210 HD
ENDBRANCH  14  15
BRANCH  14  17
ATOM     17  C   UNL     1       0.535   2.049  24.526  0.00  0.00    +0.038 C 
BRANCH  17  18
ATOM     18  C   UNL     1       1.929   2.356  23.979  0.00  0.00    +0.038 C 
BRANCH  18  19
ATOM     19  C   UNL     1       1.892   2.773  22.531  0.00  0.00    -0.047 A 
ATOM     20  C   UNL     1       1.996   1.811  21.516  0.00  0.00    +0.003 A 
ATOM     21  C   UNL     1       1.944   2.191  20.175  0.00  0.00    +0.000 A 
ATOM     22  C   UNL     1       1.793   3.534  19.836  0.00  0.00    +0.000 A 
ATOM     23  C   UNL     1       1.699   4.498  20.839  0.00  0.00    +0.000 A 
ATOM     24  C   UNL     1       1.753   4.120  22.181  0.00  0.00    +0.003 A 
ENDBRANCH  18  19
ENDBRANCH  17  18
ENDBRANCH  14  17
ENDBRANCH  13  14
ENDBRANCH  11  13
ENDBRANCH   7   9
ENDBRANCH   6   7
ENDBRANCH   2   6
ENDBRANCH   1   4
BRANCH   1  25
ATOM     25  C   UNL     1       7.135   3.878  33.589  0.00  0.00    +0.163 C 
BRANCH  25  26
ATOM     26  O   UNL     1       7.755   5.014  32.964  0.00  0.00    -0.388 OA
ATOM     27  H   UNL     1       8.237   4.728  32.185  0.00  0.00    +0.210 HD
ENDBRANCH  25  26
BRANCH  25  28
ATOM     28  C   UNL     1       5.884   4.299  34.379  0.00  0.00    +0.175 C 
BRANCH  28  29
ATOM     29  C   UNL     1       6.193   5.394  35.410  0.00  0.00    +0.176 C 
ATOM     30  O   UNL     1       7.583   5.250  35.813  0.00  0.00    -0.332 OA
ATOM     31  C   UNL     1       8.090   6.282  36.721  0.00  0.00    +0.277 C 
ATOM     32  C   UNL     1       7.190   6.388  37.977  0.00  0.00    +0.110 C 
ATOM     33  C   UNL     1       5.698   6.511  37.599  0.00  0.00    +0.143 C 
ATOM     34  C   UNL     1       5.278   5.389  36.649  0.00  0.00    +0.133 C 
BRANCH  34  35
ATOM     35  N   UNL     1       3.880   5.567  36.228  0.00  0.00    -0.308 N 
ATOM     36  H   UNL     1       3.673   6.314  35.580  0.00  0.00    +0.149 HD
ATOM     37  C   UNL     1       2.865   4.805  36.646  0.00  0.00    +0.210 C 
ATOM     38  C   UNL     1       3.209   3.691  37.653  0.00  0.00    +0.109 C 
ATOM     39  O   UNL     1       1.706   4.968  36.265  0.00  0.00    -0.276 OA
ENDBRANCH  34  35
BRANCH  31  40
ATOM     40  C   UNL     1       8.151   7.652  36.014  0.00  0.00    +0.414 C 
ATOM     41  O   UNL     1       8.156   7.716  34.785  0.00  0.00    -0.240 OA
ATOM     42  O   UNL     1       8.193   8.693  36.671  0.00  0.00    -0.240 OA
ENDBRANCH  31  40
BRANCH  33  43
ATOM     43  O   UNL     1       4.896   6.453  38.780  0.00  0.00    -0.390 OA
ATOM     44  H   UNL     1       4.226   7.140  38.746  0.00  0.00    +0.210 HD
ENDBRANCH  33  43
BRANCH  31  45
ATOM     45  O   UNL     1       9.422   5.892  37.145  0.00  0.00    -0.343 OA
ATOM     46  C   UNL     1       9.527   5.478  38.531  0.00  0.00    +0.198 C 
ENDBRANCH  31  45
ENDBRANCH  28  29
BRANCH  28  47
ATOM     47  O   UNL     1       5.299   3.154  35.030  0.00  0.00    -0.387 OA
ATOM     48  H   UNL     1       5.821   2.372  34.834  0.00  0.00    +0.210 HD
ENDBRANCH  28  47
ENDBRANCH  25  28
ENDBRANCH   1  25
TORSDOF 19
