REMARK VINA RESULT:    -6.743     11.985     19.347
REMARK INTER + INTRA:         -13.518
REMARK INTER:                 -11.703
REMARK INTRA:                  -1.814
REMARK UNBOUND:                -1.847
REMARK  Name = lig_assembled_2.pdb
REMARK  16 active torsions:
REMARK  status: ('A' for Active; 'I' for Inactive)
REMARK    1  A    between atoms: _2  and  _9
REMARK    2  A    between atoms: _4  and  _18
REMARK    3  A    between atoms: _6  and  _7
REMARK    4  A    between atoms: _6  and  _18
REMARK    5  A    between atoms: _14  and  _34
REMARK    6  A    between atoms: _16  and  _22
REMARK    7  A    between atoms: _17  and  _21
REMARK    8  A    between atoms: _21  and  _22
REMARK    9  A    between atoms: _24  and  _25
REMARK   10  A    between atoms: _26  and  _27
REMARK   11  A    between atoms: _28  and  _30
REMARK   12  A    between atoms: _30  and  _31
REMARK   13  A    between atoms: _30  and  _32
REMARK   14  A    between atoms: _32  and  _33
REMARK   15  A    between atoms: _32  and  _34
REMARK   16  A    between atoms: _35  and  _37
REMARK                            x       y       z     vdW  Elec       q    Type
REMARK                         _______ _______ _______ _____ _____    ______ ____
ROOT
ATOM      1  C   UNL     1      -3.486   8.073  14.191  0.00  0.00    +0.163 C 
ENDROOT
BRANCH   1   2
ATOM      2  O   UNL     1      -4.393   8.014  15.304  0.00  0.00    -0.388 OA
ATOM      3  H   UNL     1      -3.951   7.614  16.057  0.00  0.00    +0.210 HD
ENDBRANCH   1   2
BRANCH   1   4
ATOM      4  C   UNL     1      -2.602   6.831  14.171  0.00  0.00    +0.141 C 
BRANCH   4   7
ATOM      5  C   UNL     1      -1.236   6.457  16.196  0.00  0.00    +0.401 C 
ATOM      6  O   UNL     1      -0.251   7.055  15.756  0.00  0.00    -0.226 OA
ATOM      7  N   UNL     1      -2.375   6.299  15.520  0.00  0.00    -0.279 N 
ATOM      8  H   UNL     1      -3.123   5.784  15.962  0.00  0.00    +0.152 HD
BRANCH   5   9
ATOM      9  O   UNL     1      -1.174   5.886  17.505  0.00  0.00    -0.444 OA
BRANCH   9  10
ATOM     10  C   UNL     1      -0.698   4.541  17.418  0.00  0.00    +0.292 C 
BRANCH  10  12
ATOM     11  N   UNL     1       1.506   3.886  18.335  0.00  0.00    -0.131 NA
ATOM     12  C   UNL     1       0.206   4.243  18.546  0.00  0.00    +0.121 A 
ATOM     13  C   UNL     1      -0.039   4.270  19.900  0.00  0.00    +0.143 A 
ATOM     14  N   UNL     1       1.164   3.946  20.484  0.00  0.00    -0.220 N 
ATOM     15  N   UNL     1       2.079   3.700  19.516  0.00  0.00    -0.060 NA
BRANCH  14  16
ATOM     16  C   UNL     1       1.494   3.886  21.864  0.00  0.00    +0.067 A 
ATOM     17  C   UNL     1       1.789   2.663  22.482  0.00  0.00    +0.029 A 
ATOM     18  C   UNL     1       2.075   2.621  23.851  0.00  0.00    +0.022 A 
ATOM     19  C   UNL     1       2.067   3.795  24.602  0.00  0.00    +0.041 A 
ATOM     20 CL   UNL     1       2.397   3.730  26.289  0.00  0.00    -0.084 Cl
ATOM     21  C   UNL     1       1.789   5.017  23.995  0.00  0.00    +0.022 A 
ATOM     22  C   UNL     1       1.504   5.066  22.627  0.00  0.00    +0.029 A 
ENDBRANCH  14  16
ENDBRANCH  10  12
ENDBRANCH   9  10
ENDBRANCH   5   9
ENDBRANCH   4   7
ENDBRANCH   1   4
BRANCH   1  23
ATOM     23  C   UNL     1      -2.603   9.331  14.268  0.00  0.00    +0.175 C 
BRANCH  23  24
ATOM     24  C   UNL     1      -3.077  10.429  13.305  0.00  0.00    +0.176 C 
ATOM     25  O   UNL     1      -1.912  10.940  12.601  0.00  0.00    -0.332 OA
ATOM     26  C   UNL     1      -2.186  11.930  11.555  0.00  0.00    +0.277 C 
ATOM     27  C   UNL     1      -3.008  13.110  12.130  0.00  0.00    +0.110 C 
ATOM     28  C   UNL     1      -4.241  12.615  12.915  0.00  0.00    +0.143 C 
ATOM     29  C   UNL     1      -3.841  11.587  13.974  0.00  0.00    +0.133 C 
BRANCH  29  30
ATOM     30  N   UNL     1      -5.034  11.059  14.656  0.00  0.00    -0.308 N 
ATOM     31  H   UNL     1      -5.666  10.481  14.120  0.00  0.00    +0.149 HD
ATOM     32  C   UNL     1      -5.334  11.294  15.936  0.00  0.00    +0.210 C 
ATOM     33  C   UNL     1      -4.364  12.200  16.717  0.00  0.00    +0.109 C 
ATOM     34  O   UNL     1      -6.333  10.827  16.485  0.00  0.00    -0.276 OA
ENDBRANCH  29  30
BRANCH  26  35
ATOM     35  C   UNL     1      -2.956  11.288  10.382  0.00  0.00    +0.414 C 
ATOM     36  O   UNL     1      -3.825  11.925   9.789  0.00  0.00    -0.240 OA
ATOM     37  O   UNL     1      -2.708  10.135  10.030  0.00  0.00    -0.240 OA
ENDBRANCH  26  35
BRANCH  28  38
ATOM     38  O   UNL     1      -4.882  13.721  13.552  0.00  0.00    -0.390 OA
ATOM     39  H   UNL     1      -4.278  14.124  14.180  0.00  0.00    +0.210 HD
ENDBRANCH  28  38
BRANCH  26  40
ATOM     40  O   UNL     1      -0.916  12.446  11.081  0.00  0.00    -0.343 OA
ATOM     41  C   UNL     1      -0.714  13.866  11.295  0.00  0.00    +0.198 C 
ENDBRANCH  26  40
ENDBRANCH  23  24
BRANCH  23  42
ATOM     42  O   UNL     1      -1.229   8.990  13.996  0.00  0.00    -0.387 OA
ATOM     43  H   UNL     1      -0.970   8.244  14.541  0.00  0.00    +0.210 HD
ENDBRANCH  23  42
ENDBRANCH   1  23
TORSDOF 14
