REMARK VINA RESULT:    -5.684      6.261      9.908
REMARK INTER + INTRA:         -13.307
REMARK INTER:                  -9.518
REMARK INTRA:                  -3.788
REMARK UNBOUND:                -2.970
REMARK  Name = lig_assembled_22.pdb
REMARK  20 active torsions:
REMARK  status: ('A' for Active; 'I' for Inactive)
REMARK    1  A    between atoms: _2  and  _9
REMARK    2  A    between atoms: _4  and  _18
REMARK    3  A    between atoms: _5  and  _9
REMARK    4  A    between atoms: _5  and  _12
REMARK    5  A    between atoms: _6  and  _7
REMARK    6  A    between atoms: _6  and  _18
REMARK    7  A    between atoms: _9  and  _10
REMARK    8  A    between atoms: _9  and  _11
REMARK    9  A    between atoms: _14  and  _34
REMARK   10  A    between atoms: _16  and  _22
REMARK   11  A    between atoms: _17  and  _21
REMARK   12  A    between atoms: _21  and  _22
REMARK   13  A    between atoms: _24  and  _25
REMARK   14  A    between atoms: _26  and  _27
REMARK   15  A    between atoms: _28  and  _30
REMARK   16  A    between atoms: _30  and  _31
REMARK   17  A    between atoms: _30  and  _32
REMARK   18  A    between atoms: _32  and  _33
REMARK   19  A    between atoms: _32  and  _34
REMARK   20  A    between atoms: _35  and  _37
REMARK                            x       y       z     vdW  Elec       q    Type
REMARK                         _______ _______ _______ _____ _____    ______ ____
ROOT
ATOM      1  C   UNL     1      21.669   1.014  22.896  0.00  0.00    +0.163 C 
ENDROOT
BRANCH   1   2
ATOM      2  O   UNL     1      21.029   1.285  21.639  0.00  0.00    -0.388 OA
ATOM      3  H   UNL     1      21.308   2.145  21.315  0.00  0.00    +0.210 HD
ENDBRANCH   1   2
BRANCH   1   4
ATOM      4  C   UNL     1      22.098  -0.448  22.959  0.00  0.00    +0.141 C 
BRANCH   4   7
ATOM      5  C   UNL     1      20.446  -2.280  23.109  0.00  0.00    +0.401 C 
ATOM      6  O   UNL     1      20.660  -2.501  24.303  0.00  0.00    -0.226 OA
ATOM      7  N   UNL     1      21.077  -1.343  22.400  0.00  0.00    -0.279 N 
ATOM      8  H   UNL     1      20.840  -1.243  21.423  0.00  0.00    +0.152 HD
BRANCH   5   9
ATOM      9  O   UNL     1      19.469  -3.065  22.421  0.00  0.00    -0.444 OA
BRANCH   9  10
ATOM     10  C   UNL     1      18.241  -2.338  22.341  0.00  0.00    +0.292 C 
BRANCH  10  12
ATOM     11  N   UNL     1      16.258  -1.983  23.768  0.00  0.00    -0.131 NA
ATOM     12  C   UNL     1      17.327  -2.758  23.419  0.00  0.00    +0.120 A 
ATOM     13  C   UNL     1      17.344  -3.883  24.215  0.00  0.00    +0.138 A 
ATOM     14  N   UNL     1      16.257  -3.734  25.031  0.00  0.00    -0.235 N 
ATOM     15  N   UNL     1      15.613  -2.584  24.755  0.00  0.00    -0.064 NA
BRANCH  14  16
ATOM     16  C   UNL     1      15.772  -4.608  26.101  0.00  0.00    +0.155 C 
ATOM     17  C   UNL     1      16.916  -5.404  26.766  0.00  0.00    +0.048 C 
ATOM     18  C   UNL     1      14.766  -5.609  25.503  0.00  0.00    +0.048 C 
BRANCH  16  19
ATOM     19  C   UNL     1      15.089  -3.782  27.194  0.00  0.00    +0.332 C 
ATOM     20  O   UNL     1      13.920  -3.925  27.534  0.00  0.00    -0.248 OA
BRANCH  19  21
ATOM     21  O   UNL     1      15.870  -2.850  27.791  0.00  0.00    -0.479 OA
ATOM     22  H   UNL     1      15.409  -2.163  28.309  0.00  0.00    +0.295 HD
ENDBRANCH  19  21
ENDBRANCH  16  19
ENDBRANCH  14  16
ENDBRANCH  10  12
ENDBRANCH   9  10
ENDBRANCH   5   9
ENDBRANCH   4   7
ENDBRANCH   1   4
BRANCH   1  23
ATOM     23  C   UNL     1      20.726   1.324  24.072  0.00  0.00    +0.175 C 
BRANCH  23  24
ATOM     24  C   UNL     1      19.264   1.454  23.620  0.00  0.00    +0.176 C 
ATOM     25  O   UNL     1      19.063   2.813  23.143  0.00  0.00    -0.332 OA
ATOM     26  C   UNL     1      17.743   3.095  22.569  0.00  0.00    +0.277 C 
ATOM     27  C   UNL     1      16.626   2.723  23.574  0.00  0.00    +0.110 C 
ATOM     28  C   UNL     1      16.815   1.297  24.134  0.00  0.00    +0.143 C 
ATOM     29  C   UNL     1      18.222   1.113  24.703  0.00  0.00    +0.133 C 
BRANCH  29  30
ATOM     30  N   UNL     1      18.418  -0.274  25.153  0.00  0.00    -0.308 N 
ATOM     31  H   UNL     1      18.509  -0.991  24.447  0.00  0.00    +0.149 HD
ATOM     32  C   UNL     1      18.484  -0.647  26.434  0.00  0.00    +0.210 C 
ATOM     33  C   UNL     1      18.315   0.466  27.486  0.00  0.00    +0.109 C 
ATOM     34  O   UNL     1      18.663  -1.814  26.783  0.00  0.00    -0.276 OA
ENDBRANCH  29  30
BRANCH  26  35
ATOM     35  C   UNL     1      17.539   2.310  21.257  0.00  0.00    +0.414 C 
ATOM     36  O   UNL     1      16.412   2.188  20.777  0.00  0.00    -0.240 OA
ATOM     37  O   UNL     1      18.499   1.800  20.678  0.00  0.00    -0.240 OA
ENDBRANCH  26  35
BRANCH  26  38
ATOM     38  O   UNL     1      17.664   4.519  22.304  0.00  0.00    -0.343 OA
ATOM     39  C   UNL     1      18.278   5.364  23.310  0.00  0.00    +0.198 C 
ENDBRANCH  26  38
BRANCH  28  40
ATOM     40  O   UNL     1      15.856   1.053  25.164  0.00  0.00    -0.390 OA
ATOM     41  H   UNL     1      15.621   0.122  25.170  0.00  0.00    +0.210 HD
ENDBRANCH  28  40
ENDBRANCH  23  24
BRANCH  23  42
ATOM     42  O   UNL     1      21.148   2.527  24.743  0.00  0.00    -0.387 OA
ATOM     43  H   UNL     1      21.560   3.120  24.110  0.00  0.00    +0.210 HD
ENDBRANCH  23  42
ENDBRANCH   1  23
TORSDOF 16
