REMARK VINA RESULT:    -6.064     20.551     24.418
REMARK INTER + INTRA:         -15.009
REMARK INTER:                 -11.845
REMARK INTRA:                  -3.164
REMARK UNBOUND:                -2.564
REMARK  Name = lig_assembled_74.pdb
REMARK  24 active torsions:
REMARK  status: ('A' for Active; 'I' for Inactive)
REMARK    1  A    between atoms: _2  and  _9
REMARK    2  A    between atoms: _4  and  _22
REMARK    3  A    between atoms: _5  and  _14
REMARK    4  A    between atoms: _6  and  _7
REMARK    5  A    between atoms: _6  and  _22
REMARK    6  A    between atoms: _9  and  _10
REMARK    7  A    between atoms: _10  and  _11
REMARK    8  A    between atoms: _10  and  _13
REMARK    9  A    between atoms: _11  and  _12
REMARK   10  A    between atoms: _12  and  _16
REMARK   11  A    between atoms: _13  and  _14
REMARK   12  A    between atoms: _14  and  _15
REMARK   13  A    between atoms: _18  and  _38
REMARK   14  A    between atoms: _20  and  _26
REMARK   15  A    between atoms: _21  and  _25
REMARK   16  A    between atoms: _25  and  _26
REMARK   17  A    between atoms: _28  and  _29
REMARK   18  A    between atoms: _30  and  _31
REMARK   19  A    between atoms: _32  and  _34
REMARK   20  A    between atoms: _34  and  _35
REMARK   21  A    between atoms: _34  and  _36
REMARK   22  A    between atoms: _36  and  _37
REMARK   23  A    between atoms: _36  and  _38
REMARK   24  A    between atoms: _39  and  _41
REMARK                            x       y       z     vdW  Elec       q    Type
REMARK                         _______ _______ _______ _____ _____    ______ ____
ROOT
ATOM      1  C   UNL     1      -5.348   7.154  17.627  0.00  0.00    +0.163 C 
ENDROOT
BRANCH   1   2
ATOM      2  O   UNL     1      -5.554   6.200  16.572  0.00  0.00    -0.388 OA
ATOM      3  H   UNL     1      -6.485   5.971  16.524  0.00  0.00    +0.210 HD
ENDBRANCH   1   2
BRANCH   1   4
ATOM      4  C   UNL     1      -5.130   8.566  17.056  0.00  0.00    +0.175 C 
BRANCH   4   5
ATOM      5  C   UNL     1      -4.268   8.550  15.786  0.00  0.00    +0.176 C 
ATOM      6  O   UNL     1      -3.121   7.691  16.035  0.00  0.00    -0.332 OA
ATOM      7  C   UNL     1      -2.234   7.470  14.889  0.00  0.00    +0.277 C 
ATOM      8  C   UNL     1      -1.758   8.822  14.303  0.00  0.00    +0.110 C 
ATOM      9  C   UNL     1      -2.941   9.781  14.051  0.00  0.00    +0.143 C 
ATOM     10  C   UNL     1      -3.799   9.937  15.307  0.00  0.00    +0.133 C 
BRANCH  10  11
ATOM     11  N   UNL     1      -4.970  10.783  15.030  0.00  0.00    -0.308 N 
ATOM     12  H   UNL     1      -5.690  10.409  14.428  0.00  0.00    +0.149 HD
ATOM     13  C   UNL     1      -5.143  12.013  15.522  0.00  0.00    +0.210 C 
ATOM     14  C   UNL     1      -4.016  12.564  16.415  0.00  0.00    +0.109 C 
ATOM     15  O   UNL     1      -6.142  12.693  15.284  0.00  0.00    -0.276 OA
ENDBRANCH  10  11
BRANCH   7  16
ATOM     16  C   UNL     1      -2.952   6.657  13.791  0.00  0.00    +0.414 C 
ATOM     17  O   UNL     1      -3.839   5.859  14.090  0.00  0.00    -0.240 OA
ATOM     18  O   UNL     1      -2.643   6.798  12.607  0.00  0.00    -0.240 OA
ENDBRANCH   7  16
BRANCH   9  19
ATOM     19  O   UNL     1      -2.447  11.062  13.657  0.00  0.00    -0.390 OA
ATOM     20  H   UNL     1      -1.519  11.134  13.892  0.00  0.00    +0.210 HD
ENDBRANCH   9  19
BRANCH   7  21
ATOM     21  O   UNL     1      -1.071   6.739  15.356  0.00  0.00    -0.343 OA
ATOM     22  C   UNL     1      -1.194   6.179  16.688  0.00  0.00    +0.198 C 
ENDBRANCH   7  21
ENDBRANCH   4   5
BRANCH   4  23
ATOM     23  O   UNL     1      -4.530   9.418  18.053  0.00  0.00    -0.387 OA
ATOM     24  H   UNL     1      -4.091  10.155  17.622  0.00  0.00    +0.210 HD
ENDBRANCH   4  23
ENDBRANCH   1   4
BRANCH   1  25
ATOM     25  C   UNL     1      -6.550   7.163  18.564  0.00  0.00    +0.141 C 
BRANCH  25  28
ATOM     26  C   UNL     1      -5.634   7.262  20.857  0.00  0.00    +0.401 C 
ATOM     27  O   UNL     1      -5.285   8.441  20.767  0.00  0.00    -0.226 OA
ATOM     28  N   UNL     1      -6.228   6.584  19.874  0.00  0.00    -0.279 N 
ATOM     29  H   UNL     1      -6.468   5.617  20.040  0.00  0.00    +0.152 HD
BRANCH  26  30
ATOM     30  O   UNL     1      -5.396   6.558  22.079  0.00  0.00    -0.444 OA
BRANCH  30  31
ATOM     31  C   UNL     1      -4.989   5.219  21.786  0.00  0.00    +0.292 C 
BRANCH  31  33
ATOM     32  N   UNL     1      -2.736   6.068  22.393  0.00  0.00    -0.131 NA
ATOM     33  C   UNL     1      -3.518   5.101  21.818  0.00  0.00    +0.120 A 
ATOM     34  C   UNL     1      -2.714   4.062  21.402  0.00  0.00    +0.137 A 
ATOM     35  N   UNL     1      -1.489   4.378  21.918  0.00  0.00    -0.251 N 
ATOM     36  N   UNL     1      -1.486   5.624  22.426  0.00  0.00    -0.065 NA
BRANCH  35  37
ATOM     37  C   UNL     1      -0.418   3.457  22.246  0.00  0.00    +0.149 C 
BRANCH  37  38
ATOM     38  C   UNL     1       0.924   3.713  21.527  0.00  0.00    +0.021 C 
BRANCH  38  39
ATOM     39  C   UNL     1       1.788   4.795  22.206  0.00  0.00    +0.125 C 
BRANCH  39  40
ATOM     40  C   UNL     1       1.726   4.799  23.720  0.00  0.00    +0.305 C 
ATOM     41  O   UNL     1       2.283   3.990  24.444  0.00  0.00    -0.251 OA
BRANCH  40  42
ATOM     42  O   UNL     1       1.037   5.843  24.215  0.00  0.00    -0.481 OA
ATOM     43  H   UNL     1       0.615   5.694  25.081  0.00  0.00    +0.295 HD
ENDBRANCH  40  42
ENDBRANCH  39  40
ENDBRANCH  38  39
BRANCH  38  44
ATOM     44  C   UNL     1       0.649   4.008  20.023  0.00  0.00    +0.009 C 
BRANCH  44  45
ATOM     45  C   UNL     1       0.995   2.872  19.038  0.00  0.00    -0.017 C 
ATOM     46  C   UNL     1       0.720   3.262  17.584  0.00  0.00    +0.007 C 
ATOM     47  C   UNL     1       2.468   2.471  19.176  0.00  0.00    +0.007 C 
ENDBRANCH  44  45
ENDBRANCH  38  44
ENDBRANCH  37  38
ENDBRANCH  35  37
ENDBRANCH  31  33
ENDBRANCH  30  31
ENDBRANCH  26  30
ENDBRANCH  25  28
ENDBRANCH   1  25
TORSDOF 20
