REMARK VINA RESULT:    -5.797     14.266     15.685
REMARK INTER + INTRA:         -14.298
REMARK INTER:                 -12.355
REMARK INTRA:                  -1.943
REMARK UNBOUND:                -3.588
REMARK  Name = lig_assembled_58.pdb
REMARK  18 active torsions:
REMARK  status: ('A' for Active; 'I' for Inactive)
REMARK    1  A    between atoms: _2  and  _9
REMARK    2  A    between atoms: _4  and  _25
REMARK    3  A    between atoms: _6  and  _7
REMARK    4  A    between atoms: _6  and  _25
REMARK    5  A    between atoms: _9  and  _10
REMARK    6  A    between atoms: _9  and  _16
REMARK    7  A    between atoms: _21  and  _41
REMARK    8  A    between atoms: _23  and  _29
REMARK    9  A    between atoms: _24  and  _28
REMARK   10  A    between atoms: _28  and  _29
REMARK   11  A    between atoms: _31  and  _32
REMARK   12  A    between atoms: _33  and  _34
REMARK   13  A    between atoms: _35  and  _37
REMARK   14  A    between atoms: _37  and  _38
REMARK   15  A    between atoms: _37  and  _39
REMARK   16  A    between atoms: _39  and  _40
REMARK   17  A    between atoms: _39  and  _41
REMARK   18  A    between atoms: _42  and  _44
REMARK                            x       y       z     vdW  Elec       q    Type
REMARK                         _______ _______ _______ _____ _____    ______ ____
ROOT
ATOM      1  C   UNL     1       1.473   2.945  32.691  0.00  0.00    +0.141 C 
ENDROOT
BRANCH   1   4
ATOM      2  C   UNL     1       0.654   4.026  30.625  0.00  0.00    +0.401 C 
ATOM      3  O   UNL     1       0.783   5.172  31.061  0.00  0.00    -0.226 OA
ATOM      4  N   UNL     1       0.946   2.926  31.320  0.00  0.00    -0.279 N 
ATOM      5  H   UNL     1       0.798   2.029  30.879  0.00  0.00    +0.152 HD
BRANCH   2   6
ATOM      6  O   UNL     1       0.159   3.840  29.296  0.00  0.00    -0.444 OA
BRANCH   6   7
ATOM      7  C   UNL     1       0.741   2.663  28.729  0.00  0.00    +0.292 C 
BRANCH   7   9
ATOM      8  N   UNL     1       2.193   3.963  27.188  0.00  0.00    -0.131 NA
ATOM      9  C   UNL     1       1.287   2.957  27.392  0.00  0.00    +0.120 A 
ATOM     10  C   UNL     1       1.053   2.318  26.196  0.00  0.00    +0.138 A 
ATOM     11  N   UNL     1       1.958   2.873  25.333  0.00  0.00    -0.240 N 
ATOM     12  N   UNL     1       2.584   3.919  25.920  0.00  0.00    -0.064 NA
BRANCH  11  13
ATOM     13  C   UNL     1       2.320   2.462  23.965  0.00  0.00    +0.169 C 
BRANCH  13  14
ATOM     14  C   UNL     1       2.249   0.933  23.842  0.00  0.00    -0.019 A 
ATOM     15  C   UNL     1       1.173   0.328  23.170  0.00  0.00    +0.006 A 
ATOM     16  C   UNL     1       1.069  -1.064  23.102  0.00  0.00    +0.000 A 
ATOM     17  C   UNL     1       2.041  -1.873  23.690  0.00  0.00    +0.000 A 
ATOM     18  C   UNL     1       3.112  -1.293  24.361  0.00  0.00    +0.000 A 
ATOM     19  C   UNL     1       3.208   0.095  24.446  0.00  0.00    +0.006 A 
ENDBRANCH  13  14
BRANCH  13  20
ATOM     20  C   UNL     1       1.546   3.234  22.888  0.00  0.00    -0.019 A 
ATOM     21  C   UNL     1       0.455   4.056  23.224  0.00  0.00    +0.006 A 
ATOM     22  C   UNL     1      -0.248   4.755  22.239  0.00  0.00    +0.000 A 
ATOM     23  C   UNL     1       0.139   4.665  20.905  0.00  0.00    +0.000 A 
ATOM     24  C   UNL     1       1.247   3.904  20.557  0.00  0.00    +0.000 A 
ATOM     25  C   UNL     1       1.953   3.212  21.539  0.00  0.00    +0.006 A 
ENDBRANCH  13  20
ENDBRANCH  11  13
ENDBRANCH   7   9
ENDBRANCH   6   7
ENDBRANCH   2   6
ENDBRANCH   1   4
BRANCH   1  26
ATOM     26  C   UNL     1       2.864   2.328  32.774  0.00  0.00    +0.163 C 
BRANCH  26  27
ATOM     27  O   UNL     1       3.042   1.371  31.717  0.00  0.00    -0.388 OA
ATOM     28  H   UNL     1       3.980   1.234  31.563  0.00  0.00    +0.210 HD
ENDBRANCH  26  27
BRANCH  26  29
ATOM     29  C   UNL     1       3.926   3.439  32.695  0.00  0.00    +0.175 C 
BRANCH  29  30
ATOM     30  C   UNL     1       4.538   3.753  34.068  0.00  0.00    +0.176 C 
ATOM     31  O   UNL     1       4.815   5.179  34.118  0.00  0.00    -0.332 OA
ATOM     32  C   UNL     1       5.309   5.684  35.403  0.00  0.00    +0.277 C 
ATOM     33  C   UNL     1       6.562   4.891  35.850  0.00  0.00    +0.110 C 
ATOM     34  C   UNL     1       6.325   3.367  35.783  0.00  0.00    +0.143 C 
ATOM     35  C   UNL     1       5.810   2.953  34.404  0.00  0.00    +0.133 C 
BRANCH  35  36
ATOM     36  N   UNL     1       5.506   1.513  34.380  0.00  0.00    -0.308 N 
ATOM     37  H   UNL     1       4.698   1.193  34.894  0.00  0.00    +0.149 HD
ATOM     38  C   UNL     1       6.228   0.602  33.721  0.00  0.00    +0.210 C 
ATOM     39  C   UNL     1       7.468   1.119  32.968  0.00  0.00    +0.109 C 
ATOM     40  O   UNL     1       5.941  -0.595  33.706  0.00  0.00    -0.276 OA
ENDBRANCH  35  36
BRANCH  32  41
ATOM     41  C   UNL     1       4.218   5.579  36.488  0.00  0.00    +0.414 C 
ATOM     42  O   UNL     1       3.028   5.618  36.177  0.00  0.00    -0.240 OA
ATOM     43  O   UNL     1       4.527   5.454  37.674  0.00  0.00    -0.240 OA
ENDBRANCH  32  41
BRANCH  34  44
ATOM     44  O   UNL     1       7.546   2.678  36.056  0.00  0.00    -0.390 OA
ATOM     45  H   UNL     1       7.366   1.743  36.178  0.00  0.00    +0.210 HD
ENDBRANCH  34  44
BRANCH  32  46
ATOM     46  O   UNL     1       5.687   7.073  35.224  0.00  0.00    -0.343 OA
ATOM     47  C   UNL     1       7.084   7.291  34.902  0.00  0.00    +0.198 C 
ENDBRANCH  32  46
ENDBRANCH  29  30
BRANCH  29  48
ATOM     48  O   UNL     1       3.354   4.631  32.121  0.00  0.00    -0.387 OA
ATOM     49  H   UNL     1       3.990   5.039  31.530  0.00  0.00    +0.210 HD
ENDBRANCH  29  48
ENDBRANCH  26  29
ENDBRANCH   1  26
TORSDOF 16
