REMARK VINA RESULT:    -5.557      7.075     11.055
REMARK INTER + INTRA:         -12.494
REMARK INTER:                 -10.211
REMARK INTRA:                  -2.283
REMARK UNBOUND:                -1.902
REMARK  Name = lig_assembled_13.pdb
REMARK  20 active torsions:
REMARK  status: ('A' for Active; 'I' for Inactive)
REMARK    1  A    between atoms: _2  and  _9
REMARK    2  A    between atoms: _4  and  _18
REMARK    3  A    between atoms: _5  and  _11
REMARK    4  A    between atoms: _6  and  _7
REMARK    5  A    between atoms: _6  and  _18
REMARK    6  A    between atoms: _9  and  _10
REMARK    7  A    between atoms: _10  and  _12
REMARK    8  A    between atoms: _11  and  _12
REMARK    9  A    between atoms: _14  and  _34
REMARK   10  A    between atoms: _16  and  _22
REMARK   11  A    between atoms: _17  and  _21
REMARK   12  A    between atoms: _21  and  _22
REMARK   13  A    between atoms: _24  and  _25
REMARK   14  A    between atoms: _26  and  _27
REMARK   15  A    between atoms: _28  and  _30
REMARK   16  A    between atoms: _30  and  _31
REMARK   17  A    between atoms: _30  and  _32
REMARK   18  A    between atoms: _32  and  _33
REMARK   19  A    between atoms: _32  and  _34
REMARK   20  A    between atoms: _35  and  _37
REMARK                            x       y       z     vdW  Elec       q    Type
REMARK                         _______ _______ _______ _____ _____    ______ ____
ROOT
ATOM      1  C   UNL     1       1.237   3.605  22.946  0.00  0.00    +0.163 C 
ENDROOT
BRANCH   1   2
ATOM      2  O   UNL     1       1.856   2.318  23.108  0.00  0.00    -0.388 OA
ATOM      3  H   UNL     1       2.203   2.021  22.264  0.00  0.00    +0.210 HD
ENDBRANCH   1   2
BRANCH   1   4
ATOM      4  C   UNL     1       1.370   4.445  24.228  0.00  0.00    +0.175 C 
BRANCH   4   5
ATOM      5  C   UNL     1       0.378   4.004  25.314  0.00  0.00    +0.176 C 
ATOM      6  O   UNL     1       0.882   2.776  25.908  0.00  0.00    -0.332 OA
ATOM      7  C   UNL     1       0.114   2.259  27.044  0.00  0.00    +0.277 C 
ATOM      8  C   UNL     1      -1.374   2.079  26.654  0.00  0.00    +0.110 C 
ATOM      9  C   UNL     1      -1.946   3.348  25.989  0.00  0.00    +0.143 C 
ATOM     10  C   UNL     1      -1.067   3.800  24.822  0.00  0.00    +0.133 C 
BRANCH  10  11
ATOM     11  N   UNL     1      -1.574   5.058  24.252  0.00  0.00    -0.308 N 
ATOM     12  H   UNL     1      -1.491   5.896  24.810  0.00  0.00    +0.149 HD
ATOM     13  C   UNL     1      -2.136   5.165  23.045  0.00  0.00    +0.210 C 
ATOM     14  C   UNL     1      -2.271   3.866  22.229  0.00  0.00    +0.109 C 
ATOM     15  O   UNL     1      -2.539   6.235  22.587  0.00  0.00    -0.276 OA
ENDBRANCH  10  11
BRANCH   7  16
ATOM     16  C   UNL     1       0.218   3.211  28.253  0.00  0.00    +0.414 C 
ATOM     17  O   UNL     1       1.299   3.714  28.555  0.00  0.00    -0.240 OA
ATOM     18  O   UNL     1      -0.779   3.477  28.926  0.00  0.00    -0.240 OA
ENDBRANCH   7  16
BRANCH   7  19
ATOM     19  O   UNL     1       0.654   0.960  27.398  0.00  0.00    -0.343 OA
ATOM     20  C   UNL     1       1.849   0.575  26.671  0.00  0.00    +0.198 C 
ENDBRANCH   7  19
BRANCH   9  21
ATOM     21  O   UNL     1      -3.266   3.088  25.510  0.00  0.00    -0.390 OA
ATOM     22  H   UNL     1      -3.329   2.175  25.223  0.00  0.00    +0.210 HD
ENDBRANCH   9  21
ENDBRANCH   4   5
BRANCH   4  23
ATOM     23  O   UNL     1       1.187   5.843  23.927  0.00  0.00    -0.387 OA
ATOM     24  H   UNL     1       0.875   6.301  24.710  0.00  0.00    +0.210 HD
ENDBRANCH   4  23
ENDBRANCH   1   4
BRANCH   1  25
ATOM     25  C   UNL     1       1.880   4.350  21.780  0.00  0.00    +0.141 C 
BRANCH  25  28
ATOM     26  C   UNL     1       1.454   3.017  19.743  0.00  0.00    +0.401 C 
ATOM     27  O   UNL     1       2.304   2.164  20.009  0.00  0.00    -0.226 OA
ATOM     28  N   UNL     1       1.194   4.076  20.511  0.00  0.00    -0.279 N 
ATOM     29  H   UNL     1       0.485   4.726  20.203  0.00  0.00    +0.152 HD
BRANCH  26  30
ATOM     30  O   UNL     1       0.692   2.887  18.540  0.00  0.00    -0.444 OA
BRANCH  30  31
ATOM     31  C   UNL     1      -0.656   3.298  18.781  0.00  0.00    +0.292 C 
BRANCH  31  33
ATOM     32  N   UNL     1      -2.262   4.967  17.909  0.00  0.00    -0.131 NA
ATOM     33  C   UNL     1      -0.979   4.495  17.985  0.00  0.00    +0.120 A 
ATOM     34  C   UNL     1      -0.158   5.297  17.230  0.00  0.00    +0.137 A 
ATOM     35  N   UNL     1      -1.011   6.200  16.664  0.00  0.00    -0.241 N 
ATOM     36  N   UNL     1      -2.265   6.029  17.111  0.00  0.00    -0.065 NA
BRANCH  35  37
ATOM     37  C   UNL     1      -0.694   7.301  15.782  0.00  0.00    +0.265 C 
BRANCH  37  38
ATOM     38  C   UNL     1      -1.709   7.455  14.686  0.00  0.00    +0.329 C 
ATOM     39  O   UNL     1      -1.891   6.689  13.751  0.00  0.00    -0.249 OA
BRANCH  38  40
ATOM     40  O   UNL     1      -2.342   8.657  14.833  0.00  0.00    -0.464 OA
BRANCH  40  41
ATOM     41  C   UNL     1      -3.768   8.577  14.974  0.00  0.00    +0.229 C 
ATOM     42  C   UNL     1      -4.145   9.250  16.282  0.00  0.00    +0.048 C 
ENDBRANCH  40  41
ENDBRANCH  38  40
ENDBRANCH  37  38
ENDBRANCH  35  37
ENDBRANCH  31  33
ENDBRANCH  30  31
ENDBRANCH  26  30
ENDBRANCH  25  28
ENDBRANCH   1  25
TORSDOF 17
