REMARK VINA RESULT:    -5.874      6.545     11.716
REMARK INTER + INTRA:         -13.289
REMARK INTER:                 -11.585
REMARK INTRA:                  -1.705
REMARK UNBOUND:                -2.094
REMARK  Name = lig_assembled_19.pdb
REMARK  20 active torsions:
REMARK  status: ('A' for Active; 'I' for Inactive)
REMARK    1  A    between atoms: _2  and  _9
REMARK    2  A    between atoms: _4  and  _18
REMARK    3  A    between atoms: _5  and  _11
REMARK    4  A    between atoms: _6  and  _7
REMARK    5  A    between atoms: _6  and  _18
REMARK    6  A    between atoms: _9  and  _10
REMARK    7  A    between atoms: _10  and  _13
REMARK    8  A    between atoms: _11  and  _13
REMARK    9  A    between atoms: _14  and  _34
REMARK   10  A    between atoms: _16  and  _22
REMARK   11  A    between atoms: _17  and  _21
REMARK   12  A    between atoms: _21  and  _22
REMARK   13  A    between atoms: _24  and  _25
REMARK   14  A    between atoms: _26  and  _27
REMARK   15  A    between atoms: _28  and  _30
REMARK   16  A    between atoms: _30  and  _31
REMARK   17  A    between atoms: _30  and  _32
REMARK   18  A    between atoms: _32  and  _33
REMARK   19  A    between atoms: _32  and  _34
REMARK   20  A    between atoms: _35  and  _37
REMARK                            x       y       z     vdW  Elec       q    Type
REMARK                         _______ _______ _______ _____ _____    ______ ____
ROOT
ATOM      1  C   UNL     1       7.092   2.226  34.221  0.00  0.00    +0.163 C 
ENDROOT
BRANCH   1   2
ATOM      2  O   UNL     1       6.996   2.295  35.653  0.00  0.00    -0.388 OA
ATOM      3  H   UNL     1       6.161   2.702  35.899  0.00  0.00    +0.210 HD
ENDBRANCH   1   2
BRANCH   1   4
ATOM      4  C   UNL     1       7.579   3.564  33.638  0.00  0.00    +0.175 C 
BRANCH   4   5
ATOM      5  C   UNL     1       6.996   4.769  34.390  0.00  0.00    +0.176 C 
ATOM      6  O   UNL     1       7.723   4.910  35.641  0.00  0.00    -0.332 OA
ATOM      7  C   UNL     1       7.372   6.080  36.451  0.00  0.00    +0.277 C 
ATOM      8  C   UNL     1       5.848   6.111  36.725  0.00  0.00    +0.110 C 
ATOM      9  C   UNL     1       5.032   5.933  35.427  0.00  0.00    +0.143 C 
ATOM     10  C   UNL     1       5.482   4.687  34.662  0.00  0.00    +0.133 C 
BRANCH  10  11
ATOM     11  N   UNL     1       4.758   4.576  33.386  0.00  0.00    -0.308 N 
ATOM     12  H   UNL     1       4.976   5.245  32.661  0.00  0.00    +0.149 HD
ATOM     13  C   UNL     1       3.833   3.649  33.124  0.00  0.00    +0.210 C 
ATOM     14  C   UNL     1       3.506   2.661  34.259  0.00  0.00    +0.109 C 
ATOM     15  O   UNL     1       3.253   3.571  32.040  0.00  0.00    -0.276 OA
ENDBRANCH  10  11
BRANCH   7  16
ATOM     16  C   UNL     1       7.794   7.383  35.740  0.00  0.00    +0.414 C 
ATOM     17  O   UNL     1       8.954   7.784  35.819  0.00  0.00    -0.240 OA
ATOM     18  O   UNL     1       6.975   8.033  35.089  0.00  0.00    -0.240 OA
ENDBRANCH   7  16
BRANCH   9  19
ATOM     19  O   UNL     1       3.644   5.815  35.742  0.00  0.00    -0.390 OA
ATOM     20  H   UNL     1       3.149   6.486  35.266  0.00  0.00    +0.210 HD
ENDBRANCH   9  19
BRANCH   7  21
ATOM     21  O   UNL     1       8.063   5.971  37.722  0.00  0.00    -0.343 OA
ATOM     22  C   UNL     1       8.901   4.797  37.864  0.00  0.00    +0.198 C 
ENDBRANCH   7  21
ENDBRANCH   4   5
BRANCH   4  23
ATOM     23  O   UNL     1       7.248   3.645  32.237  0.00  0.00    -0.387 OA
ATOM     24  H   UNL     1       7.737   2.975  31.753  0.00  0.00    +0.210 HD
ENDBRANCH   4  23
ENDBRANCH   1   4
BRANCH   1  25
ATOM     25  C   UNL     1       8.054   1.114  33.816  0.00  0.00    +0.141 C 
BRANCH  25  28
ATOM     26  C   UNL     1      10.239   1.676  34.823  0.00  0.00    +0.401 C 
ATOM     27  O   UNL     1       9.891   1.386  35.970  0.00  0.00    -0.226 OA
ATOM     28  N   UNL     1       9.443   1.585  33.757  0.00  0.00    -0.279 N 
ATOM     29  H   UNL     1       9.817   1.856  32.858  0.00  0.00    +0.152 HD
BRANCH  26  30
ATOM     30  O   UNL     1      11.571   2.145  34.599  0.00  0.00    -0.444 OA
BRANCH  30  31
ATOM     31  C   UNL     1      12.112   2.651  35.823  0.00  0.00    +0.292 C 
BRANCH  31  33
ATOM     32  N   UNL     1      13.754   3.767  34.340  0.00  0.00    -0.131 NA
ATOM     33  C   UNL     1      13.113   3.698  35.550  0.00  0.00    +0.120 A 
ATOM     34  C   UNL     1      13.568   4.716  36.357  0.00  0.00    +0.137 A 
ATOM     35  N   UNL     1      14.489   5.358  35.585  0.00  0.00    -0.248 N 
ATOM     36  N   UNL     1      14.596   4.791  34.373  0.00  0.00    -0.065 NA
BRANCH  35  37
ATOM     37  C   UNL     1      15.286   6.514  35.931  0.00  0.00    +0.186 C 
BRANCH  37  38
ATOM     38  C   UNL     1      15.632   7.351  34.703  0.00  0.00    +0.255 C 
BRANCH  38  39
ATOM     39  O   UNL     1      15.978   8.708  35.049  0.00  0.00    -0.463 OA
BRANCH  39  40
ATOM     40  C   UNL     1      16.564   9.442  34.066  0.00  0.00    +0.304 C 
ATOM     41  O   UNL     1      17.755   9.417  33.792  0.00  0.00    -0.251 OA
ATOM     42  C   UNL     1      15.548  10.266  33.336  0.00  0.00    +0.136 C 
ENDBRANCH  39  40
ENDBRANCH  38  39
ENDBRANCH  37  38
ENDBRANCH  35  37
ENDBRANCH  31  33
ENDBRANCH  30  31
ENDBRANCH  26  30
ENDBRANCH  25  28
ENDBRANCH   1  25
TORSDOF 17
