REMARK VINA RESULT:    -6.653      1.941      3.975
REMARK INTER + INTRA:         -13.303
REMARK INTER:                 -11.809
REMARK INTRA:                  -1.494
REMARK UNBOUND:                -1.788
REMARK  Name = lig_assembled_20.pdb
REMARK  16 active torsions:
REMARK  status: ('A' for Active; 'I' for Inactive)
REMARK    1  A    between atoms: _2  and  _11
REMARK    2  A    between atoms: _6  and  _21
REMARK    3  A    between atoms: _8  and  _9
REMARK    4  A    between atoms: _8  and  _21
REMARK    5  A    between atoms: _17  and  _37
REMARK    6  A    between atoms: _19  and  _25
REMARK    7  A    between atoms: _20  and  _24
REMARK    8  A    between atoms: _24  and  _25
REMARK    9  A    between atoms: _27  and  _28
REMARK   10  A    between atoms: _29  and  _30
REMARK   11  A    between atoms: _31  and  _33
REMARK   12  A    between atoms: _33  and  _34
REMARK   13  A    between atoms: _33  and  _35
REMARK   14  A    between atoms: _35  and  _36
REMARK   15  A    between atoms: _35  and  _37
REMARK   16  A    between atoms: _38  and  _40
REMARK                            x       y       z     vdW  Elec       q    Type
REMARK                         _______ _______ _______ _____ _____    ______ ____
ROOT
ATOM      1  C   UNL     1       6.126   3.248  33.454  0.00  0.00    +0.163 C 
ENDROOT
BRANCH   1   2
ATOM      2  O   UNL     1       5.897   2.380  34.576  0.00  0.00    -0.388 OA
ATOM      3  H   UNL     1       6.564   2.543  35.249  0.00  0.00    +0.210 HD
ENDBRANCH   1   2
BRANCH   1   4
ATOM      4  C   UNL     1       5.606   2.597  32.177  0.00  0.00    +0.141 C 
BRANCH   4   7
ATOM      5  C   UNL     1       3.253   3.343  32.290  0.00  0.00    +0.401 C 
ATOM      6  O   UNL     1       3.037   2.808  33.380  0.00  0.00    -0.226 OA
ATOM      7  N   UNL     1       4.422   3.289  31.652  0.00  0.00    -0.279 N 
ATOM      8  H   UNL     1       4.499   3.752  30.757  0.00  0.00    +0.152 HD
BRANCH   5   9
ATOM      9  O   UNL     1       2.198   4.066  31.651  0.00  0.00    -0.444 OA
BRANCH   9  10
ATOM     10  C   UNL     1       1.216   3.147  31.163  0.00  0.00    +0.292 C 
BRANCH  10  12
ATOM     11  N   UNL     1      -0.119   4.110  29.308  0.00  0.00    -0.131 NA
ATOM     12  C   UNL     1       0.955   3.381  29.730  0.00  0.00    +0.121 A 
ATOM     13  C   UNL     1       1.667   2.957  28.634  0.00  0.00    +0.143 A 
ATOM     14  N   UNL     1       0.987   3.454  27.547  0.00  0.00    -0.220 N 
ATOM     15  N   UNL     1      -0.094   4.151  27.981  0.00  0.00    -0.060 NA
BRANCH  14  16
ATOM     16  C   UNL     1       1.297   3.311  26.170  0.00  0.00    +0.068 A 
ATOM     17  C   UNL     1       1.768   2.080  25.684  0.00  0.00    +0.030 A 
ATOM     18  C   UNL     1       2.079   1.902  24.329  0.00  0.00    +0.030 A 
ATOM     19  C   UNL     1       1.899   3.002  23.484  0.00  0.00    +0.066 A 
ATOM     20  C   UNL     1       1.438   4.232  23.933  0.00  0.00    +0.021 A 
ATOM     21  C   UNL     1       1.406   5.045  22.779  0.00  0.00    +0.142 A 
ATOM     22  N   UNL     1       1.809   4.398  21.683  0.00  0.00    -0.181 NA
ATOM     23  N   UNL     1       2.099   3.166  22.137  0.00  0.00    -0.277 N 
ATOM     24  H   UNL     1       2.435   2.476  21.475  0.00  0.00    +0.189 HD
ATOM     25  C   UNL     1       1.129   4.400  25.294  0.00  0.00    +0.039 A 
ENDBRANCH  14  16
ENDBRANCH  10  12
ENDBRANCH   9  10
ENDBRANCH   5   9
ENDBRANCH   4   7
ENDBRANCH   1   4
BRANCH   1  26
ATOM     26  C   UNL     1       7.624   3.562  33.297  0.00  0.00    +0.175 C 
BRANCH  26  27
ATOM     27  C   UNL     1       8.326   3.722  34.654  0.00  0.00    +0.176 C 
ATOM     28  O   UNL     1       8.517   2.396  35.218  0.00  0.00    -0.332 OA
ATOM     29  C   UNL     1       9.272   2.344  36.473  0.00  0.00    +0.277 C 
ATOM     30  C   UNL     1       8.628   3.274  37.531  0.00  0.00    +0.110 C 
ATOM     31  C   UNL     1       8.376   4.689  36.967  0.00  0.00    +0.143 C 
ATOM     32  C   UNL     1       7.586   4.625  35.659  0.00  0.00    +0.133 C 
BRANCH  32  33
ATOM     33  N   UNL     1       7.427   5.971  35.087  0.00  0.00    -0.308 N 
ATOM     34  H   UNL     1       8.248   6.422  34.709  0.00  0.00    +0.149 HD
ATOM     35  C   UNL     1       6.269   6.635  35.035  0.00  0.00    +0.210 C 
ATOM     36  C   UNL     1       5.042   5.930  35.643  0.00  0.00    +0.109 C 
ATOM     37  O   UNL     1       6.163   7.756  34.536  0.00  0.00    -0.276 OA
ENDBRANCH  32  33
BRANCH  29  38
ATOM     38  C   UNL     1      10.740   2.760  36.246  0.00  0.00    +0.414 C 
ATOM     39  O   UNL     1      11.390   3.265  37.161  0.00  0.00    -0.240 OA
ATOM     40  O   UNL     1      11.275   2.590  35.150  0.00  0.00    -0.240 OA
ENDBRANCH  29  38
BRANCH  31  41
ATOM     41  O   UNL     1       7.647   5.464  37.919  0.00  0.00    -0.390 OA
ATOM     42  H   UNL     1       7.535   6.358  37.587  0.00  0.00    +0.210 HD
ENDBRANCH  31  41
BRANCH  29  43
ATOM     43  O   UNL     1       9.222   0.982  36.971  0.00  0.00    -0.343 OA
ATOM     44  C   UNL     1       7.940   0.576  37.515  0.00  0.00    +0.198 C 
ENDBRANCH  29  43
ENDBRANCH  26  27
BRANCH  26  45
ATOM     45  O   UNL     1       7.801   4.751  32.502  0.00  0.00    -0.387 OA
ATOM     46  H   UNL     1       8.639   4.703  32.036  0.00  0.00    +0.210 HD
ENDBRANCH  26  45
ENDBRANCH   1  26
TORSDOF 14
