REMARK VINA RESULT:    -6.596     14.147     16.345
REMARK INTER + INTRA:         -13.566
REMARK INTER:                 -10.994
REMARK INTRA:                  -2.571
REMARK UNBOUND:                -2.150
REMARK  Name = lig_assembled_80.pdb
REMARK  16 active torsions:
REMARK  status: ('A' for Active; 'I' for Inactive)
REMARK    1  A    between atoms: _2  and  _10
REMARK    2  A    between atoms: _5  and  _24
REMARK    3  A    between atoms: _7  and  _8
REMARK    4  A    between atoms: _7  and  _24
REMARK    5  A    between atoms: _20  and  _40
REMARK    6  A    between atoms: _22  and  _28
REMARK    7  A    between atoms: _23  and  _27
REMARK    8  A    between atoms: _27  and  _28
REMARK    9  A    between atoms: _30  and  _31
REMARK   10  A    between atoms: _32  and  _33
REMARK   11  A    between atoms: _34  and  _36
REMARK   12  A    between atoms: _36  and  _37
REMARK   13  A    between atoms: _36  and  _38
REMARK   14  A    between atoms: _38  and  _39
REMARK   15  A    between atoms: _38  and  _40
REMARK   16  A    between atoms: _41  and  _43
REMARK                            x       y       z     vdW  Elec       q    Type
REMARK                         _______ _______ _______ _____ _____    ______ ____
ROOT
ATOM      1  C   UNL     1      19.605  11.155  29.692  0.00  0.00    +0.141 C 
ENDROOT
BRANCH   1   4
ATOM      2  C   UNL     1      19.000  10.409  27.415  0.00  0.00    +0.401 C 
ATOM      3  O   UNL     1      17.949  11.054  27.381  0.00  0.00    -0.226 OA
ATOM      4  N   UNL     1      19.832  10.393  28.457  0.00  0.00    -0.279 N 
ATOM      5  H   UNL     1      20.665   9.825  28.394  0.00  0.00    +0.152 HD
BRANCH   2   6
ATOM      6  O   UNL     1      19.367   9.619  26.281  0.00  0.00    -0.444 OA
BRANCH   6   7
ATOM      7  C   UNL     1      20.119   8.483  26.713  0.00  0.00    +0.292 C 
BRANCH   7   9
ATOM      8  N   UNL     1      20.727   6.776  25.043  0.00  0.00    -0.131 NA
ATOM      9  C   UNL     1      19.790   7.302  25.889  0.00  0.00    +0.120 A 
ATOM     10  C   UNL     1      18.630   6.565  25.806  0.00  0.00    +0.138 A 
ATOM     11  N   UNL     1      18.906   5.632  24.843  0.00  0.00    -0.239 N 
ATOM     12  N   UNL     1      20.183   5.742  24.415  0.00  0.00    -0.065 NA
BRANCH  11  13
ATOM     13  C   UNL     1      18.104   4.492  24.383  0.00  0.00    +0.195 C 
ATOM     14  C   UNL     1      17.893   4.626  22.881  0.00  0.00    +0.041 C 
ATOM     15  C   UNL     1      16.841   3.654  22.390  0.00  0.00    +0.039 C 
ATOM     16  C   UNL     1      17.469   2.324  22.113  0.00  0.00    -0.026 A 
ATOM     17  C   UNL     1      18.041   1.540  23.117  0.00  0.00    +0.037 A 
ATOM     18  C   UNL     1      18.501   0.250  22.800  0.00  0.00    +0.023 A 
ATOM     19  C   UNL     1      18.503  -0.211  21.485  0.00  0.00    +0.002 A 
ATOM     20  C   UNL     1      18.003   0.597  20.474  0.00  0.00    +0.000 A 
ATOM     21  N   UNL     1      18.287   1.951  24.438  0.00  0.00    -0.284 N 
ATOM     22  H   UNL     1      18.687   1.235  25.037  0.00  0.00    +0.155 HD
ATOM     23  C   UNL     1      17.466   1.844  20.790  0.00  0.00    +0.005 A 
ATOM     24  C   UNL     1      18.653   3.175  24.920  0.00  0.00    +0.242 C 
ATOM     25  O   UNL     1      19.389   3.138  25.913  0.00  0.00    -0.273 OA
ENDBRANCH  11  13
ENDBRANCH   7   9
ENDBRANCH   6   7
ENDBRANCH   2   6
ENDBRANCH   1   4
BRANCH   1  26
ATOM     26  C   UNL     1      18.714  10.399  30.671  0.00  0.00    +0.163 C 
BRANCH  26  27
ATOM     27  O   UNL     1      17.337  10.748  30.454  0.00  0.00    -0.388 OA
ATOM     28  H   UNL     1      16.917  10.937  31.296  0.00  0.00    +0.210 HD
ENDBRANCH  26  27
BRANCH  26  29
ATOM     29  C   UNL     1      18.931   8.885  30.501  0.00  0.00    +0.175 C 
BRANCH  29  30
ATOM     30  C   UNL     1      18.083   8.065  31.484  0.00  0.00    +0.176 C 
ATOM     31  O   UNL     1      18.024   8.795  32.740  0.00  0.00    -0.332 OA
ATOM     32  C   UNL     1      17.163   8.211  33.773  0.00  0.00    +0.277 C 
ATOM     33  C   UNL     1      17.563   6.739  34.041  0.00  0.00    +0.110 C 
ATOM     34  C   UNL     1      17.670   5.930  32.731  0.00  0.00    +0.143 C 
ATOM     35  C   UNL     1      18.586   6.630  31.728  0.00  0.00    +0.133 C 
BRANCH  35  36
ATOM     36  N   UNL     1      18.611   5.895  30.453  0.00  0.00    -0.308 N 
ATOM     37  H   UNL     1      17.776   5.909  29.884  0.00  0.00    +0.149 HD
ATOM     38  C   UNL     1      19.665   5.211  29.999  0.00  0.00    +0.210 C 
ATOM     39  C   UNL     1      20.913   5.188  30.902  0.00  0.00    +0.109 C 
ATOM     40  O   UNL     1      19.662   4.617  28.920  0.00  0.00    -0.276 OA
ENDBRANCH  35  36
BRANCH  32  41
ATOM     41  C   UNL     1      15.681   8.274  33.350  0.00  0.00    +0.414 C 
ATOM     42  O   UNL     1      14.855   7.527  33.873  0.00  0.00    -0.240 OA
ATOM     43  O   UNL     1      15.312   9.071  32.486  0.00  0.00    -0.240 OA
ENDBRANCH  32  41
BRANCH  34  44
ATOM     44  O   UNL     1      18.185   4.628  33.010  0.00  0.00    -0.390 OA
ATOM     45  H   UNL     1      19.135   4.679  33.135  0.00  0.00    +0.210 HD
ENDBRANCH  34  44
BRANCH  32  46
ATOM     46  O   UNL     1      17.354   8.967  34.997  0.00  0.00    -0.343 OA
ATOM     47  C   UNL     1      17.247  10.405  34.851  0.00  0.00    +0.198 C 
ENDBRANCH  32  46
ENDBRANCH  29  30
BRANCH  29  48
ATOM     48  O   UNL     1      20.327   8.563  30.660  0.00  0.00    -0.387 OA
ATOM     49  H   UNL     1      20.419   7.631  30.870  0.00  0.00    +0.210 HD
ENDBRANCH  29  48
ENDBRANCH  26  29
ENDBRANCH   1  26
TORSDOF 14
