REMARK VINA RESULT:    -6.722      6.742     11.639
REMARK INTER + INTRA:         -13.481
REMARK INTER:                 -11.830
REMARK INTRA:                  -1.651
REMARK UNBOUND:                -1.847
REMARK  Name = lig_assembled_2.pdb
REMARK  16 active torsions:
REMARK  status: ('A' for Active; 'I' for Inactive)
REMARK    1  A    between atoms: _2  and  _9
REMARK    2  A    between atoms: _4  and  _18
REMARK    3  A    between atoms: _6  and  _7
REMARK    4  A    between atoms: _6  and  _18
REMARK    5  A    between atoms: _14  and  _34
REMARK    6  A    between atoms: _16  and  _22
REMARK    7  A    between atoms: _17  and  _21
REMARK    8  A    between atoms: _21  and  _22
REMARK    9  A    between atoms: _24  and  _25
REMARK   10  A    between atoms: _26  and  _27
REMARK   11  A    between atoms: _28  and  _30
REMARK   12  A    between atoms: _30  and  _31
REMARK   13  A    between atoms: _30  and  _32
REMARK   14  A    between atoms: _32  and  _33
REMARK   15  A    between atoms: _32  and  _34
REMARK   16  A    between atoms: _35  and  _37
REMARK                            x       y       z     vdW  Elec       q    Type
REMARK                         _______ _______ _______ _____ _____    ______ ____
ROOT
ATOM      1  C   UNL     1       7.312   2.458  34.348  0.00  0.00    +0.163 C 
ENDROOT
BRANCH   1   2
ATOM      2  O   UNL     1       7.340   2.458  35.785  0.00  0.00    -0.388 OA
ATOM      3  H   UNL     1       6.748   1.779  36.117  0.00  0.00    +0.210 HD
ENDBRANCH   1   2
BRANCH   1   4
ATOM      4  C   UNL     1       8.224   1.362  33.808  0.00  0.00    +0.141 C 
BRANCH   4   7
ATOM      5  C   UNL     1      10.443   1.508  34.887  0.00  0.00    +0.401 C 
ATOM      6  O   UNL     1      10.084   0.933  35.917  0.00  0.00    -0.226 OA
ATOM      7  N   UNL     1       9.638   1.756  33.853  0.00  0.00    -0.279 N 
ATOM      8  H   UNL     1      10.023   2.242  33.055  0.00  0.00    +0.152 HD
BRANCH   5   9
ATOM      9  O   UNL     1      11.799   1.948  34.773  0.00  0.00    -0.444 OA
BRANCH   9  10
ATOM     10  C   UNL     1      12.152   2.711  35.929  0.00  0.00    +0.292 C 
BRANCH  10  12
ATOM     11  N   UNL     1      13.750   3.750  34.351  0.00  0.00    -0.131 NA
ATOM     12  C   UNL     1      13.159   3.732  35.581  0.00  0.00    +0.121 A 
ATOM     13  C   UNL     1      13.653   4.774  36.333  0.00  0.00    +0.143 A 
ATOM     14  N   UNL     1      14.533   5.426  35.501  0.00  0.00    -0.220 N 
ATOM     15  N   UNL     1      14.588   4.777  34.312  0.00  0.00    -0.060 NA
BRANCH  14  16
ATOM     16  C   UNL     1      15.279   6.608  35.749  0.00  0.00    +0.067 A 
ATOM     17  C   UNL     1      15.643   6.970  37.053  0.00  0.00    +0.029 A 
ATOM     18  C   UNL     1      16.346   8.159  37.279  0.00  0.00    +0.022 A 
ATOM     19  C   UNL     1      16.688   8.982  36.209  0.00  0.00    +0.041 A 
ATOM     20 CL   UNL     1      17.532  10.452  36.500  0.00  0.00    -0.084 Cl
ATOM     21  C   UNL     1      16.345   8.624  34.908  0.00  0.00    +0.022 A 
ATOM     22  C   UNL     1      15.643   7.437  34.674  0.00  0.00    +0.029 A 
ENDBRANCH  14  16
ENDBRANCH  10  12
ENDBRANCH   9  10
ENDBRANCH   5   9
ENDBRANCH   4   7
ENDBRANCH   1   4
BRANCH   1  23
ATOM     23  C   UNL     1       7.758   3.820  33.790  0.00  0.00    +0.175 C 
BRANCH  23  24
ATOM     24  C   UNL     1       7.134   4.993  34.560  0.00  0.00    +0.176 C 
ATOM     25  O   UNL     1       7.840   5.124  35.824  0.00  0.00    -0.332 OA
ATOM     26  C   UNL     1       7.448   6.268  36.654  0.00  0.00    +0.277 C 
ATOM     27  C   UNL     1       5.921   6.254  36.907  0.00  0.00    +0.110 C 
ATOM     28  C   UNL     1       5.128   6.084  35.594  0.00  0.00    +0.143 C 
ATOM     29  C   UNL     1       5.619   4.868  34.809  0.00  0.00    +0.133 C 
BRANCH  29  30
ATOM     30  N   UNL     1       4.916   4.767  33.520  0.00  0.00    -0.308 N 
ATOM     31  H   UNL     1       5.119   5.463  32.817  0.00  0.00    +0.149 HD
ATOM     32  C   UNL     1       4.027   3.817  33.220  0.00  0.00    +0.210 C 
ATOM     33  C   UNL     1       3.720   2.787  34.324  0.00  0.00    +0.109 C 
ATOM     34  O   UNL     1       3.464   3.748  32.127  0.00  0.00    -0.276 OA
ENDBRANCH  29  30
BRANCH  26  35
ATOM     35  C   UNL     1       7.847   7.596  35.978  0.00  0.00    +0.414 C 
ATOM     36  O   UNL     1       8.184   8.563  36.661  0.00  0.00    -0.240 OA
ATOM     37  O   UNL     1       7.833   7.701  34.751  0.00  0.00    -0.240 OA
ENDBRANCH  26  35
BRANCH  28  38
ATOM     38  O   UNL     1       3.739   5.925  35.887  0.00  0.00    -0.390 OA
ATOM     39  H   UNL     1       3.216   6.268  35.158  0.00  0.00    +0.210 HD
ENDBRANCH  28  38
BRANCH  26  40
ATOM     40  O   UNL     1       8.125   6.148  37.932  0.00  0.00    -0.343 OA
ATOM     41  C   UNL     1       7.247   6.041  39.081  0.00  0.00    +0.198 C 
ENDBRANCH  26  40
ENDBRANCH  23  24
BRANCH  23  42
ATOM     42  O   UNL     1       7.429   3.914  32.389  0.00  0.00    -0.387 OA
ATOM     43  H   UNL     1       8.063   3.408  31.876  0.00  0.00    +0.210 HD
ENDBRANCH  23  42
ENDBRANCH   1  23
TORSDOF 14
