REMARK VINA RESULT:    -7.090      9.830     18.529
REMARK INTER + INTRA:         -15.167
REMARK INTER:                 -12.477
REMARK INTRA:                  -2.689
REMARK UNBOUND:                -2.067
REMARK  Name = lig_assembled_79.pdb
REMARK  20 active torsions:
REMARK  status: ('A' for Active; 'I' for Inactive)
REMARK    1  A    between atoms: _2  and  _10
REMARK    2  A    between atoms: _5  and  _26
REMARK    3  A    between atoms: _7  and  _8
REMARK    4  A    between atoms: _7  and  _26
REMARK    5  A    between atoms: _10  and  _11
REMARK    6  A    between atoms: _10  and  _12
REMARK    7  A    between atoms: _10  and  _13
REMARK    8  A    between atoms: _13  and  _14
REMARK    9  A    between atoms: _22  and  _42
REMARK   10  A    between atoms: _24  and  _30
REMARK   11  A    between atoms: _25  and  _29
REMARK   12  A    between atoms: _29  and  _30
REMARK   13  A    between atoms: _32  and  _33
REMARK   14  A    between atoms: _34  and  _35
REMARK   15  A    between atoms: _36  and  _38
REMARK   16  A    between atoms: _38  and  _39
REMARK   17  A    between atoms: _38  and  _40
REMARK   18  A    between atoms: _40  and  _41
REMARK   19  A    between atoms: _40  and  _42
REMARK   20  A    between atoms: _43  and  _45
REMARK                            x       y       z     vdW  Elec       q    Type
REMARK                         _______ _______ _______ _____ _____    ______ ____
ROOT
ATOM      1  C   UNL     1       1.436   0.951  30.970  0.00  0.00    +0.401 C 
ATOM      2  O   UNL     1       2.005   0.017  30.399  0.00  0.00    -0.226 OA
ATOM      3  N   UNL     1       2.003   1.702  31.915  0.00  0.00    -0.279 N 
ATOM      4  H   UNL     1       1.459   2.452  32.318  0.00  0.00    +0.152 HD
ENDROOT
BRANCH   3   5
ATOM      5  C   UNL     1       3.372   1.500  32.404  0.00  0.00    +0.141 C 
BRANCH   5   6
ATOM      6  C   UNL     1       4.384   2.330  31.620  0.00  0.00    +0.163 C 
BRANCH   6   7
ATOM      7  O   UNL     1       3.855   3.642  31.371  0.00  0.00    -0.388 OA
ATOM      8  H   UNL     1       4.015   4.203  32.134  0.00  0.00    +0.210 HD
ENDBRANCH   6   7
BRANCH   6   9
ATOM      9  C   UNL     1       5.703   2.409  32.407  0.00  0.00    +0.175 C 
BRANCH   9  10
ATOM     10  C   UNL     1       5.481   2.826  33.868  0.00  0.00    +0.176 C 
ATOM     11  O   UNL     1       5.169   4.246  33.885  0.00  0.00    -0.332 OA
ATOM     12  C   UNL     1       4.820   4.803  35.196  0.00  0.00    +0.277 C 
ATOM     13  C   UNL     1       5.935   4.500  36.226  0.00  0.00    +0.110 C 
ATOM     14  C   UNL     1       6.323   3.006  36.223  0.00  0.00    +0.143 C 
ATOM     15  C   UNL     1       6.664   2.532  34.810  0.00  0.00    +0.133 C 
BRANCH  15  16
ATOM     16  N   UNL     1       6.948   1.088  34.806  0.00  0.00    -0.308 N 
ATOM     17  H   UNL     1       6.195   0.459  35.049  0.00  0.00    +0.149 HD
ATOM     18  C   UNL     1       8.134   0.555  34.501  0.00  0.00    +0.210 C 
ATOM     19  C   UNL     1       9.266   1.541  34.159  0.00  0.00    +0.109 C 
ATOM     20  O   UNL     1       8.339  -0.660  34.492  0.00  0.00    -0.276 OA
ENDBRANCH  15  16
BRANCH  12  21
ATOM     21  C   UNL     1       3.482   4.223  35.698  0.00  0.00    +0.414 C 
ATOM     22  O   UNL     1       2.571   3.987  34.905  0.00  0.00    -0.240 OA
ATOM     23  O   UNL     1       3.313   3.990  36.896  0.00  0.00    -0.240 OA
ENDBRANCH  12  21
BRANCH  14  24
ATOM     24  O   UNL     1       7.452   2.800  37.073  0.00  0.00    -0.390 OA
ATOM     25  H   UNL     1       8.257   3.004  36.592  0.00  0.00    +0.210 HD
ENDBRANCH  14  24
BRANCH  12  26
ATOM     26  O   UNL     1       4.706   6.243  35.055  0.00  0.00    -0.343 OA
ATOM     27  C   UNL     1       5.829   6.885  34.400  0.00  0.00    +0.198 C 
ENDBRANCH  12  26
ENDBRANCH   9  10
BRANCH   9  28
ATOM     28  O   UNL     1       6.612   3.323  31.762  0.00  0.00    -0.387 OA
ATOM     29  H   UNL     1       7.364   3.487  32.337  0.00  0.00    +0.210 HD
ENDBRANCH   9  28
ENDBRANCH   6   9
ENDBRANCH   5   6
ENDBRANCH   3   5
BRANCH   1  30
ATOM     30  O   UNL     1       0.090   1.269  30.609  0.00  0.00    -0.444 OA
BRANCH  30  31
ATOM     31  C   UNL     1      -0.024   2.675  30.378  0.00  0.00    +0.292 C 
BRANCH  31  33
ATOM     32  N   UNL     1       1.774   3.631  28.984  0.00  0.00    -0.131 NA
ATOM     33  C   UNL     1       0.556   3.022  29.067  0.00  0.00    +0.120 A 
ATOM     34  C   UNL     1       0.055   2.840  27.798  0.00  0.00    +0.138 A 
ATOM     35  N   UNL     1       1.052   3.274  26.969  0.00  0.00    -0.238 N 
ATOM     36  N   UNL     1       2.050   3.823  27.705  0.00  0.00    -0.064 NA
BRANCH  35  37
ATOM     37  C   UNL     1       1.099   3.407  25.484  0.00  0.00    +0.122 C 
ATOM     38  C   UNL     1       0.544   2.083  24.907  0.00  0.00    +0.044 C 
ATOM     39  C   UNL     1       2.580   3.683  25.156  0.00  0.00    +0.044 C 
BRANCH  37  40
ATOM     40  C   UNL     1       0.218   4.551  24.940  0.00  0.00    +0.192 C 
ATOM     41  O   UNL     1      -0.119   5.482  25.678  0.00  0.00    -0.289 OA
BRANCH  40  42
ATOM     42  C   UNL     1      -0.281   4.584  23.535  0.00  0.00    +0.045 A 
ATOM     43  C   UNL     1      -1.623   4.843  23.283  0.00  0.00    +0.095 A 
ATOM     44  N   UNL     1      -1.858   4.796  21.943  0.00  0.00    -0.360 N 
ATOM     45  H   UNL     1      -2.755   4.940  21.500  0.00  0.00    +0.165 HD
ATOM     46  C   UNL     1      -0.695   4.512  21.274  0.00  0.00    +0.047 A 
ATOM     47  C   UNL     1      -0.489   4.361  19.895  0.00  0.00    +0.026 A 
ATOM     48  C   UNL     1       0.798   4.063  19.448  0.00  0.00    +0.002 A 
ATOM     49  C   UNL     1       1.840   3.924  20.351  0.00  0.00    +0.001 A 
ATOM     50  C   UNL     1       1.614   4.079  21.724  0.00  0.00    +0.011 A 
ATOM     51  C   UNL     1       0.322   4.378  22.229  0.00  0.00    +0.010 A 
ENDBRANCH  40  42
ENDBRANCH  37  40
ENDBRANCH  35  37
ENDBRANCH  31  33
ENDBRANCH  30  31
ENDBRANCH   1  30
TORSDOF 16
