REMARK VINA RESULT:    -5.536      9.926     18.613
REMARK INTER + INTRA:         -13.306
REMARK INTER:                 -11.228
REMARK INTRA:                  -2.078
REMARK UNBOUND:                -3.239
REMARK  Name = lig_assembled_88.pdb
REMARK  18 active torsions:
REMARK  status: ('A' for Active; 'I' for Inactive)
REMARK    1  A    between atoms: _2  and  _9
REMARK    2  A    between atoms: _4  and  _20
REMARK    3  A    between atoms: _5  and  _15
REMARK    4  A    between atoms: _6  and  _7
REMARK    5  A    between atoms: _6  and  _20
REMARK    6  A    between atoms: _9  and  _10
REMARK    7  A    between atoms: _16  and  _36
REMARK    8  A    between atoms: _18  and  _24
REMARK    9  A    between atoms: _19  and  _23
REMARK   10  A    between atoms: _23  and  _24
REMARK   11  A    between atoms: _26  and  _27
REMARK   12  A    between atoms: _28  and  _29
REMARK   13  A    between atoms: _30  and  _32
REMARK   14  A    between atoms: _32  and  _33
REMARK   15  A    between atoms: _32  and  _34
REMARK   16  A    between atoms: _34  and  _35
REMARK   17  A    between atoms: _34  and  _36
REMARK   18  A    between atoms: _37  and  _39
REMARK                            x       y       z     vdW  Elec       q    Type
REMARK                         _______ _______ _______ _____ _____    ______ ____
ROOT
ATOM      1  C   UNL     1      -2.310   8.446  13.142  0.00  0.00    +0.163 C 
ENDROOT
BRANCH   1   2
ATOM      2  O   UNL     1      -2.456   8.593  11.720  0.00  0.00    -0.388 OA
ATOM      3  H   UNL     1      -3.034   9.336  11.532  0.00  0.00    +0.210 HD
ENDBRANCH   1   2
BRANCH   1   4
ATOM      4  C   UNL     1      -2.997   9.604  13.888  0.00  0.00    +0.175 C 
BRANCH   4   5
ATOM      5  C   UNL     1      -3.156  10.848  13.001  0.00  0.00    +0.176 C 
ATOM      6  O   UNL     1      -1.853  11.169  12.443  0.00  0.00    -0.332 OA
ATOM      7  C   UNL     1      -1.830  12.275  11.480  0.00  0.00    +0.277 C 
ATOM      8  C   UNL     1      -2.462  13.545  12.100  0.00  0.00    +0.110 C 
ATOM      9  C   UNL     1      -3.837  13.246  12.735  0.00  0.00    +0.143 C 
ATOM     10  C   UNL     1      -3.745  12.078  13.717  0.00  0.00    +0.133 C 
BRANCH  10  11
ATOM     11  N   UNL     1      -5.076  11.746  14.250  0.00  0.00    -0.308 N 
ATOM     12  H   UNL     1      -5.777  11.422  13.598  0.00  0.00    +0.149 HD
ATOM     13  C   UNL     1      -5.418  11.846  15.537  0.00  0.00    +0.210 C 
ATOM     14  C   UNL     1      -4.335  12.368  16.500  0.00  0.00    +0.109 C 
ATOM     15  O   UNL     1      -6.537  11.547  15.956  0.00  0.00    -0.276 OA
ENDBRANCH  10  11
BRANCH   7  16
ATOM     16  C   UNL     1      -2.593  11.895  10.194  0.00  0.00    +0.414 C 
ATOM     17  O   UNL     1      -2.402  10.803   9.659  0.00  0.00    -0.240 OA
ATOM     18  O   UNL     1      -3.398  12.679   9.691  0.00  0.00    -0.240 OA
ENDBRANCH   7  16
BRANCH   7  19
ATOM     19  O   UNL     1      -0.445  12.563  11.160  0.00  0.00    -0.343 OA
ATOM     20  C   UNL     1      -0.222  13.831  10.493  0.00  0.00    +0.198 C 
ENDBRANCH   7  19
BRANCH   9  21
ATOM     21  O   UNL     1      -4.311  14.404  13.424  0.00  0.00    -0.390 OA
ATOM     22  H   UNL     1      -5.042  14.159  13.996  0.00  0.00    +0.210 HD
ENDBRANCH   9  21
ENDBRANCH   4   5
BRANCH   4  23
ATOM     23  O   UNL     1      -2.257   9.935  15.080  0.00  0.00    -0.387 OA
ATOM     24  H   UNL     1      -2.001  10.860  15.052  0.00  0.00    +0.210 HD
ENDBRANCH   4  23
ENDBRANCH   1   4
BRANCH   1  25
ATOM     25  C   UNL     1      -2.913   7.120  13.595  0.00  0.00    +0.141 C 
BRANCH  25  28
ATOM     26  C   UNL     1      -3.004   6.665  16.022  0.00  0.00    +0.401 C 
ATOM     27  O   UNL     1      -4.166   7.059  16.147  0.00  0.00    -0.226 OA
ATOM     28  N   UNL     1      -2.338   6.664  14.867  0.00  0.00    -0.279 N 
ATOM     29  H   UNL     1      -1.385   6.329  14.866  0.00  0.00    +0.152 HD
BRANCH  26  30
ATOM     30  O   UNL     1      -2.308   6.179  17.172  0.00  0.00    -0.444 OA
BRANCH  30  31
ATOM     31  C   UNL     1      -0.947   5.906  16.827  0.00  0.00    +0.292 C 
BRANCH  31  33
ATOM     32  N   UNL     1      -1.183   4.221  18.626  0.00  0.00    -0.131 NA
ATOM     33  C   UNL     1      -0.401   4.838  17.685  0.00  0.00    +0.120 A 
ATOM     34  C   UNL     1       0.869   4.306  17.734  0.00  0.00    +0.137 A 
ATOM     35  N   UNL     1       0.812   3.425  18.775  0.00  0.00    -0.247 N 
ATOM     36  N   UNL     1      -0.434   3.340  19.275  0.00  0.00    -0.065 NA
BRANCH  35  37
ATOM     37  C   UNL     1       1.908   2.691  19.390  0.00  0.00    +0.184 C 
BRANCH  37  38
ATOM     38  C   UNL     1       1.653   2.344  20.843  0.00  0.00    +0.017 A 
ATOM     39  C   UNL     1       1.382   1.029  21.269  0.00  0.00    +0.024 A 
ATOM     40  C   UNL     1       1.152   0.745  22.618  0.00  0.00    +0.019 A 
ATOM     41 BR   UNL     1       0.742  -1.024  23.145  0.00  0.00    -0.050 Br
ATOM     42  C   UNL     1       1.217   1.749  23.578  0.00  0.00    +0.034 A 
ATOM     43  C   UNL     1       1.530   3.046  23.179  0.00  0.00    +0.061 A 
ATOM     44 BR   UNL     1       1.654   4.404  24.495  0.00  0.00    -0.046 Br
ATOM     45  C   UNL     1       1.751   3.338  21.825  0.00  0.00    +0.136 A 
BRANCH  45  46
ATOM     46  O   UNL     1       2.075   4.608  21.424  0.00  0.00    -0.505 OA
ATOM     47  H   UNL     1       2.919   4.846  21.853  0.00  0.00    +0.292 HD
ENDBRANCH  45  46
ENDBRANCH  37  38
ENDBRANCH  35  37
ENDBRANCH  31  33
ENDBRANCH  30  31
ENDBRANCH  26  30
ENDBRANCH  25  28
ENDBRANCH   1  25
TORSDOF 16
