REMARK VINA RESULT:    -6.176     14.886     17.199
REMARK INTER + INTRA:         -13.180
REMARK INTER:                 -10.774
REMARK INTRA:                  -2.406
REMARK UNBOUND:                -2.491
REMARK  Name = lig_assembled_57.pdb
REMARK  17 active torsions:
REMARK  status: ('A' for Active; 'I' for Inactive)
REMARK    1  A    between atoms: _2  and  _10
REMARK    2  A    between atoms: _3  and  _13
REMARK    3  A    between atoms: _5  and  _19
REMARK    4  A    between atoms: _7  and  _8
REMARK    5  A    between atoms: _7  and  _19
REMARK    6  A    between atoms: _15  and  _35
REMARK    7  A    between atoms: _17  and  _23
REMARK    8  A    between atoms: _18  and  _22
REMARK    9  A    between atoms: _22  and  _23
REMARK   10  A    between atoms: _25  and  _26
REMARK   11  A    between atoms: _27  and  _28
REMARK   12  A    between atoms: _29  and  _31
REMARK   13  A    between atoms: _31  and  _32
REMARK   14  A    between atoms: _31  and  _33
REMARK   15  A    between atoms: _33  and  _34
REMARK   16  A    between atoms: _33  and  _35
REMARK   17  A    between atoms: _36  and  _38
REMARK                            x       y       z     vdW  Elec       q    Type
REMARK                         _______ _______ _______ _____ _____    ______ ____
ROOT
ATOM      1  C   UNL     1      17.754   4.066  22.649  0.00  0.00    +0.163 C 
ENDROOT
BRANCH   1   2
ATOM      2  O   UNL     1      17.084   5.269  23.061  0.00  0.00    -0.388 OA
ATOM      3  H   UNL     1      17.670   5.788  23.617  0.00  0.00    +0.210 HD
ENDBRANCH   1   2
BRANCH   1   4
ATOM      4  C   UNL     1      16.786   3.164  21.890  0.00  0.00    +0.141 C 
BRANCH   4   7
ATOM      5  C   UNL     1      17.967   1.269  20.831  0.00  0.00    +0.401 C 
ATOM      6  O   UNL     1      18.292   1.910  19.828  0.00  0.00    -0.226 OA
ATOM      7  N   UNL     1      17.257   1.774  21.841  0.00  0.00    -0.279 N 
ATOM      8  H   UNL     1      17.031   1.167  22.616  0.00  0.00    +0.152 HD
BRANCH   5   9
ATOM      9  O   UNL     1      18.360  -0.102  20.936  0.00  0.00    -0.444 OA
BRANCH   9  10
ATOM     10  C   UNL     1      18.809  -0.369  22.267  0.00  0.00    +0.292 C 
BRANCH  10  12
ATOM     11  N   UNL     1      18.483  -2.809  22.469  0.00  0.00    -0.131 NA
ATOM     12  C   UNL     1      18.102  -1.543  22.812  0.00  0.00    +0.120 A 
ATOM     13  C   UNL     1      17.051  -1.614  23.700  0.00  0.00    +0.137 A 
ATOM     14  N   UNL     1      16.896  -2.948  23.927  0.00  0.00    -0.248 N 
ATOM     15  N   UNL     1      17.714  -3.661  23.126  0.00  0.00    -0.065 NA
BRANCH  14  16
ATOM     16  C   UNL     1      16.075  -3.667  24.896  0.00  0.00    +0.111 C 
ATOM     17  C   UNL     1      16.789  -4.939  25.378  0.00  0.00    +0.042 C 
ATOM     18  C   UNL     1      17.922  -4.585  26.339  0.00  0.00    +0.086 C 
ATOM     19  N   UNL     1      17.460  -3.848  27.520  0.00  0.00    -0.305 NA
ATOM     20  C   UNL     1      16.699  -2.647  27.171  0.00  0.00    +0.086 C 
ATOM     21  C   UNL     1      16.761  -4.706  28.472  0.00  0.00    +0.104 C 
ATOM     22  C   UNL     1      15.602  -2.859  26.117  0.00  0.00    +0.042 C 
ENDBRANCH  14  16
ENDBRANCH  10  12
ENDBRANCH   9  10
ENDBRANCH   5   9
ENDBRANCH   4   7
ENDBRANCH   1   4
BRANCH   1  23
ATOM     23  C   UNL     1      18.318   3.307  23.863  0.00  0.00    +0.175 C 
BRANCH  23  24
ATOM     24  C   UNL     1      18.344   4.178  25.128  0.00  0.00    +0.176 C 
ATOM     25  O   UNL     1      19.612   4.890  25.154  0.00  0.00    -0.332 OA
ATOM     26  C   UNL     1      19.773   5.858  26.243  0.00  0.00    +0.277 C 
ATOM     27  C   UNL     1      19.527   5.177  27.612  0.00  0.00    +0.110 C 
ATOM     28  C   UNL     1      18.204   4.381  27.622  0.00  0.00    +0.143 C 
ATOM     29  C   UNL     1      18.141   3.407  26.445  0.00  0.00    +0.133 C 
BRANCH  29  30
ATOM     30  N   UNL     1      16.842   2.718  26.416  0.00  0.00    -0.308 N 
ATOM     31  H   UNL     1      16.010   3.283  26.316  0.00  0.00    +0.149 HD
ATOM     32  C   UNL     1      16.689   1.395  26.513  0.00  0.00    +0.210 C 
ATOM     33  C   UNL     1      17.974   0.564  26.690  0.00  0.00    +0.109 C 
ATOM     34  O   UNL     1      15.589   0.843  26.471  0.00  0.00    -0.276 OA
ENDBRANCH  29  30
BRANCH  26  35
ATOM     35  C   UNL     1      18.798   7.041  26.073  0.00  0.00    +0.414 C 
ATOM     36  O   UNL     1      18.748   7.931  26.921  0.00  0.00    -0.240 OA
ATOM     37  O   UNL     1      18.062   7.107  25.087  0.00  0.00    -0.240 OA
ENDBRANCH  26  35
BRANCH  28  38
ATOM     38  O   UNL     1      18.092   3.650  28.844  0.00  0.00    -0.390 OA
ATOM     39  H   UNL     1      18.966   3.397  29.149  0.00  0.00    +0.210 HD
ENDBRANCH  28  38
BRANCH  26  40
ATOM     40  O   UNL     1      21.140   6.343  26.214  0.00  0.00    -0.343 OA
ATOM     41  C   UNL     1      21.766   6.331  24.906  0.00  0.00    +0.198 C 
ENDBRANCH  26  40
ENDBRANCH  23  24
BRANCH  23  42
ATOM     42  O   UNL     1      19.641   2.816  23.570  0.00  0.00    -0.387 OA
ATOM     43  H   UNL     1      19.580   2.067  22.973  0.00  0.00    +0.210 HD
ENDBRANCH  23  42
ENDBRANCH   1  23
TORSDOF 14
