REMARK VINA RESULT:    -6.538      3.101      5.212
REMARK INTER + INTRA:         -16.674
REMARK INTER:                 -13.612
REMARK INTRA:                  -3.062
REMARK UNBOUND:                -3.256
REMARK  Name = lig_assembled_47.pdb
REMARK  22 active torsions:
REMARK  status: ('A' for Active; 'I' for Inactive)
REMARK    1  A    between atoms: _2  and  _9
REMARK    2  A    between atoms: _4  and  _30
REMARK    3  A    between atoms: _6  and  _7
REMARK    4  A    between atoms: _6  and  _30
REMARK    5  A    between atoms: _9  and  _10
REMARK    6  A    between atoms: _10  and  _11
REMARK    7  A    between atoms: _10  and  _12
REMARK    8  A    between atoms: _11  and  _24
REMARK    9  A    between atoms: _12  and  _13
REMARK   10  A    between atoms: _12  and  _19
REMARK   11  A    between atoms: _26  and  _46
REMARK   12  A    between atoms: _28  and  _34
REMARK   13  A    between atoms: _29  and  _33
REMARK   14  A    between atoms: _33  and  _34
REMARK   15  A    between atoms: _36  and  _37
REMARK   16  A    between atoms: _38  and  _39
REMARK   17  A    between atoms: _40  and  _42
REMARK   18  A    between atoms: _42  and  _43
REMARK   19  A    between atoms: _42  and  _44
REMARK   20  A    between atoms: _44  and  _45
REMARK   21  A    between atoms: _44  and  _46
REMARK   22  A    between atoms: _47  and  _49
REMARK                            x       y       z     vdW  Elec       q    Type
REMARK                         _______ _______ _______ _____ _____    ______ ____
ROOT
ATOM      1  C   UNL     1      -1.015  21.018  14.507  0.00  0.00    +0.401 C 
ATOM      2  O   UNL     1      -2.148  21.488  14.630  0.00  0.00    -0.226 OA
ATOM      3  N   UNL     1      -0.486  20.643  13.342  0.00  0.00    -0.279 N 
ATOM      4  H   UNL     1       0.456  20.278  13.341  0.00  0.00    +0.152 HD
ENDROOT
BRANCH   3   5
ATOM      5  C   UNL     1      -1.195  20.732  12.060  0.00  0.00    +0.141 C 
BRANCH   5   6
ATOM      6  C   UNL     1      -0.916  19.525  11.170  0.00  0.00    +0.163 C 
BRANCH   6   7
ATOM      7  O   UNL     1      -0.156  19.928  10.019  0.00  0.00    -0.388 OA
ATOM      8  H   UNL     1       0.543  20.527  10.290  0.00  0.00    +0.210 HD
ENDBRANCH   6   7
BRANCH   6   9
ATOM      9  C   UNL     1      -0.162  18.454  11.979  0.00  0.00    +0.175 C 
BRANCH   9  10
ATOM     10  C   UNL     1       0.604  17.479  11.073  0.00  0.00    +0.176 C 
ATOM     11  O   UNL     1       0.141  16.133  11.372  0.00  0.00    -0.332 OA
ATOM     12  C   UNL     1       0.691  15.071  10.524  0.00  0.00    +0.277 C 
ATOM     13  C   UNL     1       2.239  15.109  10.544  0.00  0.00    +0.110 C 
ATOM     14  C   UNL     1       2.777  16.527  10.263  0.00  0.00    +0.143 C 
ATOM     15  C   UNL     1       2.137  17.553  11.199  0.00  0.00    +0.133 C 
BRANCH  15  16
ATOM     16  N   UNL     1       2.593  18.911  10.864  0.00  0.00    -0.308 N 
ATOM     17  H   UNL     1       2.469  19.229   9.913  0.00  0.00    +0.149 HD
ATOM     18  C   UNL     1       3.160  19.751  11.735  0.00  0.00    +0.210 C 
ATOM     19  C   UNL     1       3.358  19.227  13.169  0.00  0.00    +0.109 C 
ATOM     20  O   UNL     1       3.519  20.889  11.429  0.00  0.00    -0.276 OA
ENDBRANCH  15  16
BRANCH  12  21
ATOM     21  C   UNL     1       0.190  15.217   9.072  0.00  0.00    +0.414 C 
ATOM     22  O   UNL     1      -0.959  15.594   8.847  0.00  0.00    -0.240 OA
ATOM     23  O   UNL     1       0.935  14.958   8.126  0.00  0.00    -0.240 OA
ENDBRANCH  12  21
BRANCH  12  24
ATOM     24  O   UNL     1       0.257  13.796  11.065  0.00  0.00    -0.343 OA
ATOM     25  C   UNL     1      -0.835  13.874  12.015  0.00  0.00    +0.198 C 
ENDBRANCH  12  24
BRANCH  14  26
ATOM     26  O   UNL     1       4.194  16.548  10.440  0.00  0.00    -0.390 OA
ATOM     27  H   UNL     1       4.625  16.532   9.583  0.00  0.00    +0.210 HD
ENDBRANCH  14  26
ENDBRANCH   9  10
BRANCH   9  28
ATOM     28  O   UNL     1      -1.081  17.731  12.822  0.00  0.00    -0.387 OA
ATOM     29  H   UNL     1      -1.803  18.310  13.080  0.00  0.00    +0.210 HD
ENDBRANCH   9  28
ENDBRANCH   6   9
ENDBRANCH   5   6
ENDBRANCH   3   5
BRANCH   1  30
ATOM     30  O   UNL     1      -0.198  20.860  15.670  0.00  0.00    -0.444 OA
BRANCH  30  31
ATOM     31  C   UNL     1      -0.249  22.054  16.456  0.00  0.00    +0.292 C 
BRANCH  31  33
ATOM     32  N   UNL     1       0.580  22.432  18.766  0.00  0.00    -0.131 NA
ATOM     33  C   UNL     1      -0.228  21.742  17.899  0.00  0.00    +0.120 A 
ATOM     34  C   UNL     1      -0.914  20.776  18.602  0.00  0.00    +0.137 A 
ATOM     35  N   UNL     1      -0.446  20.898  19.877  0.00  0.00    -0.251 N 
ATOM     36  N   UNL     1       0.436  21.908  19.976  0.00  0.00    -0.065 NA
BRANCH  35  37
ATOM     37  C   UNL     1      -0.671  20.007  21.006  0.00  0.00    +0.160 C 
BRANCH  37  38
ATOM     38  C   UNL     1      -1.632  18.853  20.704  0.00  0.00    +0.131 C 
BRANCH  38  39
ATOM     39  C   UNL     1      -0.838  17.558  20.806  0.00  0.00    +0.311 C 
ATOM     40  O   UNL     1      -1.113  16.672  21.601  0.00  0.00    -0.251 OA
BRANCH  39  41
ATOM     41  O   UNL     1       0.138  17.368  19.893  0.00  0.00    -0.480 OA
ATOM     42  H   UNL     1       0.061  17.806  19.029  0.00  0.00    +0.295 HD
ENDBRANCH  39  41
ENDBRANCH  38  39
BRANCH  38  43
ATOM     43  C   UNL     1      -2.915  18.822  21.594  0.00  0.00    +0.064 C 
BRANCH  43  44
ATOM     44  C   UNL     1      -3.036  19.947  22.624  0.00  0.00    -0.039 A 
ATOM     45  C   UNL     1      -2.900  19.655  23.996  0.00  0.00    +0.004 A 
ATOM     46  C   UNL     1      -3.005  20.660  24.963  0.00  0.00    +0.000 A 
ATOM     47  C   UNL     1      -3.265  21.972  24.581  0.00  0.00    +0.000 A 
ATOM     48  C   UNL     1      -3.421  22.277  23.232  0.00  0.00    +0.000 A 
ATOM     49  C   UNL     1      -3.297  21.276  22.262  0.00  0.00    +0.004 A 
ENDBRANCH  43  44
BRANCH  43  50
ATOM     50  C   UNL     1      -4.165  18.677  20.717  0.00  0.00    -0.039 A 
ATOM     51  C   UNL     1      -4.250  19.343  19.484  0.00  0.00    +0.004 A 
ATOM     52  C   UNL     1      -5.449  19.354  18.763  0.00  0.00    +0.000 A 
ATOM     53  C   UNL     1      -6.567  18.681  19.250  0.00  0.00    +0.000 A 
ATOM     54  C   UNL     1      -6.488  17.986  20.450  0.00  0.00    +0.000 A 
ATOM     55  C   UNL     1      -5.298  17.984  21.177  0.00  0.00    +0.004 A 
ENDBRANCH  43  50
ENDBRANCH  38  43
ENDBRANCH  37  38
ENDBRANCH  35  37
ENDBRANCH  31  33
ENDBRANCH  30  31
ENDBRANCH   1  30
TORSDOF 20
