REMARK VINA RESULT:    -6.432      1.750      2.450
REMARK INTER + INTRA:         -15.905
REMARK INTER:                 -13.312
REMARK INTRA:                  -2.593
REMARK UNBOUND:                -3.269
REMARK  Name = lig_assembled_84.pdb
REMARK  21 active torsions:
REMARK  status: ('A' for Active; 'I' for Inactive)
REMARK    1  A    between atoms: _2  and  _11
REMARK    2  A    between atoms: _3  and  _14
REMARK    3  A    between atoms: _4  and  _17
REMARK    4  A    between atoms: _6  and  _28
REMARK    5  A    between atoms: _8  and  _9
REMARK    6  A    between atoms: _8  and  _28
REMARK    7  A    between atoms: _11  and  _12
REMARK    8  A    between atoms: _12  and  _13
REMARK    9  A    between atoms: _12  and  _14
REMARK   10  A    between atoms: _24  and  _44
REMARK   11  A    between atoms: _26  and  _32
REMARK   12  A    between atoms: _27  and  _31
REMARK   13  A    between atoms: _31  and  _32
REMARK   14  A    between atoms: _34  and  _35
REMARK   15  A    between atoms: _36  and  _37
REMARK   16  A    between atoms: _38  and  _40
REMARK   17  A    between atoms: _40  and  _41
REMARK   18  A    between atoms: _40  and  _42
REMARK   19  A    between atoms: _42  and  _43
REMARK   20  A    between atoms: _42  and  _44
REMARK   21  A    between atoms: _45  and  _47
REMARK                            x       y       z     vdW  Elec       q    Type
REMARK                         _______ _______ _______ _____ _____    ______ ____
ROOT
ATOM      1  C   UNL     1       4.895   1.864  31.687  0.00  0.00    +0.401 C 
ATOM      2  O   UNL     1       5.337   0.713  31.682  0.00  0.00    -0.226 OA
ATOM      3  N   UNL     1       5.596   2.931  32.073  0.00  0.00    -0.279 N 
ATOM      4  H   UNL     1       5.149   3.836  32.031  0.00  0.00    +0.152 HD
ENDROOT
BRANCH   1   5
ATOM      5  O   UNL     1       3.552   2.093  31.252  0.00  0.00    -0.444 OA
BRANCH   5   6
ATOM      6  C   UNL     1       3.064   0.932  30.575  0.00  0.00    +0.292 C 
BRANCH   6   8
ATOM      7  N   UNL     1       1.109   0.280  29.196  0.00  0.00    -0.131 NA
ATOM      8  C   UNL     1       1.694   1.154  30.076  0.00  0.00    +0.120 A 
ATOM      9  C   UNL     1       0.822   2.190  30.326  0.00  0.00    +0.137 A 
ATOM     10  N   UNL     1      -0.245   1.923  29.520  0.00  0.00    -0.251 N 
ATOM     11  N   UNL     1      -0.080   0.764  28.861  0.00  0.00    -0.065 NA
BRANCH  10  12
ATOM     12  C   UNL     1      -1.375   2.785  29.230  0.00  0.00    +0.149 C 
BRANCH  12  13
ATOM     13  C   UNL     1      -1.679   2.948  27.731  0.00  0.00    +0.021 C 
ATOM     14  C   UNL     1      -3.182   2.814  27.450  0.00  0.00    +0.010 C 
BRANCH  13  15
ATOM     15  C   UNL     1      -1.193   4.321  27.206  0.00  0.00    +0.089 C 
BRANCH  15  16
ATOM     16  N   UNL     1      -0.011   4.285  26.333  0.00  0.00    -0.299 NA
ATOM     17  C   UNL     1      -0.269   5.070  25.096  0.00  0.00    +0.103 C 
ATOM     18  C   UNL     1       0.977   5.132  24.189  0.00  0.00    +0.120 C 
ATOM     19  N   UNL     1       1.397   3.771  23.833  0.00  0.00    -0.327 N 
ATOM     20  C   UNL     1       1.625   2.888  24.986  0.00  0.00    +0.120 C 
ATOM     21  C   UNL     1       0.389   2.913  25.932  0.00  0.00    +0.103 C 
BRANCH  19  22
ATOM     22  C   UNL     1       1.611   3.376  22.533  0.00  0.00    +0.030 A 
ATOM     23  C   UNL     1       1.708   4.316  21.490  0.00  0.00    +0.024 A 
ATOM     24  C   UNL     1       1.901   3.932  20.158  0.00  0.00    +0.022 A 
ATOM     25  C   UNL     1       2.008   2.588  19.842  0.00  0.00    +0.041 A 
ATOM     26 CL   UNL     1       2.239   2.107  18.206  0.00  0.00    -0.084 Cl
ATOM     27  C   UNL     1       1.920   1.628  20.843  0.00  0.00    +0.022 A 
ATOM     28  C   UNL     1       1.721   2.025  22.173  0.00  0.00    +0.024 A 
ENDBRANCH  19  22
ENDBRANCH  15  16
ENDBRANCH  13  15
ENDBRANCH  12  13
ENDBRANCH  10  12
ENDBRANCH   6   8
ENDBRANCH   5   6
ENDBRANCH   1   5
BRANCH   3  29
ATOM     29  C   UNL     1       6.981   2.864  32.554  0.00  0.00    +0.141 C 
BRANCH  29  30
ATOM     30  C   UNL     1       7.292   3.979  33.547  0.00  0.00    +0.163 C 
BRANCH  30  31
ATOM     31  O   UNL     1       7.761   5.144  32.848  0.00  0.00    -0.388 OA
ATOM     32  H   UNL     1       8.448   4.890  32.227  0.00  0.00    +0.210 HD
ENDBRANCH  30  31
BRANCH  30  33
ATOM     33  C   UNL     1       6.032   4.302  34.369  0.00  0.00    +0.175 C 
BRANCH  33  34
ATOM     34  C   UNL     1       6.286   5.405  35.407  0.00  0.00    +0.176 C 
ATOM     35  O   UNL     1       7.668   5.296  35.846  0.00  0.00    -0.332 OA
ATOM     36  C   UNL     1       8.125   6.342  36.767  0.00  0.00    +0.277 C 
ATOM     37  C   UNL     1       7.189   6.425  37.998  0.00  0.00    +0.110 C 
ATOM     38  C   UNL     1       5.706   6.509  37.581  0.00  0.00    +0.143 C 
ATOM     39  C   UNL     1       5.340   5.377  36.622  0.00  0.00    +0.133 C 
BRANCH  39  40
ATOM     40  N   UNL     1       3.949   5.518  36.164  0.00  0.00    -0.308 N 
ATOM     41  H   UNL     1       3.738   6.266  35.518  0.00  0.00    +0.149 HD
ATOM     42  C   UNL     1       2.946   4.724  36.547  0.00  0.00    +0.210 C 
ATOM     43  C   UNL     1       3.293   3.610  37.552  0.00  0.00    +0.109 C 
ATOM     44  O   UNL     1       1.792   4.857  36.136  0.00  0.00    -0.276 OA
ENDBRANCH  39  40
BRANCH  36  45
ATOM     45  C   UNL     1       8.169   7.712  36.060  0.00  0.00    +0.414 C 
ATOM     46  O   UNL     1       8.181   7.776  34.831  0.00  0.00    -0.240 OA
ATOM     47  O   UNL     1       8.192   8.754  36.717  0.00  0.00    -0.240 OA
ENDBRANCH  36  45
BRANCH  36  48
ATOM     48  O   UNL     1       9.454   5.986  37.226  0.00  0.00    -0.343 OA
ATOM     49  C   UNL     1       9.633   6.014  38.664  0.00  0.00    +0.198 C 
ENDBRANCH  36  48
BRANCH  38  50
ATOM     50  O   UNL     1       4.875   6.431  38.740  0.00  0.00    -0.390 OA
ATOM     51  H   UNL     1       5.369   6.724  39.510  0.00  0.00    +0.210 HD
ENDBRANCH  38  50
ENDBRANCH  33  34
BRANCH  33  52
ATOM     52  O   UNL     1       5.545   3.111  35.019  0.00  0.00    -0.387 OA
ATOM     53  H   UNL     1       4.669   3.276  35.376  0.00  0.00    +0.210 HD
ENDBRANCH  33  52
ENDBRANCH  30  33
ENDBRANCH  29  30
ENDBRANCH   3  29
TORSDOF 18
