REMARK VINA RESULT:    -6.558      5.815      7.320
REMARK INTER + INTRA:         -13.798
REMARK INTER:                 -11.754
REMARK INTRA:                  -2.044
REMARK UNBOUND:                -1.873
REMARK  Name = lig_assembled_60.pdb
REMARK  18 active torsions:
REMARK  status: ('A' for Active; 'I' for Inactive)
REMARK    1  A    between atoms: _2  and  _10
REMARK    2  A    between atoms: _3  and  _41
REMARK    3  A    between atoms: _5  and  _21
REMARK    4  A    between atoms: _7  and  _8
REMARK    5  A    between atoms: _7  and  _21
REMARK    6  A    between atoms: _13  and  _41
REMARK    7  A    between atoms: _17  and  _37
REMARK    8  A    between atoms: _19  and  _25
REMARK    9  A    between atoms: _20  and  _24
REMARK   10  A    between atoms: _24  and  _25
REMARK   11  A    between atoms: _27  and  _28
REMARK   12  A    between atoms: _29  and  _30
REMARK   13  A    between atoms: _31  and  _33
REMARK   14  A    between atoms: _33  and  _34
REMARK   15  A    between atoms: _33  and  _35
REMARK   16  A    between atoms: _35  and  _36
REMARK   17  A    between atoms: _35  and  _37
REMARK   18  A    between atoms: _38  and  _40
REMARK                            x       y       z     vdW  Elec       q    Type
REMARK                         _______ _______ _______ _____ _____    ______ ____
ROOT
ATOM      1  C   UNL     1       2.874   3.959  36.412  0.00  0.00    +0.141 C 
ENDROOT
BRANCH   1   4
ATOM      2  C   UNL     1       3.318   3.124  34.129  0.00  0.00    +0.401 C 
ATOM      3  O   UNL     1       2.298   3.623  33.647  0.00  0.00    -0.226 OA
ATOM      4  N   UNL     1       3.662   3.226  35.413  0.00  0.00    -0.279 N 
ATOM      5  H   UNL     1       4.513   2.774  35.717  0.00  0.00    +0.152 HD
BRANCH   2   6
ATOM      6  O   UNL     1       4.197   2.382  33.279  0.00  0.00    -0.444 OA
BRANCH   6   7
ATOM      7  C   UNL     1       4.551   1.152  33.916  0.00  0.00    +0.292 C 
BRANCH   7   9
ATOM      8  N   UNL     1       5.565  -1.022  33.304  0.00  0.00    -0.131 NA
ATOM      9  C   UNL     1       5.074   0.193  32.925  0.00  0.00    +0.121 A 
ATOM     10  C   UNL     1       5.155   0.303  31.556  0.00  0.00    +0.143 A 
ATOM     11  N   UNL     1       5.675  -0.899  31.132  0.00  0.00    -0.220 N 
ATOM     12  N   UNL     1       5.937  -1.676  32.212  0.00  0.00    -0.060 NA
BRANCH  11  13
ATOM     13  C   UNL     1       5.890  -1.352  29.805  0.00  0.00    +0.067 A 
ATOM     14  C   UNL     1       7.111  -1.942  29.440  0.00  0.00    +0.030 A 
ATOM     15  C   UNL     1       7.338  -2.320  28.115  0.00  0.00    +0.030 A 
ATOM     16  C   UNL     1       6.341  -2.123  27.156  0.00  0.00    +0.105 A 
ATOM     17  C   UNL     1       5.115  -1.552  27.511  0.00  0.00    +0.030 A 
ATOM     18  C   UNL     1       4.888  -1.173  28.837  0.00  0.00    +0.030 A 
BRANCH  16  19
ATOM     19  S   UNL     1       6.670  -2.534  25.468  0.00  0.00    +0.056 S 
ATOM     20  O   UNL     1       6.556  -3.963  25.294  0.00  0.00    -0.153 OA
ATOM     21  O   UNL     1       5.990  -1.590  24.611  0.00  0.00    -0.153 OA
BRANCH  19  22
ATOM     22  N   UNL     1       8.304  -2.179  25.344  0.00  0.00    -0.204 NA
ATOM     23  H   UNL     1       8.561  -2.068  24.363  0.00  0.00    +0.144 HD
ATOM     24  H   UNL     1       8.850  -2.888  25.835  0.00  0.00    +0.144 HD
ENDBRANCH  19  22
ENDBRANCH  16  19
ENDBRANCH  11  13
ENDBRANCH   7   9
ENDBRANCH   6   7
ENDBRANCH   2   6
ENDBRANCH   1   4
BRANCH   1  25
ATOM     25  C   UNL     1       3.279   5.428  36.489  0.00  0.00    +0.163 C 
BRANCH  25  26
ATOM     26  O   UNL     1       2.115   6.250  36.674  0.00  0.00    -0.388 OA
ATOM     27  H   UNL     1       2.317   6.958  37.290  0.00  0.00    +0.210 HD
ENDBRANCH  25  26
BRANCH  25  28
ATOM     28  C   UNL     1       4.280   5.624  37.641  0.00  0.00    +0.175 C 
BRANCH  28  29
ATOM     29  C   UNL     1       5.577   6.299  37.171  0.00  0.00    +0.176 C 
ATOM     30  O   UNL     1       6.063   5.572  36.009  0.00  0.00    -0.332 OA
ATOM     31  C   UNL     1       7.246   6.140  35.355  0.00  0.00    +0.277 C 
ATOM     32  C   UNL     1       8.394   6.321  36.377  0.00  0.00    +0.110 C 
ATOM     33  C   UNL     1       7.917   7.062  37.644  0.00  0.00    +0.143 C 
ATOM     34  C   UNL     1       6.681   6.388  38.241  0.00  0.00    +0.133 C 
BRANCH  34  35
ATOM     35  N   UNL     1       6.185   7.153  39.396  0.00  0.00    -0.308 N 
ATOM     36  H   UNL     1       5.818   8.079  39.227  0.00  0.00    +0.149 HD
ATOM     37  C   UNL     1       6.187   6.702  40.654  0.00  0.00    +0.210 C 
ATOM     38  C   UNL     1       6.776   5.297  40.882  0.00  0.00    +0.109 C 
ATOM     39  O   UNL     1       5.751   7.359  41.600  0.00  0.00    -0.276 OA
ENDBRANCH  34  35
BRANCH  31  40
ATOM     40  C   UNL     1       6.912   7.500  34.707  0.00  0.00    +0.414 C 
ATOM     41  O   UNL     1       5.775   7.729  34.296  0.00  0.00    -0.240 OA
ATOM     42  O   UNL     1       7.779   8.368  34.596  0.00  0.00    -0.240 OA
ENDBRANCH  31  40
BRANCH  33  43
ATOM     43  O   UNL     1       8.962   7.074  38.618  0.00  0.00    -0.390 OA
ATOM     44  H   UNL     1       9.753   6.677  38.244  0.00  0.00    +0.210 HD
ENDBRANCH  33  43
BRANCH  31  45
ATOM     45  O   UNL     1       7.685   5.207  34.334  0.00  0.00    -0.343 OA
ATOM     46  C   UNL     1       7.049   3.905  34.379  0.00  0.00    +0.198 C 
ENDBRANCH  31  45
ENDBRANCH  28  29
BRANCH  28  47
ATOM     47  O   UNL     1       4.576   4.358  38.263  0.00  0.00    -0.387 OA
ATOM     48  H   UNL     1       5.273   3.916  37.774  0.00  0.00    +0.210 HD
ENDBRANCH  28  47
ENDBRANCH  25  28
ENDBRANCH   1  25
TORSDOF 16
