REMARK VINA RESULT:    -6.128      8.314     12.072
REMARK INTER + INTRA:         -14.476
REMARK INTER:                 -11.914
REMARK INTRA:                  -2.562
REMARK UNBOUND:                -2.615
REMARK  Name = lig_assembled_83.pdb
REMARK  20 active torsions:
REMARK  status: ('A' for Active; 'I' for Inactive)
REMARK    1  A    between atoms: _2  and  _12
REMARK    2  A    between atoms: _3  and  _14
REMARK    3  A    between atoms: _7  and  _24
REMARK    4  A    between atoms: _9  and  _10
REMARK    5  A    between atoms: _9  and  _24
REMARK    6  A    between atoms: _12  and  _13
REMARK    7  A    between atoms: _13  and  _14
REMARK    8  A    between atoms: _13  and  _18
REMARK    9  A    between atoms: _20  and  _40
REMARK   10  A    between atoms: _22  and  _28
REMARK   11  A    between atoms: _23  and  _27
REMARK   12  A    between atoms: _27  and  _28
REMARK   13  A    between atoms: _30  and  _31
REMARK   14  A    between atoms: _32  and  _33
REMARK   15  A    between atoms: _34  and  _36
REMARK   16  A    between atoms: _36  and  _37
REMARK   17  A    between atoms: _36  and  _38
REMARK   18  A    between atoms: _38  and  _39
REMARK   19  A    between atoms: _38  and  _40
REMARK   20  A    between atoms: _41  and  _43
REMARK                            x       y       z     vdW  Elec       q    Type
REMARK                         _______ _______ _______ _____ _____    ______ ____
ROOT
ATOM      1  C   UNL     1      11.302   3.337  37.425  0.00  0.00    +0.141 C 
ENDROOT
BRANCH   1   4
ATOM      2  C   UNL     1      12.513   3.093  35.285  0.00  0.00    +0.401 C 
ATOM      3  O   UNL     1      12.048   1.977  35.041  0.00  0.00    -0.226 OA
ATOM      4  N   UNL     1      12.223   3.798  36.379  0.00  0.00    -0.279 N 
ATOM      5  H   UNL     1      12.662   4.700  36.495  0.00  0.00    +0.152 HD
BRANCH   2   6
ATOM      6  O   UNL     1      13.423   3.685  34.354  0.00  0.00    -0.444 OA
BRANCH   6   7
ATOM      7  C   UNL     1      14.714   3.803  34.958  0.00  0.00    +0.292 C 
BRANCH   7   9
ATOM      8  N   UNL     1      14.642   6.280  35.116  0.00  0.00    -0.131 NA
ATOM      9  C   UNL     1      15.282   5.139  34.704  0.00  0.00    +0.120 A 
ATOM     10  C   UNL     1      16.451   5.488  34.067  0.00  0.00    +0.137 A 
ATOM     11  N   UNL     1      16.471   6.847  34.140  0.00  0.00    -0.249 N 
ATOM     12  N   UNL     1      15.379   7.324  34.759  0.00  0.00    -0.065 NA
BRANCH  11  13
ATOM     13  C   UNL     1      17.472   7.749  33.611  0.00  0.00    +0.178 C 
BRANCH  13  14
ATOM     14  C   UNL     1      16.990   8.454  32.339  0.00  0.00    +0.156 C 
BRANCH  14  15
ATOM     15  O   UNL     1      15.802   7.819  31.852  0.00  0.00    -0.388 OA
ATOM     16  H   UNL     1      15.014   8.262  32.226  0.00  0.00    +0.210 HD
ENDBRANCH  14  15
BRANCH  14  17
ATOM     17  C   UNL     1      16.725   9.942  32.616  0.00  0.00    +0.162 C 
BRANCH  17  18
ATOM     18  N   UNL     1      17.917  10.760  32.457  0.00  0.00    -0.269 N 
ATOM     19  C   UNL     1      18.746  10.686  31.361  0.00  0.00    +0.113 A 
ATOM     20  C   UNL     1      19.725  11.628  31.575  0.00  0.00    +0.137 A 
ATOM     21  N   UNL     1      19.541  12.256  32.776  0.00  0.00    -0.172 NA
ATOM     22  C   UNL     1      18.445  11.722  33.284  0.00  0.00    +0.450 A 
ATOM     23  N   UNL     1      17.900  12.134  34.558  0.00  0.00    +0.120 N 
ATOM     24  O   UNL     1      16.864  11.572  34.950  0.00  0.00    +0.045 OA
ATOM     25  O   UNL     1      18.509  13.010  35.183  0.00  0.00    -0.573 OA
ENDBRANCH  17  18
ENDBRANCH  14  17
ENDBRANCH  13  14
ENDBRANCH  11  13
ENDBRANCH   7   9
ENDBRANCH   6   7
ENDBRANCH   2   6
ENDBRANCH   1   4
BRANCH   1  26
ATOM     26  C   UNL     1       9.960   4.058  37.359  0.00  0.00    +0.163 C 
BRANCH  26  27
ATOM     27  O   UNL     1      10.163   5.447  37.052  0.00  0.00    -0.388 OA
ATOM     28  H   UNL     1       9.349   5.820  36.704  0.00  0.00    +0.210 HD
ENDBRANCH  26  27
BRANCH  26  29
ATOM     29  C   UNL     1       9.067   3.385  36.302  0.00  0.00    +0.175 C 
BRANCH  29  30
ATOM     30  C   UNL     1       8.137   4.391  35.607  0.00  0.00    +0.176 C 
ATOM     31  O   UNL     1       7.472   5.172  36.638  0.00  0.00    -0.332 OA
ATOM     32  C   UNL     1       6.618   6.261  36.157  0.00  0.00    +0.277 C 
ATOM     33  C   UNL     1       5.570   5.723  35.151  0.00  0.00    +0.110 C 
ATOM     34  C   UNL     1       6.226   4.860  34.053  0.00  0.00    +0.143 C 
ATOM     35  C   UNL     1       7.094   3.760  34.666  0.00  0.00    +0.133 C 
BRANCH  35  36
ATOM     36  N   UNL     1       7.782   2.999  33.611  0.00  0.00    -0.308 N 
ATOM     37  H   UNL     1       8.457   3.488  33.040  0.00  0.00    +0.149 HD
ATOM     38  C   UNL     1       7.572   1.704  33.358  0.00  0.00    +0.210 C 
ATOM     39  C   UNL     1       6.518   0.994  34.228  0.00  0.00    +0.109 C 
ATOM     40  O   UNL     1       8.174   1.089  32.477  0.00  0.00    -0.276 OA
ENDBRANCH  35  36
BRANCH  32  41
ATOM     41  C   UNL     1       7.463   7.362  35.482  0.00  0.00    +0.414 C 
ATOM     42  O   UNL     1       6.972   8.070  34.603  0.00  0.00    -0.240 OA
ATOM     43  O   UNL     1       8.635   7.541  35.815  0.00  0.00    -0.240 OA
ENDBRANCH  32  41
BRANCH  32  44
ATOM     44  O   UNL     1       5.914   6.817  37.297  0.00  0.00    -0.343 OA
ATOM     45  C   UNL     1       4.746   6.069  37.720  0.00  0.00    +0.198 C 
ENDBRANCH  32  44
BRANCH  34  46
ATOM     46  O   UNL     1       5.214   4.263  33.241  0.00  0.00    -0.390 OA
ATOM     47  H   UNL     1       4.388   4.737  33.359  0.00  0.00    +0.210 HD
ENDBRANCH  34  46
ENDBRANCH  29  30
BRANCH  29  48
ATOM     48  O   UNL     1       8.294   2.328  36.905  0.00  0.00    -0.387 OA
ATOM     49  H   UNL     1       7.495   2.695  37.291  0.00  0.00    +0.210 HD
ENDBRANCH  29  48
ENDBRANCH  26  29
ENDBRANCH   1  26
TORSDOF 18
