REMARK VINA RESULT:    -6.798     18.406     24.115
REMARK INTER + INTRA:         -17.206
REMARK INTER:                 -14.680
REMARK INTRA:                  -2.526
REMARK UNBOUND:                -3.256
REMARK  Name = lig_assembled_47.pdb
REMARK  22 active torsions:
REMARK  status: ('A' for Active; 'I' for Inactive)
REMARK    1  A    between atoms: _2  and  _9
REMARK    2  A    between atoms: _4  and  _30
REMARK    3  A    between atoms: _6  and  _7
REMARK    4  A    between atoms: _6  and  _30
REMARK    5  A    between atoms: _9  and  _10
REMARK    6  A    between atoms: _10  and  _11
REMARK    7  A    between atoms: _10  and  _12
REMARK    8  A    between atoms: _11  and  _24
REMARK    9  A    between atoms: _12  and  _13
REMARK   10  A    between atoms: _12  and  _19
REMARK   11  A    between atoms: _26  and  _46
REMARK   12  A    between atoms: _28  and  _34
REMARK   13  A    between atoms: _29  and  _33
REMARK   14  A    between atoms: _33  and  _34
REMARK   15  A    between atoms: _36  and  _37
REMARK   16  A    between atoms: _38  and  _39
REMARK   17  A    between atoms: _40  and  _42
REMARK   18  A    between atoms: _42  and  _43
REMARK   19  A    between atoms: _42  and  _44
REMARK   20  A    between atoms: _44  and  _45
REMARK   21  A    between atoms: _44  and  _46
REMARK   22  A    between atoms: _47  and  _49
REMARK                            x       y       z     vdW  Elec       q    Type
REMARK                         _______ _______ _______ _____ _____    ______ ____
ROOT
ATOM      1  C   UNL     1       2.369   1.978  31.249  0.00  0.00    +0.401 C 
ATOM      2  O   UNL     1       1.769   2.175  32.309  0.00  0.00    -0.226 OA
ATOM      3  N   UNL     1       3.684   1.774  31.164  0.00  0.00    -0.279 N 
ATOM      4  H   UNL     1       4.083   1.612  30.250  0.00  0.00    +0.152 HD
ENDROOT
BRANCH   3   5
ATOM      5  C   UNL     1       4.585   1.773  32.323  0.00  0.00    +0.141 C 
BRANCH   5   6
ATOM      6  C   UNL     1       5.040   3.181  32.692  0.00  0.00    +0.163 C 
BRANCH   6   7
ATOM      7  O   UNL     1       4.130   3.758  33.642  0.00  0.00    -0.388 OA
ATOM      8  H   UNL     1       4.578   3.877  34.483  0.00  0.00    +0.210 HD
ENDBRANCH   6   7
BRANCH   6   9
ATOM      9  C   UNL     1       6.468   3.127  33.259  0.00  0.00    +0.175 C 
BRANCH   9  10
ATOM     10  C   UNL     1       6.611   3.957  34.544  0.00  0.00    +0.176 C 
ATOM     11  O   UNL     1       6.403   5.354  34.200  0.00  0.00    -0.332 OA
ATOM     12  C   UNL     1       6.397   6.291  35.328  0.00  0.00    +0.277 C 
ATOM     13  C   UNL     1       7.695   6.144  36.159  0.00  0.00    +0.110 C 
ATOM     14  C   UNL     1       7.976   4.671  36.522  0.00  0.00    +0.143 C 
ATOM     15  C   UNL     1       7.956   3.785  35.276  0.00  0.00    +0.133 C 
BRANCH  15  16
ATOM     16  N   UNL     1       8.138   2.373  35.644  0.00  0.00    -0.308 N 
ATOM     17  H   UNL     1       7.385   1.913  36.137  0.00  0.00    +0.149 HD
ATOM     18  C   UNL     1       9.233   1.659  35.371  0.00  0.00    +0.210 C 
ATOM     19  C   UNL     1      10.373   2.396  34.642  0.00  0.00    +0.109 C 
ATOM     20  O   UNL     1       9.352   0.472  35.679  0.00  0.00    -0.276 OA
ENDBRANCH  15  16
BRANCH  12  21
ATOM     21  C   UNL     1       5.174   6.046  36.236  0.00  0.00    +0.414 C 
ATOM     22  O   UNL     1       5.251   6.246  37.447  0.00  0.00    -0.240 OA
ATOM     23  O   UNL     1       4.110   5.650  35.757  0.00  0.00    -0.240 OA
ENDBRANCH  12  21
BRANCH  12  24
ATOM     24  O   UNL     1       6.346   7.638  34.792  0.00  0.00    -0.343 OA
ATOM     25  C   UNL     1       7.628   8.187  34.393  0.00  0.00    +0.198 C 
ENDBRANCH  12  24
BRANCH  14  26
ATOM     26  O   UNL     1       9.253   4.565  37.153  0.00  0.00    -0.390 OA
ATOM     27  H   UNL     1       9.232   3.859  37.802  0.00  0.00    +0.210 HD
ENDBRANCH  14  26
ENDBRANCH   9  10
BRANCH   9  28
ATOM     28  O   UNL     1       7.414   3.579  32.269  0.00  0.00    -0.387 OA
ATOM     29  H   UNL     1       7.017   4.277  31.742  0.00  0.00    +0.210 HD
ENDBRANCH   9  28
ENDBRANCH   6   9
ENDBRANCH   5   6
ENDBRANCH   3   5
BRANCH   1  30
ATOM     30  O   UNL     1       1.629   1.958  30.026  0.00  0.00    -0.444 OA
BRANCH  30  31
ATOM     31  C   UNL     1       2.152   2.947  29.135  0.00  0.00    +0.292 C 
BRANCH  31  33
ATOM     32  N   UNL     1       0.065   3.834  28.124  0.00  0.00    -0.131 NA
ATOM     33  C   UNL     1       1.250   3.157  27.985  0.00  0.00    +0.120 A 
ATOM     34  C   UNL     1       1.374   2.739  26.679  0.00  0.00    +0.137 A 
ATOM     35  N   UNL     1       0.215   3.148  26.087  0.00  0.00    -0.251 N 
ATOM     36  N   UNL     1      -0.559   3.824  26.953  0.00  0.00    -0.065 NA
BRANCH  35  37
ATOM     37  C   UNL     1      -0.287   2.806  24.764  0.00  0.00    +0.160 C 
BRANCH  37  38
ATOM     38  C   UNL     1       0.241   3.711  23.647  0.00  0.00    +0.131 C 
BRANCH  38  39
ATOM     39  C   UNL     1       0.609   5.047  24.276  0.00  0.00    +0.311 C 
ATOM     40  O   UNL     1       1.744   5.501  24.254  0.00  0.00    -0.251 OA
BRANCH  39  41
ATOM     41  O   UNL     1      -0.404   5.784  24.778  0.00  0.00    -0.480 OA
ATOM     42  H   UNL     1      -1.059   6.156  24.165  0.00  0.00    +0.295 HD
ENDBRANCH  39  41
ENDBRANCH  38  39
BRANCH  38  43
ATOM     43  C   UNL     1       1.423   3.108  22.823  0.00  0.00    +0.064 C 
BRANCH  43  44
ATOM     44  C   UNL     1       1.809   1.669  23.172  0.00  0.00    -0.039 A 
ATOM     45  C   UNL     1       1.032   0.600  22.686  0.00  0.00    +0.004 A 
ATOM     46  C   UNL     1       1.358  -0.727  22.986  0.00  0.00    +0.000 A 
ATOM     47  C   UNL     1       2.457  -1.010  23.791  0.00  0.00    +0.000 A 
ATOM     48  C   UNL     1       3.226   0.033  24.296  0.00  0.00    +0.000 A 
ATOM     49  C   UNL     1       2.912   1.360  23.982  0.00  0.00    +0.004 A 
ENDBRANCH  43  44
BRANCH  43  50
ATOM     50  C   UNL     1       1.184   3.317  21.322  0.00  0.00    -0.039 A 
ATOM     51  C   UNL     1       2.164   2.944  20.388  0.00  0.00    +0.004 A 
ATOM     52  C   UNL     1       2.027   3.287  19.039  0.00  0.00    +0.000 A 
ATOM     53  C   UNL     1       0.902   3.982  18.602  0.00  0.00    +0.000 A 
ATOM     54  C   UNL     1      -0.095   4.325  19.507  0.00  0.00    +0.000 A 
ATOM     55  C   UNL     1       0.046   3.996  20.855  0.00  0.00    +0.004 A 
ENDBRANCH  43  50
ENDBRANCH  38  43
ENDBRANCH  37  38
ENDBRANCH  35  37
ENDBRANCH  31  33
ENDBRANCH  30  31
ENDBRANCH   1  30
TORSDOF 20
