REMARK VINA RESULT:    -5.834      4.682      5.380
REMARK INTER + INTRA:         -12.975
REMARK INTER:                 -11.290
REMARK INTRA:                  -1.685
REMARK UNBOUND:                -2.536
REMARK  Name = lig_assembled_44.pdb
REMARK  17 active torsions:
REMARK  status: ('A' for Active; 'I' for Inactive)
REMARK    1  A    between atoms: _2  and  _9
REMARK    2  A    between atoms: _4  and  _19
REMARK    3  A    between atoms: _6  and  _7
REMARK    4  A    between atoms: _6  and  _19
REMARK    5  A    between atoms: _9  and  _10
REMARK    6  A    between atoms: _15  and  _35
REMARK    7  A    between atoms: _17  and  _23
REMARK    8  A    between atoms: _18  and  _22
REMARK    9  A    between atoms: _22  and  _23
REMARK   10  A    between atoms: _25  and  _26
REMARK   11  A    between atoms: _27  and  _28
REMARK   12  A    between atoms: _29  and  _31
REMARK   13  A    between atoms: _31  and  _32
REMARK   14  A    between atoms: _31  and  _33
REMARK   15  A    between atoms: _33  and  _34
REMARK   16  A    between atoms: _33  and  _35
REMARK   17  A    between atoms: _36  and  _38
REMARK                            x       y       z     vdW  Elec       q    Type
REMARK                         _______ _______ _______ _____ _____    ______ ____
ROOT
ATOM      1  C   UNL     1       6.671   2.735  32.867  0.00  0.00    +0.163 C 
ENDROOT
BRANCH   1   2
ATOM      2  O   UNL     1       6.294   3.085  31.525  0.00  0.00    -0.388 OA
ATOM      3  H   UNL     1       6.514   4.005  31.360  0.00  0.00    +0.210 HD
ENDBRANCH   1   2
BRANCH   1   4
ATOM      4  C   UNL     1       5.455   2.804  33.785  0.00  0.00    +0.141 C 
BRANCH   4   7
ATOM      5  C   UNL     1       3.296   3.219  32.658  0.00  0.00    +0.401 C 
ATOM      6  O   UNL     1       3.358   4.444  32.784  0.00  0.00    -0.226 OA
ATOM      7  N   UNL     1       4.228   2.376  33.102  0.00  0.00    -0.279 N 
ATOM      8  H   UNL     1       4.082   1.386  32.961  0.00  0.00    +0.152 HD
BRANCH   5   9
ATOM      9  O   UNL     1       2.161   2.645  32.004  0.00  0.00    -0.444 OA
BRANCH   9  10
ATOM     10  C   UNL     1       2.032   3.204  30.694  0.00  0.00    +0.292 C 
BRANCH  10  12
ATOM     11  N   UNL     1       2.041   2.427  28.340  0.00  0.00    -0.131 NA
ATOM     12  C   UNL     1       2.008   2.135  29.678  0.00  0.00    +0.120 A 
ATOM     13  C   UNL     1       1.972   0.769  29.839  0.00  0.00    +0.137 A 
ATOM     14  N   UNL     1       2.064   0.286  28.567  0.00  0.00    -0.247 N 
ATOM     15  N   UNL     1       2.064   1.285  27.666  0.00  0.00    -0.065 NA
BRANCH  14  16
ATOM     16  C   UNL     1       2.157  -1.095  28.136  0.00  0.00    +0.180 C 
BRANCH  16  17
ATOM     17  C   UNL     1       3.527  -1.412  27.585  0.00  0.00    -0.026 A 
ATOM     18  C   UNL     1       4.649  -1.443  28.428  0.00  0.00    +0.006 A 
ATOM     19  C   UNL     1       5.916  -1.720  27.913  0.00  0.00    +0.015 A 
ATOM     20  C   UNL     1       6.070  -1.968  26.550  0.00  0.00    +0.018 A 
ATOM     21 BR   UNL     1       7.785  -2.360  25.858  0.00  0.00    -0.050 Br
ATOM     22  C   UNL     1       4.971  -1.929  25.696  0.00  0.00    +0.015 A 
ATOM     23  C   UNL     1       3.702  -1.647  26.211  0.00  0.00    +0.006 A 
ENDBRANCH  16  17
ENDBRANCH  14  16
ENDBRANCH  10  12
ENDBRANCH   9  10
ENDBRANCH   5   9
ENDBRANCH   4   7
ENDBRANCH   1   4
BRANCH   1  24
ATOM     24  C   UNL     1       7.767   3.677  33.394  0.00  0.00    +0.175 C 
BRANCH  24  25
ATOM     25  C   UNL     1       7.453   4.198  34.804  0.00  0.00    +0.176 C 
ATOM     26  O   UNL     1       7.418   5.651  34.747  0.00  0.00    -0.332 OA
ATOM     27  C   UNL     1       7.026   6.325  35.988  0.00  0.00    +0.277 C 
ATOM     28  C   UNL     1       7.928   5.869  37.160  0.00  0.00    +0.110 C 
ATOM     29  C   UNL     1       8.021   4.330  37.242  0.00  0.00    +0.143 C 
ATOM     30  C   UNL     1       8.434   3.733  35.896  0.00  0.00    +0.133 C 
BRANCH  30  31
ATOM     31  N   UNL     1       8.434   2.263  35.963  0.00  0.00    -0.308 N 
ATOM     32  H   UNL     1       7.590   1.805  36.276  0.00  0.00    +0.149 HD
ATOM     33  C   UNL     1       9.477   1.495  35.637  0.00  0.00    +0.210 C 
ATOM     34  C   UNL     1      10.757   2.225  35.189  0.00  0.00    +0.109 C 
ATOM     35  O   UNL     1       9.444   0.265  35.689  0.00  0.00    -0.276 OA
ENDBRANCH  30  31
BRANCH  27  36
ATOM     36  C   UNL     1       5.550   6.030  36.328  0.00  0.00    +0.414 C 
ATOM     37  O   UNL     1       4.713   5.941  35.430  0.00  0.00    -0.240 OA
ATOM     38  O   UNL     1       5.197   5.880  37.498  0.00  0.00    -0.240 OA
ENDBRANCH  27  36
BRANCH  27  39
ATOM     39  O   UNL     1       7.207   7.752  35.800  0.00  0.00    -0.343 OA
ATOM     40  C   UNL     1       7.564   8.152  34.452  0.00  0.00    +0.198 C 
ENDBRANCH  27  39
BRANCH  29  41
ATOM     41  O   UNL     1       8.977   3.958  38.235  0.00  0.00    -0.390 OA
ATOM     42  H   UNL     1       8.815   4.455  39.040  0.00  0.00    +0.210 HD
ENDBRANCH  29  41
ENDBRANCH  24  25
BRANCH  24  43
ATOM     43  O   UNL     1       7.951   4.781  32.486  0.00  0.00    -0.387 OA
ATOM     44  H   UNL     1       8.273   5.545  32.971  0.00  0.00    +0.210 HD
ENDBRANCH  24  43
ENDBRANCH   1  24
TORSDOF 15
