REMARK VINA RESULT:    -6.972     14.490     17.007
REMARK INTER + INTRA:         -15.020
REMARK INTER:                 -12.751
REMARK INTRA:                  -2.269
REMARK UNBOUND:                -2.138
REMARK  Name = lig_assembled_92.pdb
REMARK  18 active torsions:
REMARK  status: ('A' for Active; 'I' for Inactive)
REMARK    1  A    between atoms: _2  and  _11
REMARK    2  A    between atoms: _3  and  _46
REMARK    3  A    between atoms: _6  and  _25
REMARK    4  A    between atoms: _8  and  _9
REMARK    5  A    between atoms: _8  and  _25
REMARK    6  A    between atoms: _14  and  _46
REMARK    7  A    between atoms: _21  and  _41
REMARK    8  A    between atoms: _23  and  _29
REMARK    9  A    between atoms: _24  and  _28
REMARK   10  A    between atoms: _28  and  _29
REMARK   11  A    between atoms: _31  and  _32
REMARK   12  A    between atoms: _33  and  _34
REMARK   13  A    between atoms: _35  and  _37
REMARK   14  A    between atoms: _37  and  _38
REMARK   15  A    between atoms: _37  and  _39
REMARK   16  A    between atoms: _39  and  _40
REMARK   17  A    between atoms: _39  and  _41
REMARK   18  A    between atoms: _42  and  _44
REMARK                            x       y       z     vdW  Elec       q    Type
REMARK                         _______ _______ _______ _____ _____    ______ ____
ROOT
ATOM      1  C   UNL     1       4.365   2.097  31.671  0.00  0.00    +0.401 C 
ATOM      2  O   UNL     1       4.677   0.904  31.676  0.00  0.00    -0.226 OA
ATOM      3  N   UNL     1       5.201   3.088  31.984  0.00  0.00    -0.279 N 
ATOM      4  H   UNL     1       4.854   4.036  31.941  0.00  0.00    +0.152 HD
ENDROOT
BRANCH   3   5
ATOM      5  C   UNL     1       6.597   2.878  32.387  0.00  0.00    +0.141 C 
BRANCH   5   6
ATOM      6  C   UNL     1       7.017   3.833  33.500  0.00  0.00    +0.163 C 
BRANCH   6   7
ATOM      7  O   UNL     1       7.640   4.999  32.938  0.00  0.00    -0.388 OA
ATOM      8  H   UNL     1       8.524   4.776  32.637  0.00  0.00    +0.210 HD
ENDBRANCH   6   7
BRANCH   6   9
ATOM      9  C   UNL     1       5.786   4.218  34.339  0.00  0.00    +0.175 C 
BRANCH   9  10
ATOM     10  C   UNL     1       6.103   5.321  35.358  0.00  0.00    +0.176 C 
ATOM     11  O   UNL     1       7.491   5.168  35.766  0.00  0.00    -0.332 OA
ATOM     12  C   UNL     1       8.006   6.206  36.664  0.00  0.00    +0.277 C 
ATOM     13  C   UNL     1       7.104   6.334  37.916  0.00  0.00    +0.110 C 
ATOM     14  C   UNL     1       5.615   6.467  37.534  0.00  0.00    +0.143 C 
ATOM     15  C   UNL     1       5.186   5.339  36.595  0.00  0.00    +0.133 C 
BRANCH  15  16
ATOM     16  N   UNL     1       3.790   5.525  36.170  0.00  0.00    -0.308 N 
ATOM     17  H   UNL     1       3.590   6.275  35.523  0.00  0.00    +0.149 HD
ATOM     18  C   UNL     1       2.770   4.768  36.582  0.00  0.00    +0.210 C 
ATOM     19  C   UNL     1       3.103   3.650  37.588  0.00  0.00    +0.109 C 
ATOM     20  O   UNL     1       1.612   4.938  36.197  0.00  0.00    -0.276 OA
ENDBRANCH  15  16
BRANCH  12  21
ATOM     21  C   UNL     1       8.081   7.567  35.941  0.00  0.00    +0.414 C 
ATOM     22  O   UNL     1       7.955   7.628  34.719  0.00  0.00    -0.240 OA
ATOM     23  O   UNL     1       8.267   8.603  36.580  0.00  0.00    -0.240 OA
ENDBRANCH  12  21
BRANCH  14  24
ATOM     24  O   UNL     1       4.810   6.430  38.713  0.00  0.00    -0.390 OA
ATOM     25  H   UNL     1       3.938   6.782  38.518  0.00  0.00    +0.210 HD
ENDBRANCH  14  24
BRANCH  12  26
ATOM     26  O   UNL     1       9.333   5.808  37.095  0.00  0.00    -0.343 OA
ATOM     27  C   UNL     1       9.620   4.393  36.965  0.00  0.00    +0.198 C 
ENDBRANCH  12  26
ENDBRANCH   9  10
BRANCH   9  28
ATOM     28  O   UNL     1       5.260   3.056  35.012  0.00  0.00    -0.387 OA
ATOM     29  H   UNL     1       4.307   3.134  35.088  0.00  0.00    +0.210 HD
ENDBRANCH   9  28
ENDBRANCH   6   9
ENDBRANCH   5   6
ENDBRANCH   3   5
BRANCH   1  30
ATOM     30  O   UNL     1       3.032   2.465  31.307  0.00  0.00    -0.444 OA
BRANCH  30  31
ATOM     31  C   UNL     1       2.533   1.547  30.329  0.00  0.00    +0.292 C 
BRANCH  31  33
ATOM     32  N   UNL     1       1.876   3.598  29.102  0.00  0.00    -0.131 NA
ATOM     33  C   UNL     1       2.161   2.264  29.095  0.00  0.00    +0.121 A 
ATOM     34  C   UNL     1       2.047   1.787  27.810  0.00  0.00    +0.143 A 
ATOM     35  N   UNL     1       1.715   2.886  27.051  0.00  0.00    -0.220 N 
ATOM     36  N   UNL     1       1.599   3.968  27.857  0.00  0.00    -0.060 NA
BRANCH  35  37
ATOM     37  C   UNL     1       1.542   2.965  25.646  0.00  0.00    +0.067 A 
ATOM     38  C   UNL     1       1.907   1.887  24.824  0.00  0.00    +0.030 A 
ATOM     39  C   UNL     1       1.791   1.991  23.438  0.00  0.00    +0.031 A 
ATOM     40  C   UNL     1       1.298   3.166  22.868  0.00  0.00    +0.109 A 
ATOM     41  C   UNL     1       0.921   4.244  23.673  0.00  0.00    +0.031 A 
ATOM     42  C   UNL     1       1.034   4.139  25.065  0.00  0.00    +0.030 A 
BRANCH  40  43
ATOM     43  S   UNL     1       1.309   3.318  21.102  0.00  0.00    +0.074 S 
ATOM     44  O   UNL     1      -0.068   3.254  20.650  0.00  0.00    -0.150 OA
ATOM     45  O   UNL     1       2.139   4.442  20.740  0.00  0.00    -0.150 OA
BRANCH  43  46
ATOM     46  N   UNL     1       2.006   1.869  20.586  0.00  0.00    -0.194 N 
ATOM     47  H   UNL     1       1.573   1.133  21.139  0.00  0.00    +0.176 HD
ATOM     48  C   UNL     1       1.870   1.679  19.195  0.00  0.00    +0.177 A 
ATOM     49  S   UNL     1       0.636   0.716  18.511  0.00  0.00    -0.059 S 
ATOM     50  C   UNL     1       1.331   0.968  16.962  0.00  0.00    +0.068 A 
ATOM     51  C   UNL     1       2.493   1.699  17.093  0.00  0.00    +0.120 A 
ATOM     52  N   UNL     1       2.783   2.134  18.373  0.00  0.00    -0.232 NA
ENDBRANCH  43  46
ENDBRANCH  40  43
ENDBRANCH  35  37
ENDBRANCH  31  33
ENDBRANCH  30  31
ENDBRANCH   1  30
TORSDOF 16
