REMARK VINA RESULT:    -6.280     13.972     17.949
REMARK INTER + INTRA:         -14.769
REMARK INTER:                 -12.702
REMARK INTRA:                  -2.067
REMARK UNBOUND:                -2.615
REMARK  Name = lig_assembled_83.pdb
REMARK  20 active torsions:
REMARK  status: ('A' for Active; 'I' for Inactive)
REMARK    1  A    between atoms: _2  and  _12
REMARK    2  A    between atoms: _3  and  _14
REMARK    3  A    between atoms: _7  and  _24
REMARK    4  A    between atoms: _9  and  _10
REMARK    5  A    between atoms: _9  and  _24
REMARK    6  A    between atoms: _12  and  _13
REMARK    7  A    between atoms: _13  and  _14
REMARK    8  A    between atoms: _13  and  _18
REMARK    9  A    between atoms: _20  and  _40
REMARK   10  A    between atoms: _22  and  _28
REMARK   11  A    between atoms: _23  and  _27
REMARK   12  A    between atoms: _27  and  _28
REMARK   13  A    between atoms: _30  and  _31
REMARK   14  A    between atoms: _32  and  _33
REMARK   15  A    between atoms: _34  and  _36
REMARK   16  A    between atoms: _36  and  _37
REMARK   17  A    between atoms: _36  and  _38
REMARK   18  A    between atoms: _38  and  _39
REMARK   19  A    between atoms: _38  and  _40
REMARK   20  A    between atoms: _41  and  _43
REMARK                            x       y       z     vdW  Elec       q    Type
REMARK                         _______ _______ _______ _____ _____    ______ ____
ROOT
ATOM      1  C   UNL     1       5.210   3.042  33.609  0.00  0.00    +0.141 C 
ENDROOT
BRANCH   1   4
ATOM      2  C   UNL     1       3.017   3.462  32.551  0.00  0.00    +0.401 C 
ATOM      3  O   UNL     1       2.605   2.313  32.729  0.00  0.00    -0.226 OA
ATOM      4  N   UNL     1       4.224   3.888  32.925  0.00  0.00    -0.279 N 
ATOM      5  H   UNL     1       4.475   4.846  32.727  0.00  0.00    +0.152 HD
BRANCH   2   6
ATOM      6  O   UNL     1       2.167   4.412  31.903  0.00  0.00    -0.444 OA
BRANCH   6   7
ATOM      7  C   UNL     1       0.908   3.802  31.607  0.00  0.00    +0.292 C 
BRANCH   7   9
ATOM      8  N   UNL     1       1.804   3.655  29.296  0.00  0.00    -0.131 NA
ATOM      9  C   UNL     1       0.731   3.663  30.150  0.00  0.00    +0.120 A 
ATOM     10  C   UNL     1      -0.425   3.527  29.415  0.00  0.00    +0.137 A 
ATOM     11  N   UNL     1       0.013   3.425  28.131  0.00  0.00    -0.249 N 
ATOM     12  N   UNL     1       1.351   3.514  28.057  0.00  0.00    -0.065 NA
BRANCH  11  13
ATOM     13  C   UNL     1      -0.784   3.282  26.931  0.00  0.00    +0.178 C 
BRANCH  13  14
ATOM     14  C   UNL     1       0.025   2.687  25.776  0.00  0.00    +0.156 C 
BRANCH  14  15
ATOM     15  O   UNL     1       0.170   1.274  25.959  0.00  0.00    -0.388 OA
ATOM     16  H   UNL     1      -0.510   0.802  25.437  0.00  0.00    +0.210 HD
ENDBRANCH  14  15
BRANCH  14  17
ATOM     17  C   UNL     1      -0.658   2.983  24.431  0.00  0.00    +0.162 C 
BRANCH  17  18
ATOM     18  N   UNL     1       0.264   2.911  23.309  0.00  0.00    -0.269 N 
ATOM     19  C   UNL     1       0.419   1.789  22.527  0.00  0.00    +0.113 A 
ATOM     20  C   UNL     1       1.345   2.132  21.569  0.00  0.00    +0.137 A 
ATOM     21  N   UNL     1       1.783   3.415  21.755  0.00  0.00    -0.172 NA
ATOM     22  C   UNL     1       1.115   3.863  22.801  0.00  0.00    +0.450 A 
ATOM     23  N   UNL     1       1.286   5.204  23.315  0.00  0.00    +0.120 N 
ATOM     24  O   UNL     1       0.610   5.532  24.303  0.00  0.00    +0.045 OA
ATOM     25  O   UNL     1       2.105   5.933  22.744  0.00  0.00    -0.573 OA
ENDBRANCH  17  18
ENDBRANCH  14  17
ENDBRANCH  13  14
ENDBRANCH  11  13
ENDBRANCH   7   9
ENDBRANCH   6   7
ENDBRANCH   2   6
ENDBRANCH   1   4
BRANCH   1  26
ATOM     26  C   UNL     1       6.472   2.851  32.774  0.00  0.00    +0.163 C 
BRANCH  26  27
ATOM     27  O   UNL     1       6.227   3.247  31.414  0.00  0.00    -0.388 OA
ATOM     28  H   UNL     1       5.393   2.874  31.118  0.00  0.00    +0.210 HD
ENDBRANCH  26  27
BRANCH  26  29
ATOM     29  C   UNL     1       7.622   3.671  33.386  0.00  0.00    +0.175 C 
BRANCH  29  30
ATOM     30  C   UNL     1       7.274   4.199  34.785  0.00  0.00    +0.176 C 
ATOM     31  O   UNL     1       7.274   5.652  34.727  0.00  0.00    -0.332 OA
ATOM     32  C   UNL     1       6.856   6.336  35.955  0.00  0.00    +0.277 C 
ATOM     33  C   UNL     1       7.710   5.860  37.156  0.00  0.00    +0.110 C 
ATOM     34  C   UNL     1       7.766   4.320  37.240  0.00  0.00    +0.143 C 
ATOM     35  C   UNL     1       8.208   3.713  35.908  0.00  0.00    +0.133 C 
BRANCH  35  36
ATOM     36  N   UNL     1       8.174   2.244  35.975  0.00  0.00    -0.308 N 
ATOM     37  H   UNL     1       7.308   1.804  36.256  0.00  0.00    +0.149 HD
ATOM     38  C   UNL     1       9.211   1.453  35.688  0.00  0.00    +0.210 C 
ATOM     39  C   UNL     1      10.523   2.154  35.289  0.00  0.00    +0.109 C 
ATOM     40  O   UNL     1       9.149   0.224  35.739  0.00  0.00    -0.276 OA
ENDBRANCH  35  36
BRANCH  32  41
ATOM     41  C   UNL     1       5.364   6.073  36.247  0.00  0.00    +0.414 C 
ATOM     42  O   UNL     1       4.957   6.033  37.407  0.00  0.00    -0.240 OA
ATOM     43  O   UNL     1       4.568   5.902  35.323  0.00  0.00    -0.240 OA
ENDBRANCH  32  41
BRANCH  32  44
ATOM     44  O   UNL     1       7.076   7.758  35.774  0.00  0.00    -0.343 OA
ATOM     45  C   UNL     1       7.579   8.139  34.468  0.00  0.00    +0.198 C 
ENDBRANCH  32  44
BRANCH  34  46
ATOM     46  O   UNL     1       8.681   3.926  38.264  0.00  0.00    -0.390 OA
ATOM     47  H   UNL     1       9.579   4.104  37.976  0.00  0.00    +0.210 HD
ENDBRANCH  34  46
ENDBRANCH  29  30
BRANCH  29  48
ATOM     48  O   UNL     1       7.971   4.765  32.514  0.00  0.00    -0.387 OA
ATOM     49  H   UNL     1       7.193   5.302  32.348  0.00  0.00    +0.210 HD
ENDBRANCH  29  48
ENDBRANCH  26  29
ENDBRANCH   1  26
TORSDOF 18
