REMARK VINA RESULT:    -7.569      1.658      3.653
REMARK INTER + INTRA:         -15.091
REMARK INTER:                 -13.080
REMARK INTRA:                  -2.011
REMARK UNBOUND:                -1.992
REMARK  Name = lig_assembled_25.pdb
REMARK  16 active torsions:
REMARK  status: ('A' for Active; 'I' for Inactive)
REMARK    1  A    between atoms: _2  and  _9
REMARK    2  A    between atoms: _4  and  _25
REMARK    3  A    between atoms: _6  and  _7
REMARK    4  A    between atoms: _6  and  _25
REMARK    5  A    between atoms: _21  and  _41
REMARK    6  A    between atoms: _23  and  _29
REMARK    7  A    between atoms: _24  and  _28
REMARK    8  A    between atoms: _28  and  _29
REMARK    9  A    between atoms: _31  and  _32
REMARK   10  A    between atoms: _33  and  _34
REMARK   11  A    between atoms: _35  and  _37
REMARK   12  A    between atoms: _37  and  _38
REMARK   13  A    between atoms: _37  and  _39
REMARK   14  A    between atoms: _39  and  _40
REMARK   15  A    between atoms: _39  and  _41
REMARK   16  A    between atoms: _42  and  _44
REMARK                            x       y       z     vdW  Elec       q    Type
REMARK                         _______ _______ _______ _____ _____    ______ ____
ROOT
ATOM      1  C   UNL     1       3.609   2.018  32.493  0.00  0.00    +0.141 C 
ENDROOT
BRANCH   1   4
ATOM      2  C   UNL     1       1.394   2.579  31.552  0.00  0.00    +0.401 C 
ATOM      3  O   UNL     1       1.094   3.345  32.471  0.00  0.00    -0.226 OA
ATOM      4  N   UNL     1       2.547   1.911  31.485  0.00  0.00    -0.279 N 
ATOM      5  H   UNL     1       2.698   1.298  30.697  0.00  0.00    +0.152 HD
BRANCH   2   6
ATOM      6  O   UNL     1       0.464   2.375  30.486  0.00  0.00    -0.444 OA
BRANCH   6   7
ATOM      7  C   UNL     1       0.189   3.623  29.846  0.00  0.00    +0.292 C 
BRANCH   7   9
ATOM      8  N   UNL     1      -0.277   3.939  27.441  0.00  0.00    -0.131 NA
ATOM      9  C   UNL     1       0.598   3.577  28.429  0.00  0.00    +0.120 A 
ATOM     10  C   UNL     1       1.789   3.188  27.857  0.00  0.00    +0.138 A 
ATOM     11  N   UNL     1       1.572   3.317  26.513  0.00  0.00    -0.240 N 
ATOM     12  N   UNL     1       0.327   3.782  26.272  0.00  0.00    -0.064 NA
BRANCH  11  13
ATOM     13  C   UNL     1       2.425   2.959  25.392  0.00  0.00    +0.170 C 
ATOM     14  C   UNL     1       2.037   3.685  24.111  0.00  0.00    -0.011 A 
ATOM     15  C   UNL     1       1.786   2.750  23.083  0.00  0.00    -0.012 A 
ATOM     16  C   UNL     1       1.965   1.411  23.610  0.00  0.00    -0.012 A 
ATOM     17  C   UNL     1       1.867   0.181  22.983  0.00  0.00    +0.009 A 
ATOM     18  C   UNL     1       2.127  -0.970  23.733  0.00  0.00    +0.001 A 
ATOM     19  C   UNL     1       2.473  -0.882  25.091  0.00  0.00    +0.000 A 
ATOM     20  C   UNL     1       2.572   0.358  25.727  0.00  0.00    +0.006 A 
ATOM     21  C   UNL     1       1.437   3.179  21.814  0.00  0.00    +0.009 A 
ATOM     22  C   UNL     1       1.343   4.554  21.578  0.00  0.00    +0.001 A 
ATOM     23  C   UNL     1       1.598   5.480  22.602  0.00  0.00    +0.000 A 
ATOM     24  C   UNL     1       1.952   5.052  23.882  0.00  0.00    +0.006 A 
ATOM     25  C   UNL     1       2.314   1.497  24.978  0.00  0.00    -0.011 A 
ENDBRANCH  11  13
ENDBRANCH   7   9
ENDBRANCH   6   7
ENDBRANCH   2   6
ENDBRANCH   1   4
BRANCH   1  26
ATOM     26  C   UNL     1       4.547   3.186  32.209  0.00  0.00    +0.163 C 
BRANCH  26  27
ATOM     27  O   UNL     1       4.019   4.392  32.787  0.00  0.00    -0.388 OA
ATOM     28  H   UNL     1       4.353   4.491  33.682  0.00  0.00    +0.210 HD
ENDBRANCH  26  27
BRANCH  26  29
ATOM     29  C   UNL     1       5.944   2.872  32.772  0.00  0.00    +0.175 C 
BRANCH  29  30
ATOM     30  C   UNL     1       6.167   3.506  34.153  0.00  0.00    +0.176 C 
ATOM     31  O   UNL     1       6.671   4.855  33.950  0.00  0.00    -0.332 OA
ATOM     32  C   UNL     1       6.845   5.656  35.165  0.00  0.00    +0.277 C 
ATOM     33  C   UNL     1       7.742   4.909  36.182  0.00  0.00    +0.110 C 
ATOM     34  C   UNL     1       7.263   3.460  36.407  0.00  0.00    +0.143 C 
ATOM     35  C   UNL     1       7.114   2.719  35.078  0.00  0.00    +0.133 C 
BRANCH  35  36
ATOM     36  N   UNL     1       6.575   1.368  35.298  0.00  0.00    -0.308 N 
ATOM     37  H   UNL     1       5.702   1.284  35.800  0.00  0.00    +0.149 HD
ATOM     38  C   UNL     1       7.164   0.245  34.879  0.00  0.00    +0.210 C 
ATOM     39  C   UNL     1       8.506   0.404  34.140  0.00  0.00    +0.109 C 
ATOM     40  O   UNL     1       6.681  -0.873  35.065  0.00  0.00    -0.276 OA
ENDBRANCH  35  36
BRANCH  32  41
ATOM     41  C   UNL     1       5.480   5.969  35.813  0.00  0.00    +0.414 C 
ATOM     42  O   UNL     1       5.373   6.023  37.038  0.00  0.00    -0.240 OA
ATOM     43  O   UNL     1       4.487   6.167  35.112  0.00  0.00    -0.240 OA
ENDBRANCH  32  41
BRANCH  34  44
ATOM     44  O   UNL     1       8.201   2.765  37.230  0.00  0.00    -0.390 OA
ATOM     45  H   UNL     1       7.929   1.849  37.323  0.00  0.00    +0.210 HD
ENDBRANCH  34  44
BRANCH  32  46
ATOM     46  O   UNL     1       7.505   6.894  34.796  0.00  0.00    -0.343 OA
ATOM     47  C   UNL     1       8.146   7.596  35.890  0.00  0.00    +0.198 C 
ENDBRANCH  32  46
ENDBRANCH  29  30
BRANCH  29  48
ATOM     48  O   UNL     1       6.961   3.316  31.852  0.00  0.00    -0.387 OA
ATOM     49  H   UNL     1       7.403   4.090  32.211  0.00  0.00    +0.210 HD
ENDBRANCH  29  48
ENDBRANCH  26  29
ENDBRANCH   1  26
TORSDOF 14
