REMARK VINA RESULT:    -6.027     15.947     19.121
REMARK INTER + INTRA:         -13.042
REMARK INTER:                 -10.889
REMARK INTRA:                  -2.153
REMARK UNBOUND:                -2.083
REMARK  Name = lig_assembled_35.pdb
REMARK  19 active torsions:
REMARK  status: ('A' for Active; 'I' for Inactive)
REMARK    1  A    between atoms: _2  and  _9
REMARK    2  A    between atoms: _4  and  _17
REMARK    3  A    between atoms: _5  and  _9
REMARK    4  A    between atoms: _5  and  _11
REMARK    5  A    between atoms: _6  and  _7
REMARK    6  A    between atoms: _6  and  _17
REMARK    7  A    between atoms: _9  and  _10
REMARK    8  A    between atoms: _13  and  _33
REMARK    9  A    between atoms: _15  and  _21
REMARK   10  A    between atoms: _16  and  _20
REMARK   11  A    between atoms: _20  and  _21
REMARK   12  A    between atoms: _23  and  _24
REMARK   13  A    between atoms: _25  and  _26
REMARK   14  A    between atoms: _27  and  _29
REMARK   15  A    between atoms: _29  and  _30
REMARK   16  A    between atoms: _29  and  _31
REMARK   17  A    between atoms: _31  and  _32
REMARK   18  A    between atoms: _31  and  _33
REMARK   19  A    between atoms: _34  and  _36
REMARK                            x       y       z     vdW  Elec       q    Type
REMARK                         _______ _______ _______ _____ _____    ______ ____
ROOT
ATOM      1  C   UNL     1       2.930   3.037  30.879  0.00  0.00    +0.163 C 
ENDROOT
BRANCH   1   2
ATOM      2  O   UNL     1       2.986   1.697  30.364  0.00  0.00    -0.388 OA
ATOM      3  H   UNL     1       2.101   1.324  30.345  0.00  0.00    +0.210 HD
ENDBRANCH   1   2
BRANCH   1   4
ATOM      4  C   UNL     1       1.491   3.581  30.844  0.00  0.00    +0.175 C 
BRANCH   4   5
ATOM      5  C   UNL     1       0.777   3.241  29.527  0.00  0.00    +0.176 C 
ATOM      6  O   UNL     1       1.610   3.710  28.432  0.00  0.00    -0.332 OA
ATOM      7  C   UNL     1       1.135   3.377  27.086  0.00  0.00    +0.277 C 
ATOM      8  C   UNL     1      -0.318   3.872  26.887  0.00  0.00    +0.110 C 
ATOM      9  C   UNL     1      -1.236   3.424  28.044  0.00  0.00    +0.143 C 
ATOM     10  C   UNL     1      -0.645   3.819  29.397  0.00  0.00    +0.133 C 
BRANCH  10  11
ATOM     11  N   UNL     1      -1.484   3.311  30.494  0.00  0.00    -0.308 N 
ATOM     12  H   UNL     1      -1.594   2.310  30.579  0.00  0.00    +0.149 HD
ATOM     13  C   UNL     1      -2.109   4.085  31.385  0.00  0.00    +0.210 C 
ATOM     14  C   UNL     1      -1.941   5.607  31.213  0.00  0.00    +0.109 C 
ATOM     15  O   UNL     1      -2.793   3.631  32.302  0.00  0.00    -0.276 OA
ENDBRANCH  10  11
BRANCH   7  16
ATOM     16  C   UNL     1       1.199   1.854  26.845  0.00  0.00    +0.414 C 
ATOM     17  O   UNL     1       1.999   1.160  27.472  0.00  0.00    -0.240 OA
ATOM     18  O   UNL     1       0.451   1.320  26.025  0.00  0.00    -0.240 OA
ENDBRANCH   7  16
BRANCH   7  19
ATOM     19  O   UNL     1       1.986   4.058  26.128  0.00  0.00    -0.343 OA
ATOM     20  C   UNL     1       1.334   4.433  24.888  0.00  0.00    +0.198 C 
ENDBRANCH   7  19
BRANCH   9  21
ATOM     21  O   UNL     1      -2.523   4.026  27.899  0.00  0.00    -0.390 OA
ATOM     22  H   UNL     1      -2.481   4.714  27.231  0.00  0.00    +0.210 HD
ENDBRANCH   9  21
ENDBRANCH   4   5
BRANCH   4  23
ATOM     23  O   UNL     1       1.494   5.007  31.053  0.00  0.00    -0.387 OA
ATOM     24  H   UNL     1       1.091   5.206  31.902  0.00  0.00    +0.210 HD
ENDBRANCH   4  23
ENDBRANCH   1   4
BRANCH   1  25
ATOM     25  C   UNL     1       3.451   3.067  32.312  0.00  0.00    +0.141 C 
BRANCH  25  28
ATOM     26  C   UNL     1       5.871   2.601  32.132  0.00  0.00    +0.401 C 
ATOM     27  O   UNL     1       5.717   1.411  31.849  0.00  0.00    -0.226 OA
ATOM     28  N   UNL     1       4.868   3.447  32.371  0.00  0.00    -0.279 N 
ATOM     29  H   UNL     1       5.096   4.403  32.605  0.00  0.00    +0.152 HD
BRANCH  26  30
ATOM     30  O   UNL     1       7.198   3.127  32.221  0.00  0.00    -0.444 OA
BRANCH  30  31
ATOM     31  C   UNL     1       7.657   3.040  33.572  0.00  0.00    +0.292 C 
BRANCH  31  33
ATOM     32  N   UNL     1       7.425   5.504  33.600  0.00  0.00    -0.131 NA
ATOM     33  C   UNL     1       7.417   4.314  34.278  0.00  0.00    +0.120 A 
ATOM     34  C   UNL     1       7.168   4.557  35.610  0.00  0.00    +0.138 A 
ATOM     35  N   UNL     1       7.017   5.911  35.676  0.00  0.00    -0.238 N 
ATOM     36  N   UNL     1       7.195   6.477  34.470  0.00  0.00    -0.065 NA
BRANCH  35  37
ATOM     37  C   UNL     1       6.741   6.758  36.821  0.00  0.00    +0.214 C 
ATOM     38  C   UNL     1       6.244   5.932  38.004  0.00  0.00    +0.045 C 
BRANCH  37  39
ATOM     39  C   UNL     1       7.939   7.611  37.182  0.00  0.00    +0.329 C 
ATOM     40  O   UNL     1       8.625   7.451  38.184  0.00  0.00    -0.249 OA
BRANCH  39  41
ATOM     41  O   UNL     1       8.197   8.615  36.308  0.00  0.00    -0.479 OA
ATOM     42  H   UNL     1       8.523   9.449  36.702  0.00  0.00    +0.295 HD
ENDBRANCH  39  41
ENDBRANCH  37  39
ENDBRANCH  35  37
ENDBRANCH  31  33
ENDBRANCH  30  31
ENDBRANCH  26  30
ENDBRANCH  25  28
ENDBRANCH   1  25
TORSDOF 16
