REMARK VINA RESULT:    -6.239      3.304      5.443
REMARK INTER + INTRA:         -13.887
REMARK INTER:                 -11.320
REMARK INTRA:                  -2.566
REMARK UNBOUND:                -3.089
REMARK  Name = lig_assembled_91.pdb
REMARK  16 active torsions:
REMARK  status: ('A' for Active; 'I' for Inactive)
REMARK    1  A    between atoms: _2  and  _10
REMARK    2  A    between atoms: _5  and  _26
REMARK    3  A    between atoms: _7  and  _8
REMARK    4  A    between atoms: _7  and  _26
REMARK    5  A    between atoms: _22  and  _42
REMARK    6  A    between atoms: _24  and  _30
REMARK    7  A    between atoms: _25  and  _29
REMARK    8  A    between atoms: _29  and  _30
REMARK    9  A    between atoms: _32  and  _33
REMARK   10  A    between atoms: _34  and  _35
REMARK   11  A    between atoms: _36  and  _38
REMARK   12  A    between atoms: _38  and  _39
REMARK   13  A    between atoms: _38  and  _40
REMARK   14  A    between atoms: _40  and  _41
REMARK   15  A    between atoms: _40  and  _42
REMARK   16  A    between atoms: _43  and  _45
REMARK                            x       y       z     vdW  Elec       q    Type
REMARK                         _______ _______ _______ _____ _____    ______ ____
ROOT
ATOM      1  C   UNL     1       7.830   0.230  33.446  0.00  0.00    +0.401 C 
ATOM      2  O   UNL     1       8.463   0.692  32.494  0.00  0.00    -0.226 OA
ATOM      3  N   UNL     1       8.209   0.343  34.719  0.00  0.00    -0.279 N 
ATOM      4  H   UNL     1       7.617  -0.062  35.431  0.00  0.00    +0.152 HD
ENDROOT
BRANCH   3   5
ATOM      5  C   UNL     1       9.439   1.023  35.145  0.00  0.00    +0.141 C 
BRANCH   5   6
ATOM      6  C   UNL     1       9.239   2.529  35.280  0.00  0.00    +0.163 C 
BRANCH   6   7
ATOM      7  O   UNL     1       9.389   3.161  33.998  0.00  0.00    -0.388 OA
ATOM      8  H   UNL     1      10.322   3.274  33.803  0.00  0.00    +0.210 HD
ENDBRANCH   6   7
BRANCH   6   9
ATOM      9  C   UNL     1       7.848   2.812  35.873  0.00  0.00    +0.175 C 
BRANCH   9  10
ATOM     10  C   UNL     1       7.493   4.305  35.827  0.00  0.00    +0.176 C 
ATOM     11  O   UNL     1       7.268   4.753  37.192  0.00  0.00    -0.332 OA
ATOM     12  C   UNL     1       7.018   6.189  37.355  0.00  0.00    +0.277 C 
ATOM     13  C   UNL     1       5.841   6.639  36.455  0.00  0.00    +0.110 C 
ATOM     14  C   UNL     1       6.020   6.158  35.000  0.00  0.00    +0.143 C 
ATOM     15  C   UNL     1       6.277   4.651  34.948  0.00  0.00    +0.133 C 
BRANCH  15  16
ATOM     16  N   UNL     1       6.532   4.219  33.565  0.00  0.00    -0.308 N 
ATOM     17  H   UNL     1       7.265   4.689  33.052  0.00  0.00    +0.149 HD
ATOM     18  C   UNL     1       5.858   3.248  32.943  0.00  0.00    +0.210 C 
ATOM     19  C   UNL     1       4.730   2.570  33.743  0.00  0.00    +0.109 C 
ATOM     20  O   UNL     1       6.104   2.897  31.788  0.00  0.00    -0.276 OA
ENDBRANCH  15  16
BRANCH  12  21
ATOM     21  C   UNL     1       8.278   7.006  37.002  0.00  0.00    +0.414 C 
ATOM     22  O   UNL     1       9.398   6.534  37.195  0.00  0.00    -0.240 OA
ATOM     23  O   UNL     1       8.176   8.137  36.525  0.00  0.00    -0.240 OA
ENDBRANCH  12  21
BRANCH  14  24
ATOM     24  O   UNL     1       4.847   6.462  34.244  0.00  0.00    -0.390 OA
ATOM     25  H   UNL     1       4.737   5.811  33.547  0.00  0.00    +0.210 HD
ENDBRANCH  14  24
BRANCH  12  26
ATOM     26  O   UNL     1       6.653   6.427  38.739  0.00  0.00    -0.343 OA
ATOM     27  C   UNL     1       5.232   6.581  38.979  0.00  0.00    +0.198 C 
ENDBRANCH  12  26
ENDBRANCH   9  10
BRANCH   9  28
ATOM     28  O   UNL     1       7.778   2.326  37.229  0.00  0.00    -0.387 OA
ATOM     29  H   UNL     1       7.088   2.796  37.703  0.00  0.00    +0.210 HD
ENDBRANCH   9  28
ENDBRANCH   6   9
ENDBRANCH   5   6
ENDBRANCH   3   5
BRANCH   1  30
ATOM     30  O   UNL     1       6.609  -0.470  33.193  0.00  0.00    -0.444 OA
BRANCH  30  31
ATOM     31  C   UNL     1       6.902  -1.815  32.803  0.00  0.00    +0.292 C 
BRANCH  31  33
ATOM     32  N   UNL     1       5.937  -3.381  31.156  0.00  0.00    -0.131 NA
ATOM     33  C   UNL     1       6.307  -2.113  31.485  0.00  0.00    +0.121 A 
ATOM     34  C   UNL     1       6.012  -1.276  30.433  0.00  0.00    +0.143 A 
ATOM     35  N   UNL     1       5.496  -2.090  29.445  0.00  0.00    -0.218 N 
ATOM     36  N   UNL     1       5.445  -3.359  29.925  0.00  0.00    -0.060 NA
BRANCH  35  37
ATOM     37  C   UNL     1       5.071  -1.760  28.122  0.00  0.00    +0.085 A 
ATOM     38  C   UNL     1       3.782  -1.152  27.905  0.00  0.00    +0.026 A 
ATOM     39  C   UNL     1       3.451  -0.890  26.561  0.00  0.00    +0.074 A 
ATOM     40  C   UNL     1       2.237  -0.308  26.228  0.00  0.00    +0.028 A 
ATOM     41  C   UNL     1       1.297   0.049  27.188  0.00  0.00    +0.002 A 
ATOM     42  C   UNL     1       1.593  -0.157  28.521  0.00  0.00    +0.001 A 
ATOM     43  N   UNL     1       4.258  -1.148  25.535  0.00  0.00    -0.247 NA
ATOM     44  C   UNL     1       5.460  -1.684  25.741  0.00  0.00    +0.074 A 
ATOM     45  C   UNL     1       6.219  -1.914  24.599  0.00  0.00    +0.028 A 
ATOM     46  C   UNL     1       7.479  -2.501  24.649  0.00  0.00    +0.002 A 
ATOM     47  C   UNL     1       7.991  -2.881  25.873  0.00  0.00    +0.001 A 
ATOM     48  C   UNL     1       7.238  -2.662  27.032  0.00  0.00    +0.012 A 
ATOM     49  C   UNL     1       2.821  -0.726  28.875  0.00  0.00    +0.012 A 
ATOM     50  C   UNL     1       5.950  -2.035  27.009  0.00  0.00    +0.026 A 
ENDBRANCH  35  37
ENDBRANCH  31  33
ENDBRANCH  30  31
ENDBRANCH   1  30
TORSDOF 14
