REMARK VINA RESULT:    -5.795     20.590     23.723
REMARK INTER + INTRA:         -14.294
REMARK INTER:                 -11.267
REMARK INTRA:                  -3.027
REMARK UNBOUND:                -3.588
REMARK  Name = lig_assembled_58.pdb
REMARK  18 active torsions:
REMARK  status: ('A' for Active; 'I' for Inactive)
REMARK    1  A    between atoms: _2  and  _9
REMARK    2  A    between atoms: _4  and  _25
REMARK    3  A    between atoms: _6  and  _7
REMARK    4  A    between atoms: _6  and  _25
REMARK    5  A    between atoms: _9  and  _10
REMARK    6  A    between atoms: _9  and  _16
REMARK    7  A    between atoms: _21  and  _41
REMARK    8  A    between atoms: _23  and  _29
REMARK    9  A    between atoms: _24  and  _28
REMARK   10  A    between atoms: _28  and  _29
REMARK   11  A    between atoms: _31  and  _32
REMARK   12  A    between atoms: _33  and  _34
REMARK   13  A    between atoms: _35  and  _37
REMARK   14  A    between atoms: _37  and  _38
REMARK   15  A    between atoms: _37  and  _39
REMARK   16  A    between atoms: _39  and  _40
REMARK   17  A    between atoms: _39  and  _41
REMARK   18  A    between atoms: _42  and  _44
REMARK                            x       y       z     vdW  Elec       q    Type
REMARK                         _______ _______ _______ _____ _____    ______ ____
ROOT
ATOM      1  C   UNL     1      -6.303   6.228  18.433  0.00  0.00    +0.141 C 
ENDROOT
BRANCH   1   4
ATOM      2  C   UNL     1      -5.398   5.961  20.716  0.00  0.00    +0.401 C 
ATOM      3  O   UNL     1      -5.165   7.162  20.866  0.00  0.00    -0.226 OA
ATOM      4  N   UNL     1      -5.923   5.435  19.609  0.00  0.00    -0.279 N 
ATOM      5  H   UNL     1      -6.068   4.436  19.577  0.00  0.00    +0.152 HD
BRANCH   2   6
ATOM      6  O   UNL     1      -5.089   5.056  21.780  0.00  0.00    -0.444 OA
BRANCH   6   7
ATOM      7  C   UNL     1      -4.188   5.684  22.695  0.00  0.00    +0.292 C 
BRANCH   7   9
ATOM      8  N   UNL     1      -2.757   3.665  22.933  0.00  0.00    -0.131 NA
ATOM      9  C   UNL     1      -2.879   5.004  22.671  0.00  0.00    +0.120 A 
ATOM     10  C   UNL     1      -1.638   5.516  22.372  0.00  0.00    +0.138 A 
ATOM     11  N   UNL     1      -0.825   4.417  22.313  0.00  0.00    -0.240 N 
ATOM     12  N   UNL     1      -1.492   3.317  22.732  0.00  0.00    -0.064 NA
BRANCH  11  13
ATOM     13  C   UNL     1       0.568   4.308  21.843  0.00  0.00    +0.169 C 
BRANCH  13  14
ATOM     14  C   UNL     1       1.387   3.454  22.822  0.00  0.00    -0.019 A 
ATOM     15  C   UNL     1       1.721   2.129  22.494  0.00  0.00    +0.006 A 
ATOM     16  C   UNL     1       2.415   1.324  23.402  0.00  0.00    +0.000 A 
ATOM     17  C   UNL     1       2.798   1.832  24.642  0.00  0.00    +0.000 A 
ATOM     18  C   UNL     1       2.474   3.140  24.986  0.00  0.00    +0.000 A 
ATOM     19  C   UNL     1       1.766   3.938  24.089  0.00  0.00    +0.006 A 
ENDBRANCH  13  14
BRANCH  13  20
ATOM     20  C   UNL     1       0.667   3.879  20.372  0.00  0.00    -0.019 A 
ATOM     21  C   UNL     1       1.875   3.988  19.661  0.00  0.00    +0.006 A 
ATOM     22  C   UNL     1       1.958   3.598  18.321  0.00  0.00    +0.000 A 
ATOM     23  C   UNL     1       0.844   3.072  17.675  0.00  0.00    +0.000 A 
ATOM     24  C   UNL     1      -0.345   2.904  18.373  0.00  0.00    +0.000 A 
ATOM     25  C   UNL     1      -0.427   3.285  19.711  0.00  0.00    +0.006 A 
ENDBRANCH  13  20
ENDBRANCH  11  13
ENDBRANCH   7   9
ENDBRANCH   6   7
ENDBRANCH   2   6
ENDBRANCH   1   4
BRANCH   1  26
ATOM     26  C   UNL     1      -5.124   6.450  17.492  0.00  0.00    +0.163 C 
BRANCH  26  27
ATOM     27  O   UNL     1      -5.227   5.573  16.358  0.00  0.00    -0.388 OA
ATOM     28  H   UNL     1      -6.153   5.420  16.154  0.00  0.00    +0.210 HD
ENDBRANCH  26  27
BRANCH  26  29
ATOM     29  C   UNL     1      -5.091   7.923  17.047  0.00  0.00    +0.175 C 
BRANCH  29  30
ATOM     30  C   UNL     1      -4.218   8.131  15.801  0.00  0.00    +0.176 C 
ATOM     31  O   UNL     1      -2.990   7.375  15.984  0.00  0.00    -0.332 OA
ATOM     32  C   UNL     1      -2.072   7.370  14.841  0.00  0.00    +0.277 C 
ATOM     33  C   UNL     1      -1.736   8.819  14.411  0.00  0.00    +0.110 C 
ATOM     34  C   UNL     1      -3.010   9.671  14.234  0.00  0.00    +0.143 C 
ATOM     35  C   UNL     1      -3.893   9.602  15.481  0.00  0.00    +0.133 C 
BRANCH  35  36
ATOM     36  N   UNL     1      -5.144  10.347  15.268  0.00  0.00    -0.308 N 
ATOM     37  H   UNL     1      -5.840   9.937  14.661  0.00  0.00    +0.149 HD
ATOM     38  C   UNL     1      -5.420  11.529  15.825  0.00  0.00    +0.210 C 
ATOM     39  C   UNL     1      -4.329  12.140  16.724  0.00  0.00    +0.109 C 
ATOM     40  O   UNL     1      -6.483  12.124  15.640  0.00  0.00    -0.276 OA
ENDBRANCH  35  36
BRANCH  32  41
ATOM     41  C   UNL     1      -2.688   6.608  13.648  0.00  0.00    +0.414 C 
ATOM     42  O   UNL     1      -2.213   6.733  12.521  0.00  0.00    -0.240 OA
ATOM     43  O   UNL     1      -3.659   5.869  13.814  0.00  0.00    -0.240 OA
ENDBRANCH  32  41
BRANCH  34  44
ATOM     44  O   UNL     1      -2.650  11.031  13.988  0.00  0.00    -0.390 OA
ATOM     45  H   UNL     1      -3.229  11.612  14.487  0.00  0.00    +0.210 HD
ENDBRANCH  34  44
BRANCH  32  46
ATOM     46  O   UNL     1      -0.844   6.718  15.254  0.00  0.00    -0.343 OA
ATOM     47  C   UNL     1      -0.858   6.182  16.601  0.00  0.00    +0.198 C 
ENDBRANCH  32  46
ENDBRANCH  29  30
BRANCH  29  48
ATOM     48  O   UNL     1      -4.625   8.757  18.126  0.00  0.00    -0.387 OA
ATOM     49  H   UNL     1      -3.913   8.311  18.591  0.00  0.00    +0.210 HD
ENDBRANCH  29  48
ENDBRANCH  26  29
ENDBRANCH   1  26
TORSDOF 16
