REMARK VINA RESULT:    -6.491     13.851     16.051
REMARK INTER + INTRA:         -15.032
REMARK INTER:                 -11.793
REMARK INTRA:                  -3.239
REMARK UNBOUND:                -2.090
REMARK  Name = lig_assembled_76.pdb
REMARK  21 active torsions:
REMARK  status: ('A' for Active; 'I' for Inactive)
REMARK    1  A    between atoms: _2  and  _9
REMARK    2  A    between atoms: _4  and  _23
REMARK    3  A    between atoms: _6  and  _7
REMARK    4  A    between atoms: _6  and  _23
REMARK    5  A    between atoms: _9  and  _10
REMARK    6  A    between atoms: _10  and  _11
REMARK    7  A    between atoms: _10  and  _18
REMARK    8  A    between atoms: _11  and  _12
REMARK    9  A    between atoms: _12  and  _13
REMARK   10  A    between atoms: _19  and  _39
REMARK   11  A    between atoms: _21  and  _27
REMARK   12  A    between atoms: _22  and  _26
REMARK   13  A    between atoms: _26  and  _27
REMARK   14  A    between atoms: _29  and  _30
REMARK   15  A    between atoms: _31  and  _32
REMARK   16  A    between atoms: _33  and  _35
REMARK   17  A    between atoms: _35  and  _36
REMARK   18  A    between atoms: _35  and  _37
REMARK   19  A    between atoms: _37  and  _38
REMARK   20  A    between atoms: _37  and  _39
REMARK   21  A    between atoms: _40  and  _42
REMARK                            x       y       z     vdW  Elec       q    Type
REMARK                         _______ _______ _______ _____ _____    ______ ____
ROOT
ATOM      1  C   UNL     1      18.081  10.955  28.468  0.00  0.00    +0.141 C 
ENDROOT
BRANCH   1   4
ATOM      2  C   UNL     1      20.069  10.852  27.003  0.00  0.00    +0.401 C 
ATOM      3  O   UNL     1      20.379  12.032  27.183  0.00  0.00    -0.226 OA
ATOM      4  N   UNL     1      19.007  10.268  27.559  0.00  0.00    -0.279 N 
ATOM      5  H   UNL     1      18.829   9.297  27.344  0.00  0.00    +0.152 HD
BRANCH   2   6
ATOM      6  O   UNL     1      20.880  10.044  26.147  0.00  0.00    -0.444 OA
BRANCH   6   7
ATOM      7  C   UNL     1      20.836   8.685  26.591  0.00  0.00    +0.292 C 
BRANCH   7   9
ATOM      8  N   UNL     1      18.575   7.809  26.076  0.00  0.00    -0.131 NA
ATOM      9  C   UNL     1      19.906   7.902  25.761  0.00  0.00    +0.120 A 
ATOM     10  C   UNL     1      20.153   7.166  24.624  0.00  0.00    +0.137 A 
ATOM     11  N   UNL     1      18.935   6.657  24.296  0.00  0.00    -0.249 N 
ATOM     12  N   UNL     1      17.990   7.034  25.172  0.00  0.00    -0.065 NA
BRANCH  11  13
ATOM     13  C   UNL     1      18.627   5.706  23.251  0.00  0.00    +0.176 C 
BRANCH  13  14
ATOM     14  C   UNL     1      18.535   4.265  23.763  0.00  0.00    +0.136 C 
BRANCH  14  15
ATOM     15  O   UNL     1      18.281   4.257  25.175  0.00  0.00    -0.390 OA
ATOM     16  H   UNL     1      17.323   4.336  25.327  0.00  0.00    +0.210 HD
ENDBRANCH  14  15
BRANCH  14  17
ATOM     17  C   UNL     1      17.404   3.472  23.088  0.00  0.00    +0.038 C 
BRANCH  17  18
ATOM     18  C   UNL     1      17.004   2.211  23.853  0.00  0.00    +0.038 C 
BRANCH  18  19
ATOM     19  C   UNL     1      17.493   0.957  23.175  0.00  0.00    -0.047 A 
ATOM     20  C   UNL     1      17.362  -0.286  23.810  0.00  0.00    +0.003 A 
ATOM     21  C   UNL     1      17.797  -1.452  23.178  0.00  0.00    +0.000 A 
ATOM     22  C   UNL     1      18.370  -1.384  21.910  0.00  0.00    +0.000 A 
ATOM     23  C   UNL     1      18.514  -0.151  21.276  0.00  0.00    +0.000 A 
ATOM     24  C   UNL     1      18.081   1.016  21.907  0.00  0.00    +0.003 A 
ENDBRANCH  18  19
ENDBRANCH  17  18
ENDBRANCH  14  17
ENDBRANCH  13  14
ENDBRANCH  11  13
ENDBRANCH   7   9
ENDBRANCH   6   7
ENDBRANCH   2   6
ENDBRANCH   1   4
BRANCH   1  25
ATOM     25  C   UNL     1      18.321  10.570  29.924  0.00  0.00    +0.163 C 
BRANCH  25  26
ATOM     26  O   UNL     1      17.086  10.622  30.657  0.00  0.00    -0.388 OA
ATOM     27  H   UNL     1      16.883   9.751  31.005  0.00  0.00    +0.210 HD
ENDBRANCH  25  26
BRANCH  25  28
ATOM     28  C   UNL     1      18.940   9.163  29.988  0.00  0.00    +0.175 C 
BRANCH  28  29
ATOM     29  C   UNL     1      18.201   8.251  30.979  0.00  0.00    +0.176 C 
ATOM     30  O   UNL     1      18.285   8.862  32.296  0.00  0.00    -0.332 OA
ATOM     31  C   UNL     1      17.540   8.181  33.359  0.00  0.00    +0.277 C 
ATOM     32  C   UNL     1      17.959   6.693  33.445  0.00  0.00    +0.110 C 
ATOM     33  C   UNL     1      17.917   6.009  32.062  0.00  0.00    +0.143 C 
ATOM     34  C   UNL     1      18.721   6.803  31.032  0.00  0.00    +0.133 C 
BRANCH  34  35
ATOM     35  N   UNL     1      18.601   6.188  29.700  0.00  0.00    -0.308 N 
ATOM     36  H   UNL     1      17.683   6.146  29.281  0.00  0.00    +0.149 HD
ATOM     37  C   UNL     1      19.627   5.683  29.010  0.00  0.00    +0.210 C 
ATOM     38  C   UNL     1      21.009   5.740  29.687  0.00  0.00    +0.109 C 
ATOM     39  O   UNL     1      19.499   5.188  27.890  0.00  0.00    -0.276 OA
ENDBRANCH  34  35
BRANCH  31  40
ATOM     40  C   UNL     1      16.020   8.275  33.109  0.00  0.00    +0.414 C 
ATOM     41  O   UNL     1      15.297   7.301  33.314  0.00  0.00    -0.240 OA
ATOM     42  O   UNL     1      15.518   9.324  32.704  0.00  0.00    -0.240 OA
ENDBRANCH  31  40
BRANCH  33  43
ATOM     43  O   UNL     1      18.453   4.689  32.162  0.00  0.00    -0.390 OA
ATOM     44  H   UNL     1      19.412   4.732  32.169  0.00  0.00    +0.210 HD
ENDBRANCH  33  43
BRANCH  31  45
ATOM     45  O   UNL     1      17.868   8.822  34.618  0.00  0.00    -0.343 OA
ATOM     46  C   UNL     1      17.747   7.973  35.787  0.00  0.00    +0.198 C 
ENDBRANCH  31  45
ENDBRANCH  28  29
BRANCH  28  47
ATOM     47  O   UNL     1      20.336   9.249  30.337  0.00  0.00    -0.387 OA
ATOM     48  H   UNL     1      20.841   9.530  29.571  0.00  0.00    +0.210 HD
ENDBRANCH  28  47
ENDBRANCH  25  28
ENDBRANCH   1  25
TORSDOF 19
