REMARK VINA RESULT:    -5.644     14.560     16.809
REMARK INTER + INTRA:         -13.967
REMARK INTER:                 -11.971
REMARK INTRA:                  -1.996
REMARK UNBOUND:                -3.868
REMARK  Name = lig_assembled_85.pdb
REMARK  19 active torsions:
REMARK  status: ('A' for Active; 'I' for Inactive)
REMARK    1  A    between atoms: _2  and  _10
REMARK    2  A    between atoms: _3  and  _6
REMARK    3  A    between atoms: _3  and  _17
REMARK    4  A    between atoms: _5  and  _23
REMARK    5  A    between atoms: _7  and  _8
REMARK    6  A    between atoms: _7  and  _23
REMARK    7  A    between atoms: _15  and  _16
REMARK    8  A    between atoms: _19  and  _39
REMARK    9  A    between atoms: _21  and  _27
REMARK   10  A    between atoms: _22  and  _26
REMARK   11  A    between atoms: _26  and  _27
REMARK   12  A    between atoms: _29  and  _30
REMARK   13  A    between atoms: _31  and  _32
REMARK   14  A    between atoms: _33  and  _35
REMARK   15  A    between atoms: _35  and  _36
REMARK   16  A    between atoms: _35  and  _37
REMARK   17  A    between atoms: _37  and  _38
REMARK   18  A    between atoms: _37  and  _39
REMARK   19  A    between atoms: _40  and  _42
REMARK                            x       y       z     vdW  Elec       q    Type
REMARK                         _______ _______ _______ _____ _____    ______ ____
ROOT
ATOM      1  C   UNL     1       5.041   3.112  33.652  0.00  0.00    +0.141 C 
ENDROOT
BRANCH   1   4
ATOM      2  C   UNL     1       2.752   2.448  32.999  0.00  0.00    +0.401 C 
ATOM      3  O   UNL     1       2.659   1.572  33.862  0.00  0.00    -0.226 OA
ATOM      4  N   UNL     1       3.832   3.212  32.826  0.00  0.00    -0.279 N 
ATOM      5  H   UNL     1       3.817   3.898  32.084  0.00  0.00    +0.152 HD
BRANCH   2   6
ATOM      6  O   UNL     1       1.650   2.675  32.116  0.00  0.00    -0.444 OA
BRANCH   6   7
ATOM      7  C   UNL     1       1.907   3.833  31.318  0.00  0.00    +0.292 C 
BRANCH   7   9
ATOM      8  N   UNL     1       0.214   3.980  29.528  0.00  0.00    -0.131 NA
ATOM      9  C   UNL     1       1.463   3.606  29.932  0.00  0.00    +0.121 A 
ATOM     10  C   UNL     1       2.152   3.085  28.861  0.00  0.00    +0.143 A 
ATOM     11  N   UNL     1       1.273   3.168  27.809  0.00  0.00    -0.219 N 
ATOM     12  N   UNL     1       0.117   3.734  28.229  0.00  0.00    -0.060 NA
BRANCH  11  13
ATOM     13  C   UNL     1       1.465   2.847  26.447  0.00  0.00    +0.080 A 
ATOM     14  C   UNL     1       1.790   1.565  25.977  0.00  0.00    +0.062 A 
ATOM     15  C   UNL     1       2.198   1.445  24.628  0.00  0.00    +0.016 A 
ATOM     16  C   UNL     1       2.257   2.549  23.771  0.00  0.00    +0.021 A 
ATOM     17  C   UNL     1       1.862   3.794  24.236  0.00  0.00    +0.043 A 
ATOM     18 CL   UNL     1       1.963   5.168  23.207  0.00  0.00    -0.083 Cl
ATOM     19  C   UNL     1       1.443   3.943  25.555  0.00  0.00    +0.048 A 
BRANCH  14  20
ATOM     20  C   UNL     1       1.843   0.281  26.737  0.00  0.00    +0.248 C 
ATOM     21  O   UNL     1       2.978  -0.164  26.931  0.00  0.00    -0.270 OA
ATOM     22  N   UNL     1       0.710  -0.428  27.152  0.00  0.00    -0.304 N 
ATOM     23  C   UNL     1      -0.679   0.010  27.119  0.00  0.00    +0.132 C 
ATOM     24  C   UNL     1       0.953  -1.672  27.875  0.00  0.00    +0.132 C 
ENDBRANCH  14  20
ENDBRANCH  11  13
ENDBRANCH   7   9
ENDBRANCH   6   7
ENDBRANCH   2   6
ENDBRANCH   1   4
BRANCH   1  25
ATOM     25  C   UNL     1       6.287   2.861  32.809  0.00  0.00    +0.163 C 
BRANCH  25  26
ATOM     26  O   UNL     1       6.038   3.228  31.443  0.00  0.00    -0.388 OA
ATOM     27  H   UNL     1       5.872   2.438  30.923  0.00  0.00    +0.210 HD
ENDBRANCH  25  26
BRANCH  25  28
ATOM     28  C   UNL     1       7.468   3.660  33.387  0.00  0.00    +0.175 C 
BRANCH  28  29
ATOM     29  C   UNL     1       7.165   4.205  34.791  0.00  0.00    +0.176 C 
ATOM     30  O   UNL     1       7.292   5.653  34.745  0.00  0.00    -0.332 OA
ATOM     31  C   UNL     1       6.933   6.360  35.978  0.00  0.00    +0.277 C 
ATOM     32  C   UNL     1       7.741   5.802  37.176  0.00  0.00    +0.110 C 
ATOM     33  C   UNL     1       7.662   4.263  37.247  0.00  0.00    +0.143 C 
ATOM     34  C   UNL     1       8.052   3.630  35.911  0.00  0.00    +0.133 C 
BRANCH  34  35
ATOM     35  N   UNL     1       7.891   2.169  35.965  0.00  0.00    -0.308 N 
ATOM     36  H   UNL     1       6.985   1.804  36.224  0.00  0.00    +0.149 HD
ATOM     37  C   UNL     1       8.862   1.293  35.695  0.00  0.00    +0.210 C 
ATOM     38  C   UNL     1      10.238   1.881  35.329  0.00  0.00    +0.109 C 
ATOM     39  O   UNL     1       8.694   0.074  35.734  0.00  0.00    -0.276 OA
ENDBRANCH  34  35
BRANCH  31  40
ATOM     40  C   UNL     1       5.424   6.226  36.267  0.00  0.00    +0.414 C 
ATOM     41  O   UNL     1       4.628   6.061  35.343  0.00  0.00    -0.240 OA
ATOM     42  O   UNL     1       5.002   6.282  37.422  0.00  0.00    -0.240 OA
ENDBRANCH  31  40
BRANCH  33  43
ATOM     43  O   UNL     1       8.538   3.783  38.268  0.00  0.00    -0.390 OA
ATOM     44  H   UNL     1       8.795   2.879  38.072  0.00  0.00    +0.210 HD
ENDBRANCH  33  43
BRANCH  31  45
ATOM     45  O   UNL     1       7.275   7.760  35.808  0.00  0.00    -0.343 OA
ATOM     46  C   UNL     1       8.439   8.200  36.552  0.00  0.00    +0.198 C 
ENDBRANCH  31  45
ENDBRANCH  28  29
BRANCH  28  47
ATOM     47  O   UNL     1       7.819   4.740  32.500  0.00  0.00    -0.387 OA
ATOM     48  H   UNL     1       7.684   4.464  31.590  0.00  0.00    +0.210 HD
ENDBRANCH  28  47
ENDBRANCH  25  28
ENDBRANCH   1  25
TORSDOF 15
