REMARK VINA RESULT:    -6.584      7.085     12.390
REMARK INTER + INTRA:         -13.427
REMARK INTER:                 -11.147
REMARK INTRA:                  -2.280
REMARK UNBOUND:                -2.031
REMARK  Name = lig_assembled_42.pdb
REMARK  16 active torsions:
REMARK  status: ('A' for Active; 'I' for Inactive)
REMARK    1  A    between atoms: _2  and  _9
REMARK    2  A    between atoms: _4  and  _21
REMARK    3  A    between atoms: _6  and  _7
REMARK    4  A    between atoms: _6  and  _21
REMARK    5  A    between atoms: _17  and  _37
REMARK    6  A    between atoms: _19  and  _25
REMARK    7  A    between atoms: _20  and  _24
REMARK    8  A    between atoms: _24  and  _25
REMARK    9  A    between atoms: _27  and  _28
REMARK   10  A    between atoms: _29  and  _30
REMARK   11  A    between atoms: _31  and  _33
REMARK   12  A    between atoms: _33  and  _34
REMARK   13  A    between atoms: _33  and  _35
REMARK   14  A    between atoms: _35  and  _36
REMARK   15  A    between atoms: _35  and  _37
REMARK   16  A    between atoms: _38  and  _40
REMARK                            x       y       z     vdW  Elec       q    Type
REMARK                         _______ _______ _______ _____ _____    ______ ____
ROOT
ATOM      1  C   UNL     1       8.498   2.553  36.254  0.00  0.00    +0.163 C 
ENDROOT
BRANCH   1   2
ATOM      2  O   UNL     1       8.543   3.089  37.586  0.00  0.00    -0.388 OA
ATOM      3  H   UNL     1       8.140   3.960  37.595  0.00  0.00    +0.210 HD
ENDBRANCH   1   2
BRANCH   1   4
ATOM      4  C   UNL     1       9.459   1.375  36.132  0.00  0.00    +0.141 C 
BRANCH   4   7
ATOM      5  C   UNL     1      11.851   1.890  35.792  0.00  0.00    +0.401 C 
ATOM      6  O   UNL     1      11.800   1.771  34.566  0.00  0.00    -0.226 OA
ATOM      7  N   UNL     1      10.806   1.717  36.603  0.00  0.00    -0.279 N 
ATOM      8  H   UNL     1      10.950   1.828  37.597  0.00  0.00    +0.152 HD
BRANCH   5   9
ATOM      9  O   UNL     1      13.098   2.231  36.405  0.00  0.00    -0.444 OA
BRANCH   9  10
ATOM     10  C   UNL     1      13.044   3.579  36.880  0.00  0.00    +0.292 C 
BRANCH  10  12
ATOM     11  N   UNL     1      14.202   4.087  34.746  0.00  0.00    -0.131 NA
ATOM     12  C   UNL     1      13.822   4.470  35.999  0.00  0.00    +0.121 A 
ATOM     13  C   UNL     1      14.281   5.743  36.236  0.00  0.00    +0.143 A 
ATOM     14  N   UNL     1      14.943   6.106  35.088  0.00  0.00    -0.220 N 
ATOM     15  N   UNL     1      14.883   5.086  34.196  0.00  0.00    -0.060 NA
BRANCH  14  16
ATOM     16  C   UNL     1      15.608   7.326  34.807  0.00  0.00    +0.071 A 
ATOM     17  C   UNL     1      15.594   7.850  33.505  0.00  0.00    +0.077 A 
ATOM     18  C   UNL     1      16.254   9.039  33.283  0.00  0.00    +0.168 A 
ATOM     19  O   UNL     1      16.332   9.679  32.087  0.00  0.00    -0.453 OA
ATOM     20  C   UNL     1      17.113  10.835  32.450  0.00  0.00    +0.466 C 
ATOM     21  O   UNL     1      17.491  10.856  33.844  0.00  0.00    -0.453 OA
ATOM     22  C   UNL     1      16.913   9.708  34.286  0.00  0.00    +0.166 A 
ATOM     23  C   UNL     1      16.950   9.222  35.575  0.00  0.00    +0.051 A 
ATOM     24  C   UNL     1      16.289   8.015  35.840  0.00  0.00    +0.031 A 
ENDBRANCH  14  16
ENDBRANCH  10  12
ENDBRANCH   9  10
ENDBRANCH   5   9
ENDBRANCH   4   7
ENDBRANCH   1   4
BRANCH   1  25
ATOM     25  C   UNL     1       8.866   3.626  35.216  0.00  0.00    +0.175 C 
BRANCH  25  26
ATOM     26  C   UNL     1       7.711   4.606  34.963  0.00  0.00    +0.176 C 
ATOM     27  O   UNL     1       7.541   5.415  36.159  0.00  0.00    -0.332 OA
ATOM     28  C   UNL     1       6.544   6.486  36.064  0.00  0.00    +0.277 C 
ATOM     29  C   UNL     1       5.176   5.913  35.620  0.00  0.00    +0.110 C 
ATOM     30  C   UNL     1       5.311   5.020  34.368  0.00  0.00    +0.143 C 
ATOM     31  C   UNL     1       6.376   3.943  34.576  0.00  0.00    +0.133 C 
BRANCH  31  32
ATOM     32  N   UNL     1       6.558   3.154  33.347  0.00  0.00    -0.308 N 
ATOM     33  H   UNL     1       6.973   3.613  32.549  0.00  0.00    +0.149 HD
ATOM     34  C   UNL     1       6.209   1.871  33.218  0.00  0.00    +0.210 C 
ATOM     35  C   UNL     1       5.554   1.208  34.444  0.00  0.00    +0.109 C 
ATOM     36  O   UNL     1       6.386   1.231  32.181  0.00  0.00    -0.276 OA
ENDBRANCH  31  32
BRANCH  28  37
ATOM     37  C   UNL     1       6.999   7.569  35.064  0.00  0.00    +0.414 C 
ATOM     38  O   UNL     1       6.180   8.112  34.323  0.00  0.00    -0.240 OA
ATOM     39  O   UNL     1       8.183   7.900  34.999  0.00  0.00    -0.240 OA
ENDBRANCH  28  37
BRANCH  30  40
ATOM     40  O   UNL     1       4.059   4.395  34.085  0.00  0.00    -0.390 OA
ATOM     41  H   UNL     1       3.442   4.574  34.799  0.00  0.00    +0.210 HD
ENDBRANCH  30  40
BRANCH  28  42
ATOM     42  O   UNL     1       6.388   7.072  37.382  0.00  0.00    -0.343 OA
ATOM     43  C   UNL     1       7.434   6.737  38.329  0.00  0.00    +0.198 C 
ENDBRANCH  28  42
ENDBRANCH  25  26
BRANCH  25  44
ATOM     44  O   UNL     1       9.270   3.004  33.979  0.00  0.00    -0.387 OA
ATOM     45  H   UNL     1       8.848   2.145  33.900  0.00  0.00    +0.210 HD
ENDBRANCH  25  44
ENDBRANCH   1  25
TORSDOF 14
