REMARK VINA RESULT:    -6.435      1.757      3.886
REMARK INTER + INTRA:         -13.419
REMARK INTER:                 -12.178
REMARK INTRA:                  -1.240
REMARK UNBOUND:                -1.905
REMARK  Name = lig_assembled_38.pdb
REMARK  17 active torsions:
REMARK  status: ('A' for Active; 'I' for Inactive)
REMARK    1  A    between atoms: _2  and  _9
REMARK    2  A    between atoms: _4  and  _19
REMARK    3  A    between atoms: _6  and  _7
REMARK    4  A    between atoms: _6  and  _19
REMARK    5  A    between atoms: _9  and  _10
REMARK    6  A    between atoms: _15  and  _35
REMARK    7  A    between atoms: _17  and  _23
REMARK    8  A    between atoms: _18  and  _22
REMARK    9  A    between atoms: _22  and  _23
REMARK   10  A    between atoms: _25  and  _26
REMARK   11  A    between atoms: _27  and  _28
REMARK   12  A    between atoms: _29  and  _31
REMARK   13  A    between atoms: _31  and  _32
REMARK   14  A    between atoms: _31  and  _33
REMARK   15  A    between atoms: _33  and  _34
REMARK   16  A    between atoms: _33  and  _35
REMARK   17  A    between atoms: _36  and  _38
REMARK                            x       y       z     vdW  Elec       q    Type
REMARK                         _______ _______ _______ _____ _____    ______ ____
ROOT
ATOM      1  C   UNL     1       2.844   2.649  33.536  0.00  0.00    +0.163 C 
ENDROOT
BRANCH   1   2
ATOM      2  O   UNL     1       3.177   1.273  33.293  0.00  0.00    -0.388 OA
ATOM      3  H   UNL     1       3.974   1.045  33.778  0.00  0.00    +0.210 HD
ENDBRANCH   1   2
BRANCH   1   4
ATOM      4  C   UNL     1       1.595   3.031  32.747  0.00  0.00    +0.141 C 
BRANCH   4   7
ATOM      5  C   UNL     1       1.454   3.755  30.389  0.00  0.00    +0.401 C 
ATOM      6  O   UNL     1       0.953   4.850  30.657  0.00  0.00    -0.226 OA
ATOM      7  N   UNL     1       1.780   2.841  31.303  0.00  0.00    -0.279 N 
ATOM      8  H   UNL     1       2.178   1.968  30.985  0.00  0.00    +0.152 HD
BRANCH   5   9
ATOM      9  O   UNL     1       1.705   3.423  29.021  0.00  0.00    -0.444 OA
BRANCH   9  10
ATOM     10  C   UNL     1       0.463   3.217  28.343  0.00  0.00    +0.292 C 
BRANCH  10  12
ATOM     11  N   UNL     1      -0.450   4.722  26.600  0.00  0.00    -0.131 NA
ATOM     12  C   UNL     1       0.505   3.823  26.998  0.00  0.00    +0.120 A 
ATOM     13  C   UNL     1       1.425   3.667  25.985  0.00  0.00    +0.137 A 
ATOM     14  N   UNL     1       1.007   4.538  25.021  0.00  0.00    -0.247 N 
ATOM     15  N   UNL     1      -0.129   5.159  25.390  0.00  0.00    -0.065 NA
BRANCH  14  16
ATOM     16  C   UNL     1       1.747   4.995  23.858  0.00  0.00    +0.180 C 
BRANCH  16  17
ATOM     17  C   UNL     1       1.647   4.061  22.677  0.00  0.00    -0.025 A 
ATOM     18  C   UNL     1       1.860   4.527  21.370  0.00  0.00    +0.005 A 
ATOM     19  C   UNL     1       1.856   3.639  20.289  0.00  0.00    +0.001 A 
ATOM     20  C   UNL     1       1.638   2.278  20.501  0.00  0.00    +0.015 A 
ATOM     21  C   UNL     1       1.416   1.812  21.792  0.00  0.00    +0.018 A 
ATOM     22 BR   UNL     1       1.129  -0.035  22.085  0.00  0.00    -0.050 Br
ATOM     23  C   UNL     1       1.418   2.690  22.878  0.00  0.00    +0.020 A 
ENDBRANCH  16  17
ENDBRANCH  14  16
ENDBRANCH  10  12
ENDBRANCH   9  10
ENDBRANCH   5   9
ENDBRANCH   4   7
ENDBRANCH   1   4
BRANCH   1  24
ATOM     24  C   UNL     1       4.006   3.575  33.137  0.00  0.00    +0.175 C 
BRANCH  24  25
ATOM     25  C   UNL     1       4.812   4.049  34.356  0.00  0.00    +0.176 C 
ATOM     26  O   UNL     1       5.016   5.483  34.227  0.00  0.00    -0.332 OA
ATOM     27  C   UNL     1       5.681   6.132  35.361  0.00  0.00    +0.277 C 
ATOM     28  C   UNL     1       7.030   5.437  35.668  0.00  0.00    +0.110 C 
ATOM     29  C   UNL     1       6.869   3.907  35.782  0.00  0.00    +0.143 C 
ATOM     30  C   UNL     1       6.163   3.336  34.551  0.00  0.00    +0.133 C 
BRANCH  30  31
ATOM     31  N   UNL     1       5.938   1.891  34.711  0.00  0.00    -0.308 N 
ATOM     32  H   UNL     1       5.239   1.593  35.377  0.00  0.00    +0.149 HD
ATOM     33  C   UNL     1       6.596   0.947  34.033  0.00  0.00    +0.210 C 
ATOM     34  C   UNL     1       7.673   1.432  33.044  0.00  0.00    +0.109 C 
ATOM     35  O   UNL     1       6.376  -0.256  34.176  0.00  0.00    -0.276 OA
ENDBRANCH  30  31
BRANCH  27  36
ATOM     36  C   UNL     1       4.784   6.095  36.616  0.00  0.00    +0.414 C 
ATOM     37  O   UNL     1       5.248   6.385  37.718  0.00  0.00    -0.240 OA
ATOM     38  O   UNL     1       3.598   5.775  36.526  0.00  0.00    -0.240 OA
ENDBRANCH  27  36
BRANCH  27  39
ATOM     39  O   UNL     1       5.950   7.510  34.994  0.00  0.00    -0.343 OA
ATOM     40  C   UNL     1       7.310   7.776  34.568  0.00  0.00    +0.198 C 
ENDBRANCH  27  39
BRANCH  29  41
ATOM     41  O   UNL     1       8.153   3.296  35.913  0.00  0.00    -0.390 OA
ATOM     42  H   UNL     1       8.146   2.439  35.480  0.00  0.00    +0.210 HD
ENDBRANCH  29  41
ENDBRANCH  24  25
BRANCH  24  43
ATOM     43  O   UNL     1       3.507   4.709  32.400  0.00  0.00    -0.387 OA
ATOM     44  H   UNL     1       2.727   4.451  31.904  0.00  0.00    +0.210 HD
ENDBRANCH  24  43
ENDBRANCH   1  24
TORSDOF 15
