REMARK VINA RESULT:    -6.022      1.788      3.131
REMARK INTER + INTRA:         -12.835
REMARK INTER:                 -11.348
REMARK INTRA:                  -1.487
REMARK UNBOUND:                -2.413
REMARK  Name = lig_assembled_8.pdb
REMARK  16 active torsions:
REMARK  status: ('A' for Active; 'I' for Inactive)
REMARK    1  A    between atoms: _2  and  _9
REMARK    2  A    between atoms: _4  and  _18
REMARK    3  A    between atoms: _6  and  _7
REMARK    4  A    between atoms: _6  and  _18
REMARK    5  A    between atoms: _14  and  _34
REMARK    6  A    between atoms: _16  and  _22
REMARK    7  A    between atoms: _17  and  _21
REMARK    8  A    between atoms: _21  and  _22
REMARK    9  A    between atoms: _24  and  _25
REMARK   10  A    between atoms: _26  and  _27
REMARK   11  A    between atoms: _28  and  _30
REMARK   12  A    between atoms: _30  and  _31
REMARK   13  A    between atoms: _30  and  _32
REMARK   14  A    between atoms: _32  and  _33
REMARK   15  A    between atoms: _32  and  _34
REMARK   16  A    between atoms: _35  and  _37
REMARK                            x       y       z     vdW  Elec       q    Type
REMARK                         _______ _______ _______ _____ _____    ______ ____
ROOT
ATOM      1  C   UNL     1       4.776   2.496  33.194  0.00  0.00    +0.163 C 
ENDROOT
BRANCH   1   2
ATOM      2  O   UNL     1       5.255   3.640  32.467  0.00  0.00    -0.388 OA
ATOM      3  H   UNL     1       5.890   4.119  33.005  0.00  0.00    +0.210 HD
ENDBRANCH   1   2
BRANCH   1   4
ATOM      4  C   UNL     1       3.272   2.340  32.990  0.00  0.00    +0.141 C 
BRANCH   4   7
ATOM      5  C   UNL     1       1.775   3.647  31.521  0.00  0.00    +0.401 C 
ATOM      6  O   UNL     1       1.036   4.008  32.439  0.00  0.00    -0.226 OA
ATOM      7  N   UNL     1       2.840   2.861  31.687  0.00  0.00    -0.279 N 
ATOM      8  H   UNL     1       3.380   2.611  30.871  0.00  0.00    +0.152 HD
BRANCH   5   9
ATOM      9  O   UNL     1       1.490   4.080  30.188  0.00  0.00    -0.444 OA
BRANCH   9  10
ATOM     10  C   UNL     1       1.880   3.063  29.262  0.00  0.00    +0.292 C 
BRANCH  10  12
ATOM     11  N   UNL     1       0.248   4.014  27.674  0.00  0.00    -0.131 NA
ATOM     12  C   UNL     1       1.451   3.422  27.898  0.00  0.00    +0.121 A 
ATOM     13  C   UNL     1       2.099   3.262  26.695  0.00  0.00    +0.143 A 
ATOM     14  N   UNL     1       1.251   3.802  25.743  0.00  0.00    -0.219 N 
ATOM     15  N   UNL     1       0.135   4.234  26.373  0.00  0.00    -0.060 NA
BRANCH  14  16
ATOM     16  C   UNL     1       1.469   3.925  24.336  0.00  0.00    +0.081 A 
ATOM     17  C   UNL     1       1.600   5.223  23.794  0.00  0.00    +0.029 A 
ATOM     18  C   UNL     1       1.793   5.429  22.425  0.00  0.00    +0.002 A 
ATOM     19  C   UNL     1       1.861   4.345  21.564  0.00  0.00    +0.001 A 
ATOM     20  C   UNL     1       1.743   3.056  22.075  0.00  0.00    +0.017 A 
ATOM     21  C   UNL     1       1.550   2.830  23.452  0.00  0.00    +0.043 A 
ATOM     22 BR   UNL     1       1.424   0.984  23.909  0.00  0.00    -0.048 Br
ENDBRANCH  14  16
ENDBRANCH  10  12
ENDBRANCH   9  10
ENDBRANCH   5   9
ENDBRANCH   4   7
ENDBRANCH   1   4
BRANCH   1  23
ATOM     23  C   UNL     1       5.079   2.633  34.696  0.00  0.00    +0.175 C 
BRANCH  23  24
ATOM     24  C   UNL     1       5.197   4.101  35.130  0.00  0.00    +0.176 C 
ATOM     25  O   UNL     1       6.574   4.340  35.532  0.00  0.00    -0.332 OA
ATOM     26  C   UNL     1       6.901   5.725  35.882  0.00  0.00    +0.277 C 
ATOM     27  C   UNL     1       5.939   6.250  36.975  0.00  0.00    +0.110 C 
ATOM     28  C   UNL     1       4.463   5.990  36.607  0.00  0.00    +0.143 C 
ATOM     29  C   UNL     1       4.235   4.519  36.259  0.00  0.00    +0.133 C 
BRANCH  29  30
ATOM     30  N   UNL     1       2.846   4.301  35.826  0.00  0.00    -0.308 N 
ATOM     31  H   UNL     1       2.523   4.798  35.008  0.00  0.00    +0.149 HD
ATOM     32  C   UNL     1       1.983   3.489  36.443  0.00  0.00    +0.210 C 
ATOM     33  C   UNL     1       2.498   2.765  37.702  0.00  0.00    +0.109 C 
ATOM     34  O   UNL     1       0.830   3.314  36.049  0.00  0.00    -0.276 OA
ENDBRANCH  29  30
BRANCH  26  35
ATOM     35  C   UNL     1       6.817   6.637  34.640  0.00  0.00    +0.414 C 
ATOM     36  O   UNL     1       7.286   6.265  33.565  0.00  0.00    -0.240 OA
ATOM     37  O   UNL     1       6.280   7.743  34.713  0.00  0.00    -0.240 OA
ENDBRANCH  26  35
BRANCH  28  38
ATOM     38  O   UNL     1       3.622   6.350  37.704  0.00  0.00    -0.390 OA
ATOM     39  H   UNL     1       3.161   7.166  37.500  0.00  0.00    +0.210 HD
ENDBRANCH  28  38
BRANCH  26  40
ATOM     40  O   UNL     1       8.252   5.747  36.412  0.00  0.00    -0.343 OA
ATOM     41  C   UNL     1       8.858   4.443  36.598  0.00  0.00    +0.198 C 
ENDBRANCH  26  40
ENDBRANCH  23  24
BRANCH  23  42
ATOM     42  O   UNL     1       6.287   1.919  35.026  0.00  0.00    -0.387 OA
ATOM     43  H   UNL     1       6.974   2.545  35.267  0.00  0.00    +0.210 HD
ENDBRANCH  23  42
ENDBRANCH   1  23
TORSDOF 14
