REMARK VINA RESULT:    -5.986     13.722     16.939
REMARK INTER + INTRA:         -14.249
REMARK INTER:                 -11.405
REMARK INTRA:                  -2.844
REMARK UNBOUND:                -3.014
REMARK  Name = lig_assembled_75.pdb
REMARK  19 active torsions:
REMARK  status: ('A' for Active; 'I' for Inactive)
REMARK    1  A    between atoms: _2  and  _9
REMARK    2  A    between atoms: _4  and  _23
REMARK    3  A    between atoms: _6  and  _7
REMARK    4  A    between atoms: _6  and  _23
REMARK    5  A    between atoms: _11  and  _12
REMARK    6  A    between atoms: _13  and  _14
REMARK    7  A    between atoms: _14  and  _17
REMARK    8  A    between atoms: _19  and  _39
REMARK    9  A    between atoms: _21  and  _27
REMARK   10  A    between atoms: _22  and  _26
REMARK   11  A    between atoms: _26  and  _27
REMARK   12  A    between atoms: _29  and  _30
REMARK   13  A    between atoms: _31  and  _32
REMARK   14  A    between atoms: _33  and  _35
REMARK   15  A    between atoms: _35  and  _36
REMARK   16  A    between atoms: _35  and  _37
REMARK   17  A    between atoms: _37  and  _38
REMARK   18  A    between atoms: _37  and  _39
REMARK   19  A    between atoms: _40  and  _42
REMARK                            x       y       z     vdW  Elec       q    Type
REMARK                         _______ _______ _______ _____ _____    ______ ____
ROOT
ATOM      1  C   UNL     1      17.127   2.845  21.437  0.00  0.00    +0.141 C 
ENDROOT
BRANCH   1   4
ATOM      2  C   UNL     1      18.493   0.793  21.273  0.00  0.00    +0.401 C 
ATOM      3  O   UNL     1      19.391   1.330  20.621  0.00  0.00    -0.226 OA
ATOM      4  N   UNL     1      17.396   1.424  21.691  0.00  0.00    -0.279 N 
ATOM      5  H   UNL     1      16.710   0.895  22.212  0.00  0.00    +0.152 HD
BRANCH   2   6
ATOM      6  O   UNL     1      18.613  -0.592  21.610  0.00  0.00    -0.444 OA
BRANCH   6   7
ATOM      7  C   UNL     1      18.551  -0.745  23.030  0.00  0.00    +0.292 C 
BRANCH   7   9
ATOM      8  N   UNL     1      17.317  -2.799  22.417  0.00  0.00    -0.131 NA
ATOM      9  C   UNL     1      17.848  -1.993  23.382  0.00  0.00    +0.121 A 
ATOM     10  C   UNL     1      17.604  -2.548  24.617  0.00  0.00    +0.143 A 
ATOM     11  N   UNL     1      16.910  -3.706  24.357  0.00  0.00    -0.220 N 
ATOM     12  N   UNL     1      16.747  -3.836  23.015  0.00  0.00    -0.060 NA
BRANCH  11  13
ATOM     13  C   UNL     1      16.383  -4.654  25.271  0.00  0.00    +0.068 A 
ATOM     14  C   UNL     1      15.167  -4.381  25.921  0.00  0.00    +0.035 A 
ATOM     15  C   UNL     1      14.651  -5.264  26.880  0.00  0.00    -0.023 A 
ATOM     16  C   UNL     1      15.337  -6.459  27.131  0.00  0.00    +0.008 A 
ATOM     17  C   UNL     1      16.533  -6.747  26.471  0.00  0.00    +0.003 A 
ATOM     18  C   UNL     1      17.062  -5.845  25.549  0.00  0.00    +0.028 A 
BRANCH  15  19
ATOM     19  C   UNL     1      13.407  -4.993  27.616  0.00  0.00    +0.015 C 
ATOM     20  C   UNL     1      12.430  -5.898  27.791  0.00  0.00    +0.092 C 
BRANCH  20  21
ATOM     21  C   UNL     1      11.195  -5.514  28.499  0.00  0.00    +0.330 C 
ATOM     22  O   UNL     1      10.803  -6.019  29.535  0.00  0.00    -0.246 OA
BRANCH  21  23
ATOM     23  O   UNL     1      10.543  -4.515  27.869  0.00  0.00    -0.478 OA
ATOM     24  H   UNL     1       9.879  -4.792  27.214  0.00  0.00    +0.295 HD
ENDBRANCH  21  23
ENDBRANCH  20  21
ENDBRANCH  15  19
ENDBRANCH  11  13
ENDBRANCH   7   9
ENDBRANCH   6   7
ENDBRANCH   2   6
ENDBRANCH   1   4
BRANCH   1  25
ATOM     25  C   UNL     1      16.915   3.624  22.730  0.00  0.00    +0.163 C 
BRANCH  25  26
ATOM     26  O   UNL     1      15.994   2.923  23.582  0.00  0.00    -0.388 OA
ATOM     27  H   UNL     1      16.165   3.154  24.498  0.00  0.00    +0.210 HD
ENDBRANCH  25  26
BRANCH  25  28
ATOM     28  C   UNL     1      18.268   3.828  23.434  0.00  0.00    +0.175 C 
BRANCH  28  29
ATOM     29  C   UNL     1      18.497   2.803  24.554  0.00  0.00    +0.176 C 
ATOM     30  O   UNL     1      17.832   3.291  25.751  0.00  0.00    -0.332 OA
ATOM     31  C   UNL     1      17.855   2.386  26.904  0.00  0.00    +0.277 C 
ATOM     32  C   UNL     1      19.309   1.978  27.243  0.00  0.00    +0.110 C 
ATOM     33  C   UNL     1      20.067   1.481  25.994  0.00  0.00    +0.143 C 
ATOM     34  C   UNL     1      19.977   2.498  24.856  0.00  0.00    +0.133 C 
BRANCH  34  35
ATOM     35  N   UNL     1      20.628   1.976  23.645  0.00  0.00    -0.308 N 
ATOM     36  H   UNL     1      20.225   1.159  23.207  0.00  0.00    +0.149 HD
ATOM     37  C   UNL     1      21.717   2.510  23.086  0.00  0.00    +0.210 C 
ATOM     38  C   UNL     1      22.323   3.738  23.791  0.00  0.00    +0.109 C 
ATOM     39  O   UNL     1      22.233   2.060  22.062  0.00  0.00    -0.276 OA
ENDBRANCH  34  35
BRANCH  31  40
ATOM     40  C   UNL     1      17.017   1.121  26.622  0.00  0.00    +0.414 C 
ATOM     41  O   UNL     1      15.989   1.195  25.949  0.00  0.00    -0.240 OA
ATOM     42  O   UNL     1      17.368   0.028  27.067  0.00  0.00    -0.240 OA
ENDBRANCH  31  40
BRANCH  31  43
ATOM     43  O   UNL     1      17.301   3.094  28.042  0.00  0.00    -0.343 OA
ATOM     44  C   UNL     1      18.267   3.478  29.053  0.00  0.00    +0.198 C 
ENDBRANCH  31  43
BRANCH  33  45
ATOM     45  O   UNL     1      21.440   1.260  26.320  0.00  0.00    -0.390 OA
ATOM     46  H   UNL     1      21.615   0.317  26.351  0.00  0.00    +0.210 HD
ENDBRANCH  33  45
ENDBRANCH  28  29
BRANCH  28  47
ATOM     47  O   UNL     1      18.357   5.167  23.961  0.00  0.00    -0.387 OA
ATOM     48  H   UNL     1      17.750   5.262  24.699  0.00  0.00    +0.210 HD
ENDBRANCH  28  47
ENDBRANCH  25  28
ENDBRANCH   1  25
TORSDOF 17
