REMARK VINA RESULT:    -6.508      2.407      4.284
REMARK INTER + INTRA:         -13.756
REMARK INTER:                 -11.808
REMARK INTRA:                  -1.947
REMARK UNBOUND:                -1.921
REMARK  Name = lig_assembled_23.pdb
REMARK  18 active torsions:
REMARK  status: ('A' for Active; 'I' for Inactive)
REMARK    1  A    between atoms: _2  and  _10
REMARK    2  A    between atoms: _3  and  _41
REMARK    3  A    between atoms: _5  and  _21
REMARK    4  A    between atoms: _7  and  _8
REMARK    5  A    between atoms: _7  and  _21
REMARK    6  A    between atoms: _12  and  _41
REMARK    7  A    between atoms: _17  and  _37
REMARK    8  A    between atoms: _19  and  _25
REMARK    9  A    between atoms: _20  and  _24
REMARK   10  A    between atoms: _24  and  _25
REMARK   11  A    between atoms: _27  and  _28
REMARK   12  A    between atoms: _29  and  _30
REMARK   13  A    between atoms: _31  and  _33
REMARK   14  A    between atoms: _33  and  _34
REMARK   15  A    between atoms: _33  and  _35
REMARK   16  A    between atoms: _35  and  _36
REMARK   17  A    between atoms: _35  and  _37
REMARK   18  A    between atoms: _38  and  _40
REMARK                            x       y       z     vdW  Elec       q    Type
REMARK                         _______ _______ _______ _____ _____    ______ ____
ROOT
ATOM      1  C   UNL     1      19.415   6.843  23.616  0.00  0.00    +0.141 C 
ENDROOT
BRANCH   1   4
ATOM      2  C   UNL     1      20.760   7.644  25.528  0.00  0.00    +0.401 C 
ATOM      3  O   UNL     1      21.761   6.995  25.217  0.00  0.00    -0.226 OA
ATOM      4  N   UNL     1      19.617   7.627  24.840  0.00  0.00    -0.279 N 
ATOM      5  H   UNL     1      18.847   8.186  25.181  0.00  0.00    +0.152 HD
BRANCH   2   6
ATOM      6  O   UNL     1      20.801   8.467  26.697  0.00  0.00    -0.444 OA
BRANCH   6   7
ATOM      7  C   UNL     1      19.929   9.587  26.523  0.00  0.00    +0.292 C 
BRANCH   7   9
ATOM      8  N   UNL     1      18.075  10.656  27.762  0.00  0.00    -0.131 NA
ATOM      9  C   UNL     1      19.175   9.846  27.762  0.00  0.00    +0.121 A 
ATOM     10  C   UNL     1      19.388   9.380  29.040  0.00  0.00    +0.143 A 
ATOM     11  N   UNL     1      18.377   9.930  29.792  0.00  0.00    -0.220 N 
ATOM     12  N   UNL     1      17.598  10.705  28.997  0.00  0.00    -0.060 NA
BRANCH  11  13
ATOM     13  C   UNL     1      18.115   9.781  31.179  0.00  0.00    +0.069 A 
ATOM     14  C   UNL     1      17.581   8.574  31.654  0.00  0.00    +0.056 A 
ATOM     15  C   UNL     1      17.288   8.437  33.015  0.00  0.00    +0.107 A 
ATOM     16  C   UNL     1      17.545   9.474  33.913  0.00  0.00    +0.028 A 
ATOM     17  C   UNL     1      18.089  10.668  33.441  0.00  0.00    +0.004 A 
ATOM     18  C   UNL     1      18.370  10.826  32.079  0.00  0.00    +0.028 A 
BRANCH  15  19
ATOM     19  S   UNL     1      16.562   6.930  33.587  0.00  0.00    +0.056 S 
ATOM     20  O   UNL     1      17.532   5.868  33.457  0.00  0.00    -0.153 OA
ATOM     21  O   UNL     1      15.841   7.184  34.813  0.00  0.00    -0.153 OA
BRANCH  19  22
ATOM     22  N   UNL     1      15.382   6.649  32.427  0.00  0.00    -0.204 NA
ATOM     23  H   UNL     1      14.465   6.598  32.868  0.00  0.00    +0.144 HD
ATOM     24  H   UNL     1      15.625   5.825  31.874  0.00  0.00    +0.144 HD
ENDBRANCH  19  22
ENDBRANCH  15  19
ENDBRANCH  11  13
ENDBRANCH   7   9
ENDBRANCH   6   7
ENDBRANCH   2   6
ENDBRANCH   1   4
BRANCH   1  25
ATOM     25  C   UNL     1      18.402   5.721  23.819  0.00  0.00    +0.163 C 
BRANCH  25  26
ATOM     26  O   UNL     1      17.406   5.765  22.785  0.00  0.00    -0.388 OA
ATOM     27  H   UNL     1      17.324   6.664  22.457  0.00  0.00    +0.210 HD
ENDBRANCH  25  26
BRANCH  25  28
ATOM     28  C   UNL     1      19.130   4.366  23.824  0.00  0.00    +0.175 C 
BRANCH  28  29
ATOM     29  C   UNL     1      18.375   3.307  24.641  0.00  0.00    +0.176 C 
ATOM     30  O   UNL     1      19.241   2.879  25.728  0.00  0.00    -0.332 OA
ATOM     31  C   UNL     1      18.644   1.940  26.682  0.00  0.00    +0.277 C 
ATOM     32  C   UNL     1      18.082   0.701  25.942  0.00  0.00    +0.110 C 
ATOM     33  C   UNL     1      17.179   1.107  24.757  0.00  0.00    +0.143 C 
ATOM     34  C   UNL     1      17.899   2.087  23.831  0.00  0.00    +0.133 C 
BRANCH  34  35
ATOM     35  N   UNL     1      16.999   2.533  22.755  0.00  0.00    -0.308 N 
ATOM     36  H   UNL     1      16.199   3.093  23.011  0.00  0.00    +0.149 HD
ATOM     37  C   UNL     1      17.172   2.246  21.462  0.00  0.00    +0.210 C 
ATOM     38  C   UNL     1      18.387   1.368  21.107  0.00  0.00    +0.109 C 
ATOM     39  O   UNL     1      16.411   2.645  20.580  0.00  0.00    -0.276 OA
ENDBRANCH  34  35
BRANCH  31  40
ATOM     40  C   UNL     1      17.514   2.619  27.483  0.00  0.00    +0.414 C 
ATOM     41  O   UNL     1      16.341   2.482  27.139  0.00  0.00    -0.240 OA
ATOM     42  O   UNL     1      17.775   3.303  28.474  0.00  0.00    -0.240 OA
ENDBRANCH  31  40
BRANCH  33  43
ATOM     43  O   UNL     1      16.807  -0.055  24.015  0.00  0.00    -0.390 OA
ATOM     44  H   UNL     1      16.184   0.189  23.328  0.00  0.00    +0.210 HD
ENDBRANCH  33  43
BRANCH  31  45
ATOM     45  O   UNL     1      19.687   1.496  27.588  0.00  0.00    -0.343 OA
ATOM     46  C   UNL     1      20.961   2.172  27.433  0.00  0.00    +0.198 C 
ENDBRANCH  31  45
ENDBRANCH  28  29
BRANCH  28  47
ATOM     47  O   UNL     1      20.470   4.524  24.333  0.00  0.00    -0.387 OA
ATOM     48  H   UNL     1      20.733   3.725  24.797  0.00  0.00    +0.210 HD
ENDBRANCH  28  47
ENDBRANCH  25  28
ENDBRANCH   1  25
TORSDOF 16
