REMARK VINA RESULT:    -5.526     15.852     17.818
REMARK INTER + INTRA:         -13.798
REMARK INTER:                 -10.210
REMARK INTRA:                  -3.588
REMARK UNBOUND:                -3.588
REMARK  Name = lig_assembled_58.pdb
REMARK  18 active torsions:
REMARK  status: ('A' for Active; 'I' for Inactive)
REMARK    1  A    between atoms: _2  and  _9
REMARK    2  A    between atoms: _4  and  _25
REMARK    3  A    between atoms: _6  and  _7
REMARK    4  A    between atoms: _6  and  _25
REMARK    5  A    between atoms: _9  and  _10
REMARK    6  A    between atoms: _9  and  _16
REMARK    7  A    between atoms: _21  and  _41
REMARK    8  A    between atoms: _23  and  _29
REMARK    9  A    between atoms: _24  and  _28
REMARK   10  A    between atoms: _28  and  _29
REMARK   11  A    between atoms: _31  and  _32
REMARK   12  A    between atoms: _33  and  _34
REMARK   13  A    between atoms: _35  and  _37
REMARK   14  A    between atoms: _37  and  _38
REMARK   15  A    between atoms: _37  and  _39
REMARK   16  A    between atoms: _39  and  _40
REMARK   17  A    between atoms: _39  and  _41
REMARK   18  A    between atoms: _42  and  _44
REMARK                            x       y       z     vdW  Elec       q    Type
REMARK                         _______ _______ _______ _____ _____    ______ ____
ROOT
ATOM      1  C   UNL     1      -1.016   0.653  30.359  0.00  0.00    +0.141 C 
ENDROOT
BRANCH   1   4
ATOM      2  C   UNL     1      -2.291   2.458  29.254  0.00  0.00    +0.401 C 
ATOM      3  O   UNL     1      -3.050   1.687  28.661  0.00  0.00    -0.226 OA
ATOM      4  N   UNL     1      -1.308   2.061  30.063  0.00  0.00    -0.279 N 
ATOM      5  H   UNL     1      -0.732   2.768  30.497  0.00  0.00    +0.152 HD
BRANCH   2   6
ATOM      6  O   UNL     1      -2.454   3.867  29.075  0.00  0.00    -0.444 OA
BRANCH   6   7
ATOM      7  C   UNL     1      -2.324   4.191  27.689  0.00  0.00    +0.292 C 
BRANCH   7   9
ATOM      8  N   UNL     1       0.126   4.095  28.096  0.00  0.00    -0.131 NA
ATOM      9  C   UNL     1      -0.936   3.971  27.241  0.00  0.00    +0.120 A 
ATOM     10  C   UNL     1      -0.471   3.595  26.002  0.00  0.00    +0.138 A 
ATOM     11  N   UNL     1       0.861   3.353  26.201  0.00  0.00    -0.240 N 
ATOM     12  N   UNL     1       1.226   3.735  27.446  0.00  0.00    -0.064 NA
BRANCH  11  13
ATOM     13  C   UNL     1       1.845   2.734  25.294  0.00  0.00    +0.169 C 
BRANCH  13  14
ATOM     14  C   UNL     1       1.705   1.206  25.333  0.00  0.00    -0.019 A 
ATOM     15  C   UNL     1       0.435   0.615  25.441  0.00  0.00    +0.006 A 
ATOM     16  C   UNL     1       0.300  -0.773  25.536  0.00  0.00    +0.000 A 
ATOM     17  C   UNL     1       1.428  -1.592  25.510  0.00  0.00    +0.000 A 
ATOM     18  C   UNL     1       2.694  -1.027  25.406  0.00  0.00    +0.000 A 
ATOM     19  C   UNL     1       2.831   0.358  25.330  0.00  0.00    +0.006 A 
ENDBRANCH  13  14
BRANCH  13  20
ATOM     20  C   UNL     1       1.825   3.350  23.888  0.00  0.00    -0.019 A 
ATOM     21  C   UNL     1       1.751   2.541  22.740  0.00  0.00    +0.006 A 
ATOM     22  C   UNL     1       1.735   3.108  21.462  0.00  0.00    +0.000 A 
ATOM     23  C   UNL     1       1.770   4.491  21.308  0.00  0.00    +0.000 A 
ATOM     24  C   UNL     1       1.788   5.310  22.429  0.00  0.00    +0.000 A 
ATOM     25  C   UNL     1       1.796   4.747  23.704  0.00  0.00    +0.006 A 
ENDBRANCH  13  20
ENDBRANCH  11  13
ENDBRANCH   7   9
ENDBRANCH   6   7
ENDBRANCH   2   6
ENDBRANCH   1   4
BRANCH   1  26
ATOM     26  C   UNL     1       0.275   0.495  31.155  0.00  0.00    +0.163 C 
BRANCH  26  27
ATOM     27  O   UNL     1       0.240  -0.726  31.913  0.00  0.00    -0.388 OA
ATOM     28  H   UNL     1       0.159  -1.472  31.314  0.00  0.00    +0.210 HD
ENDBRANCH  26  27
BRANCH  26  29
ATOM     29  C   UNL     1       1.477   0.512  30.195  0.00  0.00    +0.175 C 
BRANCH  29  30
ATOM     30  C   UNL     1       2.807   0.714  30.937  0.00  0.00    +0.176 C 
ATOM     31  O   UNL     1       3.133  -0.530  31.616  0.00  0.00    -0.332 OA
ATOM     32  C   UNL     1       4.431  -0.559  32.296  0.00  0.00    +0.277 C 
ATOM     33  C   UNL     1       4.550   0.625  33.287  0.00  0.00    +0.110 C 
ATOM     34  C   UNL     1       4.182   1.966  32.618  0.00  0.00    +0.143 C 
ATOM     35  C   UNL     1       2.815   1.884  31.939  0.00  0.00    +0.133 C 
BRANCH  35  36
ATOM     36  N   UNL     1       2.514   3.138  31.232  0.00  0.00    -0.308 N 
ATOM     37  H   UNL     1       3.075   3.371  30.424  0.00  0.00    +0.149 HD
ATOM     38  C   UNL     1       1.549   3.990  31.587  0.00  0.00    +0.210 C 
ATOM     39  C   UNL     1       0.729   3.620  32.838  0.00  0.00    +0.109 C 
ATOM     40  O   UNL     1       1.310   5.027  30.967  0.00  0.00    -0.276 OA
ENDBRANCH  35  36
BRANCH  32  41
ATOM     41  C   UNL     1       5.585  -0.495  31.274  0.00  0.00    +0.414 C 
ATOM     42  O   UNL     1       5.417  -0.895  30.123  0.00  0.00    -0.240 OA
ATOM     43  O   UNL     1       6.684  -0.043  31.601  0.00  0.00    -0.240 OA
ENDBRANCH  32  41
BRANCH  34  44
ATOM     44  O   UNL     1       4.159   3.003  33.599  0.00  0.00    -0.390 OA
ATOM     45  H   UNL     1       3.249   3.242  33.792  0.00  0.00    +0.210 HD
ENDBRANCH  34  44
BRANCH  32  46
ATOM     46  O   UNL     1       4.515  -1.796  33.050  0.00  0.00    -0.343 OA
ATOM     47  C   UNL     1       3.331  -2.631  32.991  0.00  0.00    +0.198 C 
ENDBRANCH  32  46
ENDBRANCH  29  30
BRANCH  29  48
ATOM     48  O   UNL     1       1.303   1.540  29.200  0.00  0.00    -0.387 OA
ATOM     49  H   UNL     1       2.098   1.607  28.665  0.00  0.00    +0.210 HD
ENDBRANCH  29  48
ENDBRANCH  26  29
ENDBRANCH   1  26
TORSDOF 16
