REMARK VINA RESULT:    -5.485      4.637      9.383
REMARK INTER + INTRA:         -12.621
REMARK INTER:                 -10.798
REMARK INTRA:                  -1.823
REMARK UNBOUND:                -2.326
REMARK  Name = lig_assembled_32.pdb
REMARK  19 active torsions:
REMARK  status: ('A' for Active; 'I' for Inactive)
REMARK    1  A    between atoms: _2  and  _9
REMARK    2  A    between atoms: _4  and  _17
REMARK    3  A    between atoms: _5  and  _10
REMARK    4  A    between atoms: _5  and  _11
REMARK    5  A    between atoms: _6  and  _7
REMARK    6  A    between atoms: _6  and  _17
REMARK    7  A    between atoms: _9  and  _10
REMARK    8  A    between atoms: _13  and  _33
REMARK    9  A    between atoms: _15  and  _21
REMARK   10  A    between atoms: _16  and  _20
REMARK   11  A    between atoms: _20  and  _21
REMARK   12  A    between atoms: _23  and  _24
REMARK   13  A    between atoms: _25  and  _26
REMARK   14  A    between atoms: _27  and  _29
REMARK   15  A    between atoms: _29  and  _30
REMARK   16  A    between atoms: _29  and  _31
REMARK   17  A    between atoms: _31  and  _32
REMARK   18  A    between atoms: _31  and  _33
REMARK   19  A    between atoms: _34  and  _36
REMARK                            x       y       z     vdW  Elec       q    Type
REMARK                         _______ _______ _______ _____ _____    ______ ____
ROOT
ATOM      1  C   UNL     1       7.031   3.856  33.611  0.00  0.00    +0.163 C 
ENDROOT
BRANCH   1   2
ATOM      2  O   UNL     1       7.722   4.876  32.871  0.00  0.00    -0.388 OA
ATOM      3  H   UNL     1       8.570   4.537  32.572  0.00  0.00    +0.210 HD
ENDBRANCH   1   2
BRANCH   1   4
ATOM      4  C   UNL     1       5.781   4.428  34.300  0.00  0.00    +0.175 C 
BRANCH   4   5
ATOM      5  C   UNL     1       6.137   5.464  35.376  0.00  0.00    +0.176 C 
ATOM      6  O   UNL     1       7.526   5.258  35.753  0.00  0.00    -0.332 OA
ATOM      7  C   UNL     1       8.077   6.231  36.701  0.00  0.00    +0.277 C 
ATOM      8  C   UNL     1       7.196   6.306  37.972  0.00  0.00    +0.110 C 
ATOM      9  C   UNL     1       5.705   6.493  37.621  0.00  0.00    +0.143 C 
ATOM     10  C   UNL     1       5.238   5.430  36.626  0.00  0.00    +0.133 C 
BRANCH  10  11
ATOM     11  N   UNL     1       3.841   5.671  36.233  0.00  0.00    -0.308 N 
ATOM     12  H   UNL     1       3.654   6.434  35.598  0.00  0.00    +0.149 HD
ATOM     13  C   UNL     1       2.803   4.946  36.660  0.00  0.00    +0.210 C 
ATOM     14  C   UNL     1       3.117   3.806  37.647  0.00  0.00    +0.109 C 
ATOM     15  O   UNL     1       1.644   5.162  36.303  0.00  0.00    -0.276 OA
ENDBRANCH  10  11
BRANCH   7  16
ATOM     16  C   UNL     1       8.173   7.629  36.057  0.00  0.00    +0.414 C 
ATOM     17  O   UNL     1       8.196   7.747  34.832  0.00  0.00    -0.240 OA
ATOM     18  O   UNL     1       8.226   8.639  36.760  0.00  0.00    -0.240 OA
ENDBRANCH   7  16
BRANCH   7  19
ATOM     19  O   UNL     1       9.401   5.780  37.089  0.00  0.00    -0.343 OA
ATOM     20  C   UNL     1       9.678   4.384  36.811  0.00  0.00    +0.198 C 
ENDBRANCH   7  19
BRANCH   9  21
ATOM     21  O   UNL     1       4.916   6.406  38.808  0.00  0.00    -0.390 OA
ATOM     22  H   UNL     1       4.011   6.661  38.612  0.00  0.00    +0.210 HD
ENDBRANCH   9  21
ENDBRANCH   4   5
BRANCH   4  23
ATOM     23  O   UNL     1       5.000   3.362  34.877  0.00  0.00    -0.387 OA
ATOM     24  H   UNL     1       4.141   3.327  34.449  0.00  0.00    +0.210 HD
ENDBRANCH   4  23
ENDBRANCH   1   4
BRANCH   1  25
ATOM     25  C   UNL     1       6.624   2.720  32.678  0.00  0.00    +0.141 C 
BRANCH  25  28
ATOM     26  C   UNL     1       4.340   2.454  31.773  0.00  0.00    +0.401 C 
ATOM     27  O   UNL     1       4.082   1.463  32.460  0.00  0.00    -0.226 OA
ATOM     28  N   UNL     1       5.506   3.101  31.807  0.00  0.00    -0.279 N 
ATOM     29  H   UNL     1       5.626   3.899  31.198  0.00  0.00    +0.152 HD
BRANCH  26  30
ATOM     30  O   UNL     1       3.346   2.956  30.876  0.00  0.00    -0.444 OA
BRANCH  30  31
ATOM     31  C   UNL     1       2.576   1.867  30.359  0.00  0.00    +0.292 C 
BRANCH  31  33
ATOM     32  N   UNL     1       2.004   1.097  28.078  0.00  0.00    -0.131 NA
ATOM     33  C   UNL     1       2.192   2.129  28.959  0.00  0.00    +0.120 A 
ATOM     34  C   UNL     1       1.972   3.323  28.308  0.00  0.00    +0.137 A 
ATOM     35  N   UNL     1       1.666   2.948  27.036  0.00  0.00    -0.251 N 
ATOM     36  N   UNL     1       1.684   1.612  26.900  0.00  0.00    -0.065 NA
BRANCH  35  37
ATOM     37  C   UNL     1       1.343   3.791  25.907  0.00  0.00    +0.156 C 
BRANCH  37  38
ATOM     38  C   UNL     1      -0.116   3.659  25.495  0.00  0.00    +0.143 C 
BRANCH  38  39
ATOM     39  C   UNL     1      -0.919   4.797  26.058  0.00  0.00    +0.306 C 
ATOM     40  O   UNL     1      -1.609   4.734  27.063  0.00  0.00    -0.251 OA
BRANCH  39  41
ATOM     41  O   UNL     1      -0.814   5.925  25.320  0.00  0.00    -0.481 OA
ATOM     42  H   UNL     1      -0.345   6.655  25.768  0.00  0.00    +0.295 HD
ENDBRANCH  39  41
ENDBRANCH  38  39
ENDBRANCH  37  38
ENDBRANCH  35  37
ENDBRANCH  31  33
ENDBRANCH  30  31
ENDBRANCH  26  30
ENDBRANCH  25  28
ENDBRANCH   1  25
TORSDOF 17
