REMARK VINA RESULT:    -5.940     12.807     17.766
REMARK INTER + INTRA:         -12.194
REMARK INTER:                 -10.280
REMARK INTRA:                  -1.914
REMARK UNBOUND:                -1.914
REMARK  Name = lig_assembled_56.pdb
REMARK  16 active torsions:
REMARK  status: ('A' for Active; 'I' for Inactive)
REMARK    1  A    between atoms: _2  and  _10
REMARK    2  A    between atoms: _5  and  _18
REMARK    3  A    between atoms: _7  and  _8
REMARK    4  A    between atoms: _7  and  _18
REMARK    5  A    between atoms: _14  and  _34
REMARK    6  A    between atoms: _16  and  _22
REMARK    7  A    between atoms: _17  and  _21
REMARK    8  A    between atoms: _21  and  _22
REMARK    9  A    between atoms: _24  and  _25
REMARK   10  A    between atoms: _26  and  _27
REMARK   11  A    between atoms: _28  and  _30
REMARK   12  A    between atoms: _30  and  _31
REMARK   13  A    between atoms: _30  and  _32
REMARK   14  A    between atoms: _32  and  _33
REMARK   15  A    between atoms: _32  and  _34
REMARK   16  A    between atoms: _35  and  _37
REMARK                            x       y       z     vdW  Elec       q    Type
REMARK                         _______ _______ _______ _____ _____    ______ ____
ROOT
ATOM      1  C   UNL     1       2.904   2.990  30.858  0.00  0.00    +0.163 C 
ENDROOT
BRANCH   1   2
ATOM      2  O   UNL     1       2.901   1.647  30.344  0.00  0.00    -0.388 OA
ATOM      3  H   UNL     1       2.163   1.162  30.721  0.00  0.00    +0.210 HD
ENDBRANCH   1   2
BRANCH   1   4
ATOM      4  C   UNL     1       3.428   3.000  32.290  0.00  0.00    +0.141 C 
BRANCH   4   7
ATOM      5  C   UNL     1       5.854   2.569  32.099  0.00  0.00    +0.401 C 
ATOM      6  O   UNL     1       5.714   1.382  31.795  0.00  0.00    -0.226 OA
ATOM      7  N   UNL     1       4.840   3.397  32.353  0.00  0.00    -0.279 N 
ATOM      8  H   UNL     1       5.055   4.352  32.604  0.00  0.00    +0.152 HD
BRANCH   5   9
ATOM      9  O   UNL     1       7.173   3.111  32.194  0.00  0.00    -0.444 OA
BRANCH   9  10
ATOM     10  C   UNL     1       7.701   2.857  33.499  0.00  0.00    +0.292 C 
BRANCH  10  12
ATOM     11  N   UNL     1       7.385   5.293  33.789  0.00  0.00    -0.131 NA
ATOM     12  C   UNL     1       7.591   4.062  34.341  0.00  0.00    +0.121 A 
ATOM     13  C   UNL     1       7.659   4.190  35.710  0.00  0.00    +0.143 A 
ATOM     14  N   UNL     1       7.469   5.532  35.951  0.00  0.00    -0.220 N 
ATOM     15  N   UNL     1       7.315   6.181  34.771  0.00  0.00    -0.060 NA
BRANCH  14  16
ATOM     16  C   UNL     1       7.416   6.212  37.193  0.00  0.00    +0.070 A 
ATOM     17  C   UNL     1       8.561   6.789  37.747  0.00  0.00    +0.047 A 
ATOM     18  C   UNL     1       8.439   7.425  38.972  0.00  0.00    +0.113 A 
ATOM     19  N   UNL     1       7.282   7.521  39.659  0.00  0.00    -0.263 NA
ATOM     20  C   UNL     1       6.190   6.958  39.100  0.00  0.00    +0.113 A 
ATOM     21  C   UNL     1       6.203   6.300  37.882  0.00  0.00    +0.047 A 
ENDBRANCH  14  16
ENDBRANCH  10  12
ENDBRANCH   9  10
ENDBRANCH   5   9
ENDBRANCH   4   7
ENDBRANCH   1   4
BRANCH   1  22
ATOM     22  C   UNL     1       1.490   3.595  30.823  0.00  0.00    +0.175 C 
BRANCH  22  23
ATOM     23  C   UNL     1       0.738   3.233  29.534  0.00  0.00    +0.176 C 
ATOM     24  O   UNL     1       1.525   3.709  28.408  0.00  0.00    -0.332 OA
ATOM     25  C   UNL     1       1.011   3.357  27.081  0.00  0.00    +0.277 C 
ATOM     26  C   UNL     1      -0.457   3.826  26.929  0.00  0.00    +0.110 C 
ATOM     27  C   UNL     1      -1.327   3.370  28.119  0.00  0.00    +0.143 C 
ATOM     28  C   UNL     1      -0.697   3.785  29.449  0.00  0.00    +0.133 C 
BRANCH  28  29
ATOM     29  N   UNL     1      -1.490   3.271  30.577  0.00  0.00    -0.308 N 
ATOM     30  H   UNL     1      -1.580   2.269  30.672  0.00  0.00    +0.149 HD
ATOM     31  C   UNL     1      -2.098   4.041  31.483  0.00  0.00    +0.210 C 
ATOM     32  C   UNL     1      -1.964   5.564  31.296  0.00  0.00    +0.109 C 
ATOM     33  O   UNL     1      -2.743   3.582  32.427  0.00  0.00    -0.276 OA
ENDBRANCH  28  29
BRANCH  25  34
ATOM     34  C   UNL     1       1.093   1.834  26.849  0.00  0.00    +0.414 C 
ATOM     35  O   UNL     1       0.415   1.304  25.970  0.00  0.00    -0.240 OA
ATOM     36  O   UNL     1       1.836   1.137  27.539  0.00  0.00    -0.240 OA
ENDBRANCH  25  34
BRANCH  27  37
ATOM     37  O   UNL     1      -2.629   3.949  28.014  0.00  0.00    -0.390 OA
ATOM     38  H   UNL     1      -2.562   4.819  27.613  0.00  0.00    +0.210 HD
ENDBRANCH  27  37
BRANCH  25  39
ATOM     39  O   UNL     1       1.816   4.047  26.091  0.00  0.00    -0.343 OA
ATOM     40  C   UNL     1       1.076   4.577  24.962  0.00  0.00    +0.198 C 
ENDBRANCH  25  39
ENDBRANCH  22  23
BRANCH  22  41
ATOM     41  O   UNL     1       1.559   5.027  30.973  0.00  0.00    -0.387 OA
ATOM     42  H   UNL     1       2.377   5.264  31.417  0.00  0.00    +0.210 HD
ENDBRANCH  22  41
ENDBRANCH   1  22
TORSDOF 14
