REMARK VINA RESULT:    -5.690     13.368     16.452
REMARK INTER + INTRA:         -12.416
REMARK INTER:                  -9.848
REMARK INTRA:                  -2.568
REMARK UNBOUND:                -2.568
REMARK  Name = lig_assembled_27.pdb
REMARK  16 active torsions:
REMARK  status: ('A' for Active; 'I' for Inactive)
REMARK    1  A    between atoms: _2  and  _9
REMARK    2  A    between atoms: _4  and  _18
REMARK    3  A    between atoms: _6  and  _7
REMARK    4  A    between atoms: _6  and  _18
REMARK    5  A    between atoms: _14  and  _34
REMARK    6  A    between atoms: _16  and  _22
REMARK    7  A    between atoms: _17  and  _21
REMARK    8  A    between atoms: _21  and  _22
REMARK    9  A    between atoms: _24  and  _25
REMARK   10  A    between atoms: _26  and  _27
REMARK   11  A    between atoms: _28  and  _30
REMARK   12  A    between atoms: _30  and  _31
REMARK   13  A    between atoms: _30  and  _32
REMARK   14  A    between atoms: _32  and  _33
REMARK   15  A    between atoms: _32  and  _34
REMARK   16  A    between atoms: _35  and  _37
REMARK                            x       y       z     vdW  Elec       q    Type
REMARK                         _______ _______ _______ _____ _____    ______ ____
ROOT
ATOM      1  C   UNL     1      18.996   6.226  24.074  0.00  0.00    +0.163 C 
ENDROOT
BRANCH   1   2
ATOM      2  O   UNL     1      18.048   6.224  22.994  0.00  0.00    -0.388 OA
ATOM      3  H   UNL     1      17.158   6.287  23.349  0.00  0.00    +0.210 HD
ENDBRANCH   1   2
BRANCH   1   4
ATOM      4  C   UNL     1      20.068   7.282  23.825  0.00  0.00    +0.141 C 
BRANCH   4   7
ATOM      5  C   UNL     1      21.096   8.199  25.877  0.00  0.00    +0.401 C 
ATOM      6  O   UNL     1      21.981   7.342  25.930  0.00  0.00    -0.226 OA
ATOM      7  N   UNL     1      20.157   8.244  24.931  0.00  0.00    -0.279 N 
ATOM      8  H   UNL     1      19.467   8.981  24.978  0.00  0.00    +0.152 HD
BRANCH   5   9
ATOM      9  O   UNL     1      21.052   9.215  26.882  0.00  0.00    -0.444 OA
BRANCH   9  10
ATOM     10  C   UNL     1      19.789   9.883  26.832  0.00  0.00    +0.292 C 
BRANCH  10  12
ATOM     11  N   UNL     1      18.323  10.775  28.616  0.00  0.00    -0.131 NA
ATOM     12  C   UNL     1      19.090   9.758  28.125  0.00  0.00    +0.121 A 
ATOM     13  C   UNL     1      19.061   8.706  29.011  0.00  0.00    +0.143 A 
ATOM     14  N   UNL     1      18.247   9.127  30.038  0.00  0.00    -0.220 N 
ATOM     15  N   UNL     1      17.816  10.385  29.778  0.00  0.00    -0.060 NA
BRANCH  14  16
ATOM     16  C   UNL     1      17.866   8.429  31.213  0.00  0.00    +0.068 A 
ATOM     17  C   UNL     1      17.112   9.085  32.198  0.00  0.00    +0.028 A 
ATOM     18  C   UNL     1      16.733   8.409  33.361  0.00  0.00    +0.003 A 
ATOM     19  C   UNL     1      17.104   7.079  33.548  0.00  0.00    +0.020 A 
ATOM     20  C   UNL     1      17.851   6.426  32.570  0.00  0.00    +0.043 A 
ATOM     21 CL   UNL     1      18.307   4.782  32.801  0.00  0.00    -0.083 Cl
ATOM     22  C   UNL     1      18.235   7.090  31.403  0.00  0.00    +0.047 A 
ENDBRANCH  14  16
ENDBRANCH  10  12
ENDBRANCH   9  10
ENDBRANCH   5   9
ENDBRANCH   4   7
ENDBRANCH   1   4
BRANCH   1  23
ATOM     23  C   UNL     1      19.659   4.847  24.227  0.00  0.00    +0.175 C 
BRANCH  23  24
ATOM     24  C   UNL     1      18.991   4.003  25.323  0.00  0.00    +0.176 C 
ATOM     25  O   UNL     1      20.028   3.563  26.242  0.00  0.00    -0.332 OA
ATOM     26  C   UNL     1      19.560   2.827  27.421  0.00  0.00    +0.277 C 
ATOM     27  C   UNL     1      18.692   1.618  26.993  0.00  0.00    +0.110 C 
ATOM     28  C   UNL     1      17.595   2.031  25.990  0.00  0.00    +0.143 C 
ATOM     29  C   UNL     1      18.192   2.792  24.806  0.00  0.00    +0.133 C 
BRANCH  29  30
ATOM     30  N   UNL     1      17.128   3.255  23.902  0.00  0.00    -0.308 N 
ATOM     31  H   UNL     1      16.442   3.898  24.271  0.00  0.00    +0.149 HD
ATOM     32  C   UNL     1      17.010   2.881  22.625  0.00  0.00    +0.210 C 
ATOM     33  C   UNL     1      18.056   1.880  22.099  0.00  0.00    +0.109 C 
ATOM     34  O   UNL     1      16.116   3.297  21.886  0.00  0.00    -0.276 OA
ENDBRANCH  29  30
BRANCH  26  35
ATOM     35  C   UNL     1      18.741   3.746  28.350  0.00  0.00    +0.414 C 
ATOM     36  O   UNL     1      17.759   3.308  28.948  0.00  0.00    -0.240 OA
ATOM     37  O   UNL     1      19.062   4.926  28.503  0.00  0.00    -0.240 OA
ENDBRANCH  26  35
BRANCH  28  38
ATOM     38  O   UNL     1      16.919   0.868  25.509  0.00  0.00    -0.390 OA
ATOM     39  H   UNL     1      17.325   0.083  25.885  0.00  0.00    +0.210 HD
ENDBRANCH  28  38
BRANCH  26  40
ATOM     40  O   UNL     1      20.723   2.327  28.129  0.00  0.00    -0.343 OA
ATOM     41  C   UNL     1      21.983   2.929  27.739  0.00  0.00    +0.198 C 
ENDBRANCH  26  40
ENDBRANCH  23  24
BRANCH  23  42
ATOM     42  O   UNL     1      21.065   4.999  24.505  0.00  0.00    -0.387 OA
ATOM     43  H   UNL     1      21.404   5.762  24.031  0.00  0.00    +0.210 HD
ENDBRANCH  23  42
ENDBRANCH   1  23
TORSDOF 14
