REMARK VINA RESULT:    -6.047     14.936     18.418
REMARK INTER + INTRA:         -14.169
REMARK INTER:                 -11.311
REMARK INTRA:                  -2.858
REMARK UNBOUND:                -2.643
REMARK  Name = lig_assembled_21.pdb
REMARK  20 active torsions:
REMARK  status: ('A' for Active; 'I' for Inactive)
REMARK    1  A    between atoms: _2  and  _9
REMARK    2  A    between atoms: _4  and  _23
REMARK    3  A    between atoms: _6  and  _7
REMARK    4  A    between atoms: _6  and  _23
REMARK    5  A    between atoms: _9  and  _10
REMARK    6  A    between atoms: _11  and  _18
REMARK    7  A    between atoms: _12  and  _13
REMARK    8  A    between atoms: _12  and  _18
REMARK    9  A    between atoms: _19  and  _39
REMARK   10  A    between atoms: _21  and  _27
REMARK   11  A    between atoms: _22  and  _26
REMARK   12  A    between atoms: _26  and  _27
REMARK   13  A    between atoms: _29  and  _30
REMARK   14  A    between atoms: _31  and  _32
REMARK   15  A    between atoms: _33  and  _35
REMARK   16  A    between atoms: _35  and  _36
REMARK   17  A    between atoms: _35  and  _37
REMARK   18  A    between atoms: _37  and  _38
REMARK   19  A    between atoms: _37  and  _39
REMARK   20  A    between atoms: _40  and  _42
REMARK                            x       y       z     vdW  Elec       q    Type
REMARK                         _______ _______ _______ _____ _____    ______ ____
ROOT
ATOM      1  C   UNL     1      17.747   1.547  23.048  0.00  0.00    +0.163 C 
ENDROOT
BRANCH   1   2
ATOM      2  O   UNL     1      17.172   1.179  21.784  0.00  0.00    -0.388 OA
ATOM      3  H   UNL     1      16.445   0.569  21.927  0.00  0.00    +0.210 HD
ENDBRANCH   1   2
BRANCH   1   4
ATOM      4  C   UNL     1      18.854   0.560  23.458  0.00  0.00    +0.175 C 
BRANCH   4   5
ATOM      5  C   UNL     1      18.284  -0.710  24.107  0.00  0.00    +0.176 C 
ATOM      6  O   UNL     1      17.648  -1.498  23.064  0.00  0.00    -0.332 OA
ATOM      7  C   UNL     1      17.135  -2.807  23.482  0.00  0.00    +0.277 C 
ATOM      8  C   UNL     1      16.171  -2.651  24.683  0.00  0.00    +0.110 C 
ATOM      9  C   UNL     1      16.792  -1.793  25.805  0.00  0.00    +0.143 C 
ATOM     10  C   UNL     1      17.295  -0.456  25.259  0.00  0.00    +0.133 C 
BRANCH  10  11
ATOM     11  N   UNL     1      17.962   0.316  26.319  0.00  0.00    -0.308 N 
ATOM     12  H   UNL     1      18.864  -0.007  26.641  0.00  0.00    +0.149 HD
ATOM     13  C   UNL     1      17.453   1.414  26.885  0.00  0.00    +0.210 C 
ATOM     14  C   UNL     1      16.065   1.864  26.391  0.00  0.00    +0.109 C 
ATOM     15  O   UNL     1      18.042   2.048  27.761  0.00  0.00    -0.276 OA
ENDBRANCH  10  11
BRANCH   7  16
ATOM     16  C   UNL     1      18.294  -3.749  23.869  0.00  0.00    +0.414 C 
ATOM     17  O   UNL     1      19.339  -3.746  23.221  0.00  0.00    -0.240 OA
ATOM     18  O   UNL     1      18.183  -4.512  24.830  0.00  0.00    -0.240 OA
ENDBRANCH   7  16
BRANCH   9  19
ATOM     19  O   UNL     1      15.818  -1.550  26.821  0.00  0.00    -0.390 OA
ATOM     20  H   UNL     1      15.398  -0.701  26.666  0.00  0.00    +0.210 HD
ENDBRANCH   9  19
BRANCH   7  21
ATOM     21  O   UNL     1      16.395  -3.374  22.371  0.00  0.00    -0.343 OA
ATOM     22  C   UNL     1      15.313  -4.264  22.747  0.00  0.00    +0.198 C 
ENDBRANCH   7  21
ENDBRANCH   4   5
BRANCH   4  23
ATOM     23  O   UNL     1      19.784   1.201  24.352  0.00  0.00    -0.387 OA
ATOM     24  H   UNL     1      20.556   1.490  23.859  0.00  0.00    +0.210 HD
ENDBRANCH   4  23
ENDBRANCH   1   4
BRANCH   1  25
ATOM     25  C   UNL     1      18.325   2.957  22.969  0.00  0.00    +0.141 C 
BRANCH  25  28
ATOM     26  C   UNL     1      19.049   4.285  24.922  0.00  0.00    +0.401 C 
ATOM     27  O   UNL     1      20.248   4.220  24.640  0.00  0.00    -0.226 OA
ATOM     28  N   UNL     1      18.082   3.718  24.200  0.00  0.00    -0.279 N 
ATOM     29  H   UNL     1      17.128   3.819  24.518  0.00  0.00    +0.152 HD
BRANCH  26  30
ATOM     30  O   UNL     1      18.649   5.002  26.093  0.00  0.00    -0.444 OA
BRANCH  30  31
ATOM     31  C   UNL     1      19.805   5.526  26.751  0.00  0.00    +0.292 C 
BRANCH  31  33
ATOM     32  N   UNL     1      20.292   7.819  25.969  0.00  0.00    -0.131 NA
ATOM     33  C   UNL     1      19.698   6.990  26.881  0.00  0.00    +0.120 A 
ATOM     34  C   UNL     1      19.030   7.753  27.813  0.00  0.00    +0.137 A 
ATOM     35  N   UNL     1      19.178   9.036  27.360  0.00  0.00    -0.247 N 
ATOM     36  N   UNL     1      19.969   9.067  26.272  0.00  0.00    -0.065 NA
BRANCH  35  37
ATOM     37  C   UNL     1      18.513  10.218  27.899  0.00  0.00    +0.184 C 
BRANCH  37  38
ATOM     38  C   UNL     1      19.157  10.834  29.117  0.00  0.00    +0.016 A 
ATOM     39  C   UNL     1      18.690  10.572  30.418  0.00  0.00    +0.137 A 
ATOM     40  C   UNL     1      19.302  11.149  31.532  0.00  0.00    +0.047 A 
ATOM     41  C   UNL     1      20.405  11.985  31.359  0.00  0.00    +0.004 A 
ATOM     42  C   UNL     1      20.873  12.269  30.077  0.00  0.00    +0.001 A 
ATOM     43  C   UNL     1      20.257  11.696  28.965  0.00  0.00    +0.009 A 
BRANCH  39  44
ATOM     44  O   UNL     1      17.529   9.771  30.530  0.00  0.00    -0.426 OA
BRANCH  44  45
ATOM     45  C   UNL     1      17.362   8.827  31.545  0.00  0.00    +0.309 C 
ATOM     46  O   UNL     1      16.523   8.838  32.435  0.00  0.00    -0.251 OA
ATOM     47  C   UNL     1      18.348   7.715  31.341  0.00  0.00    +0.136 C 
ENDBRANCH  44  45
ENDBRANCH  39  44
ENDBRANCH  37  38
ENDBRANCH  35  37
ENDBRANCH  31  33
ENDBRANCH  30  31
ENDBRANCH  26  30
ENDBRANCH  25  28
ENDBRANCH   1  25
TORSDOF 17
