REMARK VINA RESULT:    -5.465      1.858      2.859
REMARK INTER + INTRA:         -13.666
REMARK INTER:                 -12.305
REMARK INTRA:                  -1.361
REMARK UNBOUND:                -3.888
REMARK  Name = lig_assembled_46.pdb
REMARK  17 active torsions:
REMARK  status: ('A' for Active; 'I' for Inactive)
REMARK    1  A    between atoms: _2  and  _9
REMARK    2  A    between atoms: _4  and  _19
REMARK    3  A    between atoms: _6  and  _7
REMARK    4  A    between atoms: _6  and  _19
REMARK    5  A    between atoms: _9  and  _10
REMARK    6  A    between atoms: _15  and  _35
REMARK    7  A    between atoms: _17  and  _23
REMARK    8  A    between atoms: _18  and  _22
REMARK    9  A    between atoms: _22  and  _23
REMARK   10  A    between atoms: _25  and  _26
REMARK   11  A    between atoms: _27  and  _28
REMARK   12  A    between atoms: _29  and  _31
REMARK   13  A    between atoms: _31  and  _32
REMARK   14  A    between atoms: _31  and  _33
REMARK   15  A    between atoms: _33  and  _34
REMARK   16  A    between atoms: _33  and  _35
REMARK   17  A    between atoms: _36  and  _38
REMARK                            x       y       z     vdW  Elec       q    Type
REMARK                         _______ _______ _______ _____ _____    ______ ____
ROOT
ATOM      1  C   UNL     1       3.413   3.398  32.675  0.00  0.00    +0.163 C 
ENDROOT
BRANCH   1   2
ATOM      2  O   UNL     1       3.667   4.784  32.396  0.00  0.00    -0.388 OA
ATOM      3  H   UNL     1       3.851   5.248  33.216  0.00  0.00    +0.210 HD
ENDBRANCH   1   2
BRANCH   1   4
ATOM      4  C   UNL     1       2.152   2.941  31.949  0.00  0.00    +0.141 C 
BRANCH   4   7
ATOM      5  C   UNL     1       1.971   3.051  29.487  0.00  0.00    +0.401 C 
ATOM      6  O   UNL     1       2.146   1.841  29.326  0.00  0.00    -0.226 OA
ATOM      7  N   UNL     1       1.965   3.652  30.678  0.00  0.00    -0.279 N 
ATOM      8  H   UNL     1       1.824   4.652  30.707  0.00  0.00    +0.152 HD
BRANCH   5   9
ATOM      9  O   UNL     1       1.766   3.882  28.341  0.00  0.00    -0.444 OA
BRANCH   9  10
ATOM     10  C   UNL     1       0.708   3.342  27.544  0.00  0.00    +0.292 C 
BRANCH  10  12
ATOM     11  N   UNL     1      -0.220   4.983  25.940  0.00  0.00    -0.131 NA
ATOM     12  C   UNL     1       0.681   3.991  26.219  0.00  0.00    +0.120 A 
ATOM     13  C   UNL     1       1.490   3.795  25.121  0.00  0.00    +0.137 A 
ATOM     14  N   UNL     1       1.069   4.737  24.227  0.00  0.00    -0.247 N 
ATOM     15  N   UNL     1       0.030   5.440  24.719  0.00  0.00    -0.065 NA
BRANCH  14  16
ATOM     16  C   UNL     1       1.750   5.184  23.024  0.00  0.00    +0.180 C 
BRANCH  16  17
ATOM     17  C   UNL     1       1.759   4.161  21.915  0.00  0.00    -0.026 A 
ATOM     18  C   UNL     1       1.757   4.557  20.569  0.00  0.00    +0.005 A 
ATOM     19  C   UNL     1       1.862   3.605  19.551  0.00  0.00    +0.000 A 
ATOM     20  C   UNL     1       1.973   2.253  19.865  0.00  0.00    +0.000 A 
ATOM     21  C   UNL     1       1.968   1.847  21.198  0.00  0.00    +0.000 A 
ATOM     22  C   UNL     1       1.862   2.795  22.218  0.00  0.00    +0.005 A 
ENDBRANCH  16  17
ENDBRANCH  14  16
ENDBRANCH  10  12
ENDBRANCH   9  10
ENDBRANCH   5   9
ENDBRANCH   4   7
ENDBRANCH   1   4
BRANCH   1  23
ATOM     23  C   UNL     1       3.250   3.162  34.187  0.00  0.00    +0.175 C 
BRANCH  23  24
ATOM     24  C   UNL     1       4.164   4.075  35.016  0.00  0.00    +0.176 C 
ATOM     25  O   UNL     1       5.454   4.142  34.348  0.00  0.00    -0.332 OA
ATOM     26  C   UNL     1       6.430   5.059  34.944  0.00  0.00    +0.277 C 
ATOM     27  C   UNL     1       6.634   4.732  36.444  0.00  0.00    +0.110 C 
ATOM     28  C   UNL     1       5.288   4.619  37.190  0.00  0.00    +0.143 C 
ATOM     29  C   UNL     1       4.349   3.642  36.482  0.00  0.00    +0.133 C 
BRANCH  29  30
ATOM     30  N   UNL     1       3.040   3.609  37.153  0.00  0.00    -0.308 N 
ATOM     31  H   UNL     1       2.453   4.428  37.084  0.00  0.00    +0.149 HD
ATOM     32  C   UNL     1       2.576   2.566  37.848  0.00  0.00    +0.210 C 
ATOM     33  C   UNL     1       3.505   1.342  37.957  0.00  0.00    +0.109 C 
ATOM     34  O   UNL     1       1.469   2.561  38.387  0.00  0.00    -0.276 OA
ENDBRANCH  29  30
BRANCH  26  35
ATOM     35  C   UNL     1       5.968   6.524  34.794  0.00  0.00    +0.414 C 
ATOM     36  O   UNL     1       5.099   6.819  33.974  0.00  0.00    -0.240 OA
ATOM     37  O   UNL     1       6.462   7.409  35.493  0.00  0.00    -0.240 OA
ENDBRANCH  26  35
BRANCH  26  38
ATOM     38  O   UNL     1       7.696   4.875  34.259  0.00  0.00    -0.343 OA
ATOM     39  C   UNL     1       8.200   3.515  34.261  0.00  0.00    +0.198 C 
ENDBRANCH  26  38
BRANCH  28  40
ATOM     40  O   UNL     1       5.515   4.169  38.527  0.00  0.00    -0.390 OA
ATOM     41  H   UNL     1       6.155   3.454  38.520  0.00  0.00    +0.210 HD
ENDBRANCH  28  40
ENDBRANCH  23  24
BRANCH  23  42
ATOM     42  O   UNL     1       3.507   1.780  34.505  0.00  0.00    -0.387 OA
ATOM     43  H   UNL     1       3.570   1.677  35.457  0.00  0.00    +0.210 HD
ENDBRANCH  23  42
ENDBRANCH   1  23
TORSDOF 15
