REMARK VINA RESULT:    -6.595     25.771     28.797
REMARK INTER + INTRA:         -15.767
REMARK INTER:                 -11.846
REMARK INTRA:                  -3.921
REMARK UNBOUND:                -2.424
REMARK  Name = lig_assembled_81.pdb
REMARK  22 active torsions:
REMARK  status: ('A' for Active; 'I' for Inactive)
REMARK    1  A    between atoms: _2  and  _12
REMARK    2  A    between atoms: _7  and  _30
REMARK    3  A    between atoms: _8  and  _24
REMARK    4  A    between atoms: _9  and  _10
REMARK    5  A    between atoms: _9  and  _30
REMARK    6  A    between atoms: _14  and  _15
REMARK    7  A    between atoms: _21  and  _22
REMARK    8  A    between atoms: _22  and  _23
REMARK    9  A    between atoms: _23  and  _25
REMARK   10  A    between atoms: _24  and  _25
REMARK   11  A    between atoms: _26  and  _46
REMARK   12  A    between atoms: _28  and  _34
REMARK   13  A    between atoms: _29  and  _33
REMARK   14  A    between atoms: _33  and  _34
REMARK   15  A    between atoms: _36  and  _37
REMARK   16  A    between atoms: _38  and  _39
REMARK   17  A    between atoms: _40  and  _42
REMARK   18  A    between atoms: _42  and  _43
REMARK   19  A    between atoms: _42  and  _44
REMARK   20  A    between atoms: _44  and  _45
REMARK   21  A    between atoms: _44  and  _46
REMARK   22  A    between atoms: _47  and  _49
REMARK                            x       y       z     vdW  Elec       q    Type
REMARK                         _______ _______ _______ _____ _____    ______ ____
ROOT
ATOM      1  C   UNL     1       1.627  24.129  17.522  0.00  0.00    +0.401 C 
ATOM      2  O   UNL     1       2.846  23.974  17.415  0.00  0.00    -0.226 OA
ATOM      3  N   UNL     1       0.915  23.731  18.577  0.00  0.00    -0.279 N 
ATOM      4  H   UNL     1      -0.079  23.911  18.577  0.00  0.00    +0.152 HD
ENDROOT
BRANCH   1   5
ATOM      5  O   UNL     1       0.913  24.775  16.464  0.00  0.00    -0.444 OA
BRANCH   5   6
ATOM      6  C   UNL     1       0.076  23.823  15.802  0.00  0.00    +0.289 C 
BRANCH   6   8
ATOM      7  N   UNL     1       1.587  23.648  13.878  0.00  0.00    -0.130 NA
ATOM      8  C   UNL     1       0.868  23.019  14.849  0.00  0.00    +0.100 C 
ATOM      9  C   UNL     1       1.025  21.653  14.701  0.00  0.00    +0.124 C 
ATOM     10  N   UNL     1       1.976  21.516  13.698  0.00  0.00    -0.187 N 
ATOM     11  N   UNL     1       2.136  22.720  13.113  0.00  0.00    -0.010 NA
BRANCH  10  12
ATOM     12  C   UNL     1       2.548  20.305  13.182  0.00  0.00    +0.150 A 
ATOM     13  C   UNL     1       1.875  19.349  12.382  0.00  0.00    +0.022 A 
ATOM     14  C   UNL     1       2.668  18.209  12.084  0.00  0.00    +0.081 A 
ATOM     15  N   UNL     1       3.918  18.054  12.599  0.00  0.00    -0.214 NA
ATOM     16  C   UNL     1       4.430  19.007  13.359  0.00  0.00    +0.215 A 
ATOM     17  N   UNL     1       5.656  18.789  13.941  0.00  0.00    -0.327 N 
ATOM     18  H   UNL     1       6.181  18.089  13.440  0.00  0.00    +0.145 HD
ATOM     19  H   UNL     1       6.111  19.654  14.192  0.00  0.00    +0.145 HD
ATOM     20  N   UNL     1       3.838  20.162  13.593  0.00  0.00    -0.198 NA
BRANCH  14  21
ATOM     21  C   UNL     1       2.303  17.019  11.225  0.00  0.00    +0.001 A 
ATOM     22  C   UNL     1       2.781  16.785   9.923  0.00  0.00    +0.010 A 
ATOM     23  C   UNL     1       2.414  15.651   9.178  0.00  0.00    +0.001 A 
ATOM     24  C   UNL     1       1.603  14.678   9.730  0.00  0.00    +0.000 A 
ATOM     25  C   UNL     1       1.149  14.837  11.037  0.00  0.00    +0.001 A 
ATOM     26  C   UNL     1       1.486  15.993  11.757  0.00  0.00    +0.010 A 
ENDBRANCH  14  21
BRANCH  13  27
ATOM     27  C   UNL     1       0.490  19.449  11.735  0.00  0.00    +0.069 C 
BRANCH  27  28
ATOM     28  C   UNL     1      -0.768  19.124  12.517  0.00  0.00    +0.164 C 
BRANCH  28  29
ATOM     29  O   UNL     1      -1.871  18.609  11.762  0.00  0.00    -0.380 OA
BRANCH  29  30
ATOM     30  C   UNL     1      -2.655  17.822  12.680  0.00  0.00    +0.156 C 
ATOM     31  C   UNL     1      -1.943  16.549  13.075  0.00  0.00    +0.034 C 
ENDBRANCH  29  30
ENDBRANCH  28  29
ENDBRANCH  27  28
ENDBRANCH  13  27
ENDBRANCH  10  12
ENDBRANCH   6   8
ENDBRANCH   5   6
ENDBRANCH   1   5
BRANCH   3  32
ATOM     32  C   UNL     1       1.495  23.046  19.739  0.00  0.00    +0.141 C 
BRANCH  32  33
ATOM     33  C   UNL     1       0.598  21.918  20.240  0.00  0.00    +0.163 C 
BRANCH  33  34
ATOM     34  O   UNL     1       0.086  22.239  21.543  0.00  0.00    -0.388 OA
ATOM     35  H   UNL     1      -0.858  22.065  21.569  0.00  0.00    +0.210 HD
ENDBRANCH  33  34
BRANCH  33  36
ATOM     36  C   UNL     1      -0.548  21.690  19.239  0.00  0.00    +0.175 C 
BRANCH  36  37
ATOM     37  C   UNL     1      -1.738  20.961  19.880  0.00  0.00    +0.176 C 
ATOM     38  O   UNL     1      -1.217  19.837  20.641  0.00  0.00    -0.332 OA
ATOM     39  C   UNL     1      -2.207  19.081  21.414  0.00  0.00    +0.277 C 
ATOM     40  C   UNL     1      -3.359  18.603  20.497  0.00  0.00    +0.110 C 
ATOM     41  C   UNL     1      -3.925  19.758  19.644  0.00  0.00    +0.143 C 
ATOM     42  C   UNL     1      -2.809  20.477  18.885  0.00  0.00    +0.133 C 
BRANCH  42  43
ATOM     43  N   UNL     1      -3.348  21.629  18.145  0.00  0.00    -0.308 N 
ATOM     44  H   UNL     1      -3.711  22.405  18.680  0.00  0.00    +0.149 HD
ATOM     45  C   UNL     1      -3.390  21.715  16.812  0.00  0.00    +0.210 C 
ATOM     46  C   UNL     1      -2.854  20.504  16.026  0.00  0.00    +0.109 C 
ATOM     47  O   UNL     1      -3.834  22.698  16.219  0.00  0.00    -0.276 OA
ENDBRANCH  42  43
BRANCH  39  48
ATOM     48  C   UNL     1      -2.782  19.943  22.557  0.00  0.00    +0.414 C 
ATOM     49  O   UNL     1      -3.671  19.499  23.282  0.00  0.00    -0.240 OA
ATOM     50  O   UNL     1      -2.357  21.082  22.755  0.00  0.00    -0.240 OA
ENDBRANCH  39  48
BRANCH  39  51
ATOM     51  O   UNL     1      -1.548  17.913  21.967  0.00  0.00    -0.343 OA
ATOM     52  C   UNL     1      -0.867  17.078  20.997  0.00  0.00    +0.198 C 
ENDBRANCH  39  51
BRANCH  41  53
ATOM     53  O   UNL     1      -4.875  19.246  18.709  0.00  0.00    -0.390 OA
ATOM     54  H   UNL     1      -5.745  19.225  19.115  0.00  0.00    +0.210 HD
ENDBRANCH  41  53
ENDBRANCH  36  37
BRANCH  36  55
ATOM     55  O   UNL     1      -0.070  20.952  18.097  0.00  0.00    -0.387 OA
ATOM     56  H   UNL     1      -0.485  21.290  17.300  0.00  0.00    +0.210 HD
ENDBRANCH  36  55
ENDBRANCH  33  36
ENDBRANCH  32  33
ENDBRANCH   3  32
TORSDOF 19
