REMARK VINA RESULT:    -6.468      2.339      4.448
REMARK INTER + INTRA:         -14.239
REMARK INTER:                 -12.328
REMARK INTRA:                  -1.911
REMARK UNBOUND:                -1.911
REMARK  Name = lig_assembled_26.pdb
REMARK  20 active torsions:
REMARK  status: ('A' for Active; 'I' for Inactive)
REMARK    1  A    between atoms: _2  and  _9
REMARK    2  A    between atoms: _4  and  _23
REMARK    3  A    between atoms: _6  and  _7
REMARK    4  A    between atoms: _6  and  _23
REMARK    5  A    between atoms: _9  and  _10
REMARK    6  A    between atoms: _9  and  _11
REMARK    7  A    between atoms: _11  and  _12
REMARK    8  A    between atoms: _12  and  _13
REMARK    9  A    between atoms: _19  and  _39
REMARK   10  A    between atoms: _21  and  _27
REMARK   11  A    between atoms: _22  and  _26
REMARK   12  A    between atoms: _26  and  _27
REMARK   13  A    between atoms: _29  and  _30
REMARK   14  A    between atoms: _31  and  _32
REMARK   15  A    between atoms: _33  and  _35
REMARK   16  A    between atoms: _35  and  _36
REMARK   17  A    between atoms: _35  and  _37
REMARK   18  A    between atoms: _37  and  _38
REMARK   19  A    between atoms: _37  and  _39
REMARK   20  A    between atoms: _40  and  _42
REMARK                            x       y       z     vdW  Elec       q    Type
REMARK                         _______ _______ _______ _____ _____    ______ ____
ROOT
ATOM      1  C   UNL     1       2.319   2.858  33.376  0.00  0.00    +0.163 C 
ENDROOT
BRANCH   1   2
ATOM      2  O   UNL     1       2.433   1.920  34.459  0.00  0.00    -0.388 OA
ATOM      3  H   UNL     1       2.837   1.109  34.140  0.00  0.00    +0.210 HD
ENDBRANCH   1   2
BRANCH   1   4
ATOM      4  C   UNL     1       3.685   3.478  33.038  0.00  0.00    +0.175 C 
BRANCH   4   5
ATOM      5  C   UNL     1       4.462   3.886  34.299  0.00  0.00    +0.176 C 
ATOM      6  O   UNL     1       4.742   5.310  34.210  0.00  0.00    -0.332 OA
ATOM      7  C   UNL     1       5.391   5.903  35.383  0.00  0.00    +0.277 C 
ATOM      8  C   UNL     1       6.690   5.135  35.730  0.00  0.00    +0.110 C 
ATOM      9  C   UNL     1       6.448   3.612  35.804  0.00  0.00    +0.143 C 
ATOM     10  C   UNL     1       5.766   3.102  34.534  0.00  0.00    +0.133 C 
BRANCH  10  11
ATOM     11  N   UNL     1       5.463   1.667  34.653  0.00  0.00    -0.308 N 
ATOM     12  H   UNL     1       4.766   1.387  35.329  0.00  0.00    +0.149 HD
ATOM     13  C   UNL     1       6.047   0.712  33.925  0.00  0.00    +0.210 C 
ATOM     14  C   UNL     1       7.123   1.169  32.922  0.00  0.00    +0.109 C 
ATOM     15  O   UNL     1       5.762  -0.481  34.036  0.00  0.00    -0.276 OA
ENDBRANCH  10  11
BRANCH   7  16
ATOM     16  C   UNL     1       4.442   5.887  36.599  0.00  0.00    +0.414 C 
ATOM     17  O   UNL     1       4.888   6.035  37.736  0.00  0.00    -0.240 OA
ATOM     18  O   UNL     1       3.231   5.725  36.444  0.00  0.00    -0.240 OA
ENDBRANCH   7  16
BRANCH   7  19
ATOM     19  O   UNL     1       5.743   7.273  35.057  0.00  0.00    -0.343 OA
ATOM     20  C   UNL     1       6.950   7.423  34.267  0.00  0.00    +0.198 C 
ENDBRANCH   7  19
BRANCH   9  21
ATOM     21  O   UNL     1       7.693   2.934  35.975  0.00  0.00    -0.390 OA
ATOM     22  H   UNL     1       7.629   2.327  36.716  0.00  0.00    +0.210 HD
ENDBRANCH   9  21
ENDBRANCH   4   5
BRANCH   4  23
ATOM     23  O   UNL     1       3.513   4.617  32.171  0.00  0.00    -0.387 OA
ATOM     24  H   UNL     1       2.696   5.069  32.394  0.00  0.00    +0.210 HD
ENDBRANCH   4  23
ENDBRANCH   1   4
BRANCH   1  25
ATOM     25  C   UNL     1       1.756   2.161  32.141  0.00  0.00    +0.141 C 
BRANCH  25  28
ATOM     26  C   UNL     1       1.532   2.991  29.824  0.00  0.00    +0.401 C 
ATOM     27  O   UNL     1       2.164   2.056  29.328  0.00  0.00    -0.226 OA
ATOM     28  N   UNL     1       1.299   3.124  31.131  0.00  0.00    -0.279 N 
ATOM     29  H   UNL     1       0.778   3.931  31.443  0.00  0.00    +0.152 HD
BRANCH  26  30
ATOM     30  O   UNL     1       1.011   4.010  28.967  0.00  0.00    -0.444 OA
BRANCH  30  31
ATOM     31  C   UNL     1      -0.026   3.462  28.149  0.00  0.00    +0.292 C 
BRANCH  31  33
ATOM     32  N   UNL     1      -0.574   5.048  26.321  0.00  0.00    -0.131 NA
ATOM     33  C   UNL     1       0.104   3.944  26.762  0.00  0.00    +0.120 A 
ATOM     34  C   UNL     1       0.862   3.439  25.731  0.00  0.00    +0.137 A 
ATOM     35  N   UNL     1       0.585   4.258  24.679  0.00  0.00    -0.248 N 
ATOM     36  N   UNL     1      -0.259   5.244  25.047  0.00  0.00    -0.065 NA
BRANCH  35  37
ATOM     37  C   UNL     1       1.117   4.239  23.325  0.00  0.00    +0.113 C 
ATOM     38  C   UNL     1       1.868   5.515  22.921  0.00  0.00    +0.033 C 
BRANCH  37  39
ATOM     39  C   UNL     1       1.943   2.974  23.030  0.00  0.00    +0.106 C 
BRANCH  39  40
ATOM     40  C   UNL     1       1.434   2.163  21.853  0.00  0.00    +0.165 C 
ATOM     41  O   UNL     1       1.039   1.005  21.974  0.00  0.00    -0.292 OA
BRANCH  40  42
ATOM     42  C   UNL     1       1.450   2.780  20.492  0.00  0.00    +0.017 A 
ATOM     43  C   UNL     1       2.482   2.551  19.575  0.00  0.00    +0.011 A 
ATOM     44  C   UNL     1       2.424   3.120  18.301  0.00  0.00    +0.001 A 
ATOM     45  C   UNL     1       1.344   3.924  17.939  0.00  0.00    +0.000 A 
ATOM     46  C   UNL     1       0.320   4.167  18.849  0.00  0.00    +0.001 A 
ATOM     47  C   UNL     1       0.371   3.596  20.122  0.00  0.00    +0.011 A 
ENDBRANCH  40  42
ENDBRANCH  39  40
ENDBRANCH  37  39
ENDBRANCH  35  37
ENDBRANCH  31  33
ENDBRANCH  30  31
ENDBRANCH  26  30
ENDBRANCH  25  28
ENDBRANCH   1  25
TORSDOF 17
