REMARK VINA RESULT:    -5.980      2.592      3.951
REMARK INTER + INTRA:         -14.042
REMARK INTER:                 -11.217
REMARK INTRA:                  -2.826
REMARK UNBOUND:                -2.643
REMARK  Name = lig_assembled_21.pdb
REMARK  20 active torsions:
REMARK  status: ('A' for Active; 'I' for Inactive)
REMARK    1  A    between atoms: _2  and  _9
REMARK    2  A    between atoms: _4  and  _23
REMARK    3  A    between atoms: _6  and  _7
REMARK    4  A    between atoms: _6  and  _23
REMARK    5  A    between atoms: _9  and  _10
REMARK    6  A    between atoms: _11  and  _18
REMARK    7  A    between atoms: _12  and  _13
REMARK    8  A    between atoms: _12  and  _18
REMARK    9  A    between atoms: _19  and  _39
REMARK   10  A    between atoms: _21  and  _27
REMARK   11  A    between atoms: _22  and  _26
REMARK   12  A    between atoms: _26  and  _27
REMARK   13  A    between atoms: _29  and  _30
REMARK   14  A    between atoms: _31  and  _32
REMARK   15  A    between atoms: _33  and  _35
REMARK   16  A    between atoms: _35  and  _36
REMARK   17  A    between atoms: _35  and  _37
REMARK   18  A    between atoms: _37  and  _38
REMARK   19  A    between atoms: _37  and  _39
REMARK   20  A    between atoms: _40  and  _42
REMARK                            x       y       z     vdW  Elec       q    Type
REMARK                         _______ _______ _______ _____ _____    ______ ____
ROOT
ATOM      1  C   UNL     1       2.445   1.732  32.577  0.00  0.00    +0.163 C 
ENDROOT
BRANCH   1   2
ATOM      2  O   UNL     1       1.427   0.738  32.377  0.00  0.00    -0.388 OA
ATOM      3  H   UNL     1       1.102   0.789  31.475  0.00  0.00    +0.210 HD
ENDBRANCH   1   2
BRANCH   1   4
ATOM      4  C   UNL     1       3.332   1.869  31.328  0.00  0.00    +0.175 C 
BRANCH   4   5
ATOM      5  C   UNL     1       4.538   0.919  31.368  0.00  0.00    +0.176 C 
ATOM      6  O   UNL     1       4.040  -0.441  31.246  0.00  0.00    -0.332 OA
ATOM      7  C   UNL     1       5.064  -1.486  31.158  0.00  0.00    +0.277 C 
ATOM      8  C   UNL     1       6.038  -1.391  32.358  0.00  0.00    +0.110 C 
ATOM      9  C   UNL     1       6.570   0.045  32.547  0.00  0.00    +0.143 C 
ATOM     10  C   UNL     1       5.421   1.050  32.623  0.00  0.00    +0.133 C 
BRANCH  10  11
ATOM     11  N   UNL     1       5.942   2.423  32.716  0.00  0.00    -0.308 N 
ATOM     12  H   UNL     1       6.413   2.804  31.907  0.00  0.00    +0.149 HD
ATOM     13  C   UNL     1       5.834   3.198  33.799  0.00  0.00    +0.210 C 
ATOM     14  C   UNL     1       5.135   2.578  35.023  0.00  0.00    +0.109 C 
ATOM     15  O   UNL     1       6.268   4.349  33.843  0.00  0.00    -0.276 OA
ENDBRANCH  10  11
BRANCH   7  16
ATOM     16  C   UNL     1       5.857  -1.366  29.840  0.00  0.00    +0.414 C 
ATOM     17  O   UNL     1       7.079  -1.512  29.836  0.00  0.00    -0.240 OA
ATOM     18  O   UNL     1       5.275  -1.123  28.782  0.00  0.00    -0.240 OA
ENDBRANCH   7  16
BRANCH   9  19
ATOM     19  O   UNL     1       7.340   0.119  33.748  0.00  0.00    -0.390 OA
ATOM     20  H   UNL     1       6.762   0.319  34.488  0.00  0.00    +0.210 HD
ENDBRANCH   9  19
BRANCH   7  21
ATOM     21  O   UNL     1       4.397  -2.774  31.211  0.00  0.00    -0.343 OA
ATOM     22  C   UNL     1       2.997  -2.754  30.837  0.00  0.00    +0.198 C 
ENDBRANCH   7  21
ENDBRANCH   4   5
BRANCH   4  23
ATOM     23  O   UNL     1       3.779   3.233  31.184  0.00  0.00    -0.387 OA
ATOM     24  H   UNL     1       4.703   3.296  31.437  0.00  0.00    +0.210 HD
ENDBRANCH   4  23
ENDBRANCH   1   4
BRANCH   1  25
ATOM     25  C   UNL     1       1.805   3.078  32.899  0.00  0.00    +0.141 C 
BRANCH  25  28
ATOM     26  C   UNL     1       0.530   4.359  31.214  0.00  0.00    +0.401 C 
ATOM     27  O   UNL     1       1.416   5.200  31.046  0.00  0.00    -0.226 OA
ATOM     28  N   UNL     1       0.625   3.336  32.064  0.00  0.00    -0.279 N 
ATOM     29  H   UNL     1      -0.159   2.703  32.139  0.00  0.00    +0.152 HD
BRANCH  26  30
ATOM     30  O   UNL     1      -0.683   4.468  30.464  0.00  0.00    -0.444 OA
BRANCH  30  31
ATOM     31  C   UNL     1      -0.828   3.324  29.619  0.00  0.00    +0.292 C 
BRANCH  31  33
ATOM     32  N   UNL     1      -0.738   4.432  27.412  0.00  0.00    -0.131 NA
ATOM     33  C   UNL     1      -0.183   3.568  28.316  0.00  0.00    +0.120 A 
ATOM     34  C   UNL     1       0.992   3.069  27.798  0.00  0.00    +0.137 A 
ATOM     35  N   UNL     1       1.144   3.740  26.615  0.00  0.00    -0.247 N 
ATOM     36  N   UNL     1       0.080   4.528  26.375  0.00  0.00    -0.065 NA
BRANCH  35  37
ATOM     37  C   UNL     1       2.321   3.702  25.754  0.00  0.00    +0.184 C 
BRANCH  37  38
ATOM     38  C   UNL     1       2.054   3.823  24.273  0.00  0.00    +0.016 A 
ATOM     39  C   UNL     1       2.041   2.700  23.425  0.00  0.00    +0.137 A 
ATOM     40  C   UNL     1       1.788   2.833  22.059  0.00  0.00    +0.047 A 
ATOM     41  C   UNL     1       1.527   4.094  21.524  0.00  0.00    +0.004 A 
ATOM     42  C   UNL     1       1.550   5.220  22.344  0.00  0.00    +0.001 A 
ATOM     43  C   UNL     1       1.808   5.086  23.709  0.00  0.00    +0.009 A 
BRANCH  39  44
ATOM     44  O   UNL     1       2.378   1.456  24.009  0.00  0.00    -0.426 OA
BRANCH  44  45
ATOM     45  C   UNL     1       1.458   0.687  24.723  0.00  0.00    +0.309 C 
ATOM     46  O   UNL     1       0.255   0.592  24.518  0.00  0.00    -0.251 OA
ATOM     47  C   UNL     1       2.189  -0.096  25.774  0.00  0.00    +0.136 C 
ENDBRANCH  44  45
ENDBRANCH  39  44
ENDBRANCH  37  38
ENDBRANCH  35  37
ENDBRANCH  31  33
ENDBRANCH  30  31
ENDBRANCH  26  30
ENDBRANCH  25  28
ENDBRANCH   1  25
TORSDOF 17
