REMARK VINA RESULT:    -6.345      2.259      4.398
REMARK INTER + INTRA:         -14.924
REMARK INTER:                 -12.285
REMARK INTRA:                  -2.639
REMARK UNBOUND:                -3.014
REMARK  Name = lig_assembled_75.pdb
REMARK  19 active torsions:
REMARK  status: ('A' for Active; 'I' for Inactive)
REMARK    1  A    between atoms: _2  and  _9
REMARK    2  A    between atoms: _4  and  _23
REMARK    3  A    between atoms: _6  and  _7
REMARK    4  A    between atoms: _6  and  _23
REMARK    5  A    between atoms: _11  and  _12
REMARK    6  A    between atoms: _13  and  _14
REMARK    7  A    between atoms: _14  and  _17
REMARK    8  A    between atoms: _19  and  _39
REMARK    9  A    between atoms: _21  and  _27
REMARK   10  A    between atoms: _22  and  _26
REMARK   11  A    between atoms: _26  and  _27
REMARK   12  A    between atoms: _29  and  _30
REMARK   13  A    between atoms: _31  and  _32
REMARK   14  A    between atoms: _33  and  _35
REMARK   15  A    between atoms: _35  and  _36
REMARK   16  A    between atoms: _35  and  _37
REMARK   17  A    between atoms: _37  and  _38
REMARK   18  A    between atoms: _37  and  _39
REMARK   19  A    between atoms: _40  and  _42
REMARK                            x       y       z     vdW  Elec       q    Type
REMARK                         _______ _______ _______ _____ _____    ______ ____
ROOT
ATOM      1  C   UNL     1       4.535  -1.159  29.723  0.00  0.00    +0.141 C 
ENDROOT
BRANCH   1   4
ATOM      2  C   UNL     1       2.841  -0.651  27.997  0.00  0.00    +0.401 C 
ATOM      3  O   UNL     1       3.602  -0.871  27.052  0.00  0.00    -0.226 OA
ATOM      4  N   UNL     1       3.195  -0.755  29.278  0.00  0.00    -0.279 N 
ATOM      5  H   UNL     1       2.503  -0.544  29.983  0.00  0.00    +0.152 HD
BRANCH   2   6
ATOM      6  O   UNL     1       1.494  -0.255  27.727  0.00  0.00    -0.444 OA
BRANCH   6   7
ATOM      7  C   UNL     1       1.265   1.053  28.257  0.00  0.00    +0.292 C 
BRANCH   7   9
ATOM      8  N   UNL     1       2.034   3.300  27.567  0.00  0.00    -0.131 NA
ATOM      9  C   UNL     1       1.530   2.077  27.229  0.00  0.00    +0.121 A 
ATOM     10  C   UNL     1       1.344   2.026  25.868  0.00  0.00    +0.143 A 
ATOM     11  N   UNL     1       1.752   3.256  25.406  0.00  0.00    -0.220 N 
ATOM     12  N   UNL     1       2.164   4.012  26.456  0.00  0.00    -0.060 NA
BRANCH  11  13
ATOM     13  C   UNL     1       1.748   3.756  24.079  0.00  0.00    +0.068 A 
ATOM     14  C   UNL     1       1.769   2.852  23.003  0.00  0.00    +0.035 A 
ATOM     15  C   UNL     1       1.834   3.312  21.679  0.00  0.00    -0.023 A 
ATOM     16  C   UNL     1       1.811   4.692  21.445  0.00  0.00    +0.008 A 
ATOM     17  C   UNL     1       1.768   5.595  22.510  0.00  0.00    +0.003 A 
ATOM     18  C   UNL     1       1.745   5.132  23.825  0.00  0.00    +0.028 A 
BRANCH  15  19
ATOM     19  C   UNL     1       1.903   2.399  20.528  0.00  0.00    +0.015 C 
ATOM     20  C   UNL     1       2.230   2.789  19.285  0.00  0.00    +0.092 C 
BRANCH  20  21
ATOM     21  C   UNL     1       2.220   1.807  18.185  0.00  0.00    +0.330 C 
ATOM     22  O   UNL     1       1.329   1.001  17.981  0.00  0.00    -0.246 OA
BRANCH  21  23
ATOM     23  O   UNL     1       3.318   1.908  17.409  0.00  0.00    -0.478 OA
ATOM     24  H   UNL     1       3.162   1.856  16.449  0.00  0.00    +0.295 HD
ENDBRANCH  21  23
ENDBRANCH  20  21
ENDBRANCH  15  19
ENDBRANCH  11  13
ENDBRANCH   7   9
ENDBRANCH   6   7
ENDBRANCH   2   6
ENDBRANCH   1   4
BRANCH   1  25
ATOM     25  C   UNL     1       4.892  -0.552  31.076  0.00  0.00    +0.163 C 
BRANCH  25  26
ATOM     26  O   UNL     1       6.297  -0.254  31.125  0.00  0.00    -0.388 OA
ATOM     27  H   UNL     1       6.490   0.481  30.538  0.00  0.00    +0.210 HD
ENDBRANCH  25  26
BRANCH  25  28
ATOM     28  C   UNL     1       4.052   0.716  31.308  0.00  0.00    +0.175 C 
BRANCH  28  29
ATOM     29  C   UNL     1       4.771   1.727  32.213  0.00  0.00    +0.176 C 
ATOM     30  O   UNL     1       5.421   0.988  33.283  0.00  0.00    -0.332 OA
ATOM     31  C   UNL     1       6.249   1.785  34.193  0.00  0.00    +0.277 C 
ATOM     32  C   UNL     1       5.428   2.955  34.788  0.00  0.00    +0.110 C 
ATOM     33  C   UNL     1       4.694   3.752  33.690  0.00  0.00    +0.143 C 
ATOM     34  C   UNL     1       3.864   2.825  32.801  0.00  0.00    +0.133 C 
BRANCH  34  35
ATOM     35  N   UNL     1       3.239   3.584  31.706  0.00  0.00    -0.308 N 
ATOM     36  H   UNL     1       3.842   3.955  30.985  0.00  0.00    +0.149 HD
ATOM     37  C   UNL     1       1.927   3.814  31.603  0.00  0.00    +0.210 C 
ATOM     38  C   UNL     1       1.039   3.257  32.731  0.00  0.00    +0.109 C 
ATOM     39  O   UNL     1       1.430   4.441  30.667  0.00  0.00    -0.276 OA
ENDBRANCH  34  35
BRANCH  31  40
ATOM     40  C   UNL     1       7.485   2.344  33.457  0.00  0.00    +0.414 C 
ATOM     41  O   UNL     1       8.087   1.650  32.639  0.00  0.00    -0.240 OA
ATOM     42  O   UNL     1       7.880   3.489  33.682  0.00  0.00    -0.240 OA
ENDBRANCH  31  40
BRANCH  31  43
ATOM     43  O   UNL     1       6.676   0.925  35.281  0.00  0.00    -0.343 OA
ATOM     44  C   UNL     1       5.736   0.815  36.379  0.00  0.00    +0.198 C 
ENDBRANCH  31  43
BRANCH  33  45
ATOM     45  O   UNL     1       3.834   4.721  34.291  0.00  0.00    -0.390 OA
ATOM     46  H   UNL     1       4.324   5.531  34.449  0.00  0.00    +0.210 HD
ENDBRANCH  33  45
ENDBRANCH  28  29
BRANCH  28  47
ATOM     47  O   UNL     1       2.772   0.367  31.873  0.00  0.00    -0.387 OA
ATOM     48  H   UNL     1       2.887   0.103  32.789  0.00  0.00    +0.210 HD
ENDBRANCH  28  47
ENDBRANCH  25  28
ENDBRANCH   1  25
TORSDOF 17
