REMARK VINA RESULT:    -6.513      5.358      7.440
REMARK INTER + INTRA:         -13.210
REMARK INTER:                 -10.250
REMARK INTRA:                  -2.960
REMARK UNBOUND:                -1.557
REMARK  Name = lig_assembled_28.pdb
REMARK  17 active torsions:
REMARK  status: ('A' for Active; 'I' for Inactive)
REMARK    1  A    between atoms: _2  and  _9
REMARK    2  A    between atoms: _4  and  _22
REMARK    3  A    between atoms: _6  and  _7
REMARK    4  A    between atoms: _6  and  _22
REMARK    5  A    between atoms: _9  and  _10
REMARK    6  A    between atoms: _18  and  _38
REMARK    7  A    between atoms: _20  and  _26
REMARK    8  A    between atoms: _21  and  _25
REMARK    9  A    between atoms: _25  and  _26
REMARK   10  A    between atoms: _28  and  _29
REMARK   11  A    between atoms: _30  and  _31
REMARK   12  A    between atoms: _32  and  _34
REMARK   13  A    between atoms: _34  and  _35
REMARK   14  A    between atoms: _34  and  _36
REMARK   15  A    between atoms: _36  and  _37
REMARK   16  A    between atoms: _36  and  _38
REMARK   17  A    between atoms: _39  and  _41
REMARK                            x       y       z     vdW  Elec       q    Type
REMARK                         _______ _______ _______ _____ _____    ______ ____
ROOT
ATOM      1  C   UNL     1       3.555   3.695  32.376  0.00  0.00    +0.163 C 
ENDROOT
BRANCH   1   2
ATOM      2  O   UNL     1       2.620   3.926  33.443  0.00  0.00    -0.388 OA
ATOM      3  H   UNL     1       2.124   4.728  33.266  0.00  0.00    +0.210 HD
ENDBRANCH   1   2
BRANCH   1   4
ATOM      4  C   UNL     1       2.912   2.830  31.297  0.00  0.00    +0.141 C 
BRANCH   4   7
ATOM      5  C   UNL     1       2.409   0.619  32.280  0.00  0.00    +0.401 C 
ATOM      6  O   UNL     1       1.414   1.014  32.894  0.00  0.00    -0.226 OA
ATOM      7  N   UNL     1       3.171   1.401  31.515  0.00  0.00    -0.279 N 
ATOM      8  H   UNL     1       3.972   0.987  31.059  0.00  0.00    +0.152 HD
BRANCH   5   9
ATOM      9  O   UNL     1       2.788  -0.755  32.384  0.00  0.00    -0.444 OA
BRANCH   9  10
ATOM     10  C   UNL     1       4.061  -0.852  33.030  0.00  0.00    +0.292 C 
BRANCH  10  12
ATOM     11  N   UNL     1       5.027  -2.864  31.951  0.00  0.00    -0.131 NA
ATOM     12  C   UNL     1       5.038  -1.509  32.142  0.00  0.00    +0.120 A 
ATOM     13  C   UNL     1       6.037  -0.955  31.374  0.00  0.00    +0.137 A 
ATOM     14  N   UNL     1       6.534  -2.011  30.663  0.00  0.00    -0.247 N 
ATOM     15  N   UNL     1       5.955  -3.163  31.052  0.00  0.00    -0.065 NA
BRANCH  14  16
ATOM     16  C   UNL     1       7.472  -2.039  29.549  0.00  0.00    +0.180 C 
BRANCH  16  17
ATOM     17  C   UNL     1       6.805  -2.077  28.194  0.00  0.00    -0.022 A 
ATOM     18  C   UNL     1       5.486  -1.613  28.043  0.00  0.00    +0.055 A 
ATOM     19  C   UNL     1       4.961  -1.560  26.769  0.00  0.00    +0.167 A 
ATOM     20  O   UNL     1       3.727  -1.088  26.440  0.00  0.00    -0.453 OA
ATOM     21  C   UNL     1       3.790  -1.158  25.000  0.00  0.00    +0.466 C 
ATOM     22  O   UNL     1       4.985  -1.803  24.509  0.00  0.00    -0.453 OA
ATOM     23  C   UNL     1       5.675  -1.969  25.670  0.00  0.00    +0.166 A 
ATOM     24  C   UNL     1       6.958  -2.461  25.782  0.00  0.00    +0.050 A 
ATOM     25  C   UNL     1       7.529  -2.507  27.057  0.00  0.00    +0.009 A 
ENDBRANCH  16  17
ENDBRANCH  14  16
ENDBRANCH  10  12
ENDBRANCH   9  10
ENDBRANCH   5   9
ENDBRANCH   4   7
ENDBRANCH   1   4
BRANCH   1  26
ATOM     26  C   UNL     1       4.826   3.005  32.899  0.00  0.00    +0.175 C 
BRANCH  26  27
ATOM     27  C   UNL     1       5.394   3.704  34.143  0.00  0.00    +0.176 C 
ATOM     28  O   UNL     1       5.405   5.135  33.885  0.00  0.00    -0.332 OA
ATOM     29  C   UNL     1       5.820   5.979  35.010  0.00  0.00    +0.277 C 
ATOM     30  C   UNL     1       7.205   5.532  35.539  0.00  0.00    +0.110 C 
ATOM     31  C   UNL     1       7.252   4.011  35.798  0.00  0.00    +0.143 C 
ATOM     32  C   UNL     1       6.798   3.230  34.564  0.00  0.00    +0.133 C 
BRANCH  32  33
ATOM     33  N   UNL     1       6.764   1.787  34.851  0.00  0.00    -0.308 N 
ATOM     34  H   UNL     1       6.089   1.457  35.527  0.00  0.00    +0.149 HD
ATOM     35  C   UNL     1       7.566   0.887  34.277  0.00  0.00    +0.210 C 
ATOM     36  C   UNL     1       8.600   1.426  33.272  0.00  0.00    +0.109 C 
ATOM     37  O   UNL     1       7.505  -0.318  34.526  0.00  0.00    -0.276 OA
ENDBRANCH  32  33
BRANCH  29  38
ATOM     38  C   UNL     1       4.786   5.914  36.153  0.00  0.00    +0.414 C 
ATOM     39  O   UNL     1       3.632   5.551  35.926  0.00  0.00    -0.240 OA
ATOM     40  O   UNL     1       5.105   6.224  37.302  0.00  0.00    -0.240 OA
ENDBRANCH  29  38
BRANCH  29  41
ATOM     41  O   UNL     1       5.933   7.343  34.530  0.00  0.00    -0.343 OA
ATOM     42  C   UNL     1       7.262   7.916  34.620  0.00  0.00    +0.198 C 
ENDBRANCH  29  41
BRANCH  31  43
ATOM     43  O   UNL     1       8.583   3.621  36.138  0.00  0.00    -0.390 OA
ATOM     44  H   UNL     1       9.186   3.900  35.445  0.00  0.00    +0.210 HD
ENDBRANCH  31  43
ENDBRANCH  26  27
BRANCH  26  45
ATOM     45  O   UNL     1       5.825   2.950  31.861  0.00  0.00    -0.387 OA
ATOM     46  H   UNL     1       5.402   2.759  31.020  0.00  0.00    +0.210 HD
ENDBRANCH  26  45
ENDBRANCH   1  26
TORSDOF 15
