REMARK VINA RESULT:    -5.625      2.334      4.276
REMARK INTER + INTRA:         -13.207
REMARK INTER:                 -11.382
REMARK INTRA:                  -1.825
REMARK UNBOUND:                -3.800
REMARK  Name = lig_assembled_65.pdb
REMARK  16 active torsions:
REMARK  status: ('A' for Active; 'I' for Inactive)
REMARK    1  A    between atoms: _8  and  _20
REMARK    2  A    between atoms: _9  and  _15
REMARK    3  A    between atoms: _10  and  _11
REMARK    4  A    between atoms: _10  and  _20
REMARK    5  A    between atoms: _16  and  _36
REMARK    6  A    between atoms: _18  and  _24
REMARK    7  A    between atoms: _19  and  _23
REMARK    8  A    between atoms: _23  and  _24
REMARK    9  A    between atoms: _26  and  _27
REMARK   10  A    between atoms: _28  and  _29
REMARK   11  A    between atoms: _30  and  _32
REMARK   12  A    between atoms: _32  and  _33
REMARK   13  A    between atoms: _32  and  _34
REMARK   14  A    between atoms: _34  and  _35
REMARK   15  A    between atoms: _34  and  _36
REMARK   16  A    between atoms: _37  and  _39
REMARK                            x       y       z     vdW  Elec       q    Type
REMARK                         _______ _______ _______ _____ _____    ______ ____
ROOT
ATOM      1  C   UNL     1      18.480   5.796  23.823  0.00  0.00    +0.163 C 
ENDROOT
BRANCH   1   2
ATOM      2  O   UNL     1      17.404   5.857  22.873  0.00  0.00    -0.388 OA
ATOM      3  H   UNL     1      16.591   5.561  23.289  0.00  0.00    +0.210 HD
ENDBRANCH   1   2
BRANCH   1   4
ATOM      4  C   UNL     1      19.502   6.888  23.525  0.00  0.00    +0.141 C 
BRANCH   4   7
ATOM      5  C   UNL     1      20.955   7.678  25.361  0.00  0.00    +0.401 C 
ATOM      6  O   UNL     1      21.905   6.959  25.045  0.00  0.00    -0.226 OA
ATOM      7  N   UNL     1      19.791   7.705  24.710  0.00  0.00    -0.279 N 
ATOM      8  H   UNL     1      19.068   8.322  25.052  0.00  0.00    +0.152 HD
BRANCH   5   9
ATOM      9  O   UNL     1      21.084   8.541  26.494  0.00  0.00    -0.444 OA
BRANCH   9  10
ATOM     10  C   UNL     1      19.838   9.198  26.739  0.00  0.00    +0.292 C 
BRANCH  10  12
ATOM     11  N   UNL     1      19.388   7.523  28.508  0.00  0.00    -0.131 NA
ATOM     12  C   UNL     1      19.305   8.813  28.060  0.00  0.00    +0.121 A 
ATOM     13  C   UNL     1      18.680   9.580  29.015  0.00  0.00    +0.149 A 
ATOM     14  N   UNL     1      18.388   8.704  30.038  0.00  0.00    -0.155 N 
ATOM     15  C   UNL     1      17.720   9.002  31.262  0.00  0.00    +0.416 C 
ATOM     16  N   UNL     1      17.526   8.015  32.144  0.00  0.00    +0.041 NA
ATOM     17  C   UNL     1      16.881   8.367  33.254  0.00  0.00    +0.339 C 
ATOM     18  C   UNL     1      16.622   7.302  34.273  0.00  0.00    +0.149 C 
ATOM     19  N   UNL     1      16.440   9.598  33.513  0.00  0.00    +0.007 NA
ATOM     20  C   UNL     1      16.671  10.498  32.570  0.00  0.00    +0.386 C 
ATOM     21  N   UNL     1      16.221  11.782  32.794  0.00  0.00    -0.296 N 
ATOM     22  H   UNL     1      16.095  11.949  33.783  0.00  0.00    +0.148 HD
ATOM     23  H   UNL     1      16.759  12.456  32.270  0.00  0.00    +0.148 HD
ATOM     24  N   UNL     1      17.318  10.269  31.442  0.00  0.00    -0.290 NA
ATOM     25  N   UNL     1      18.832   7.464  29.712  0.00  0.00    -0.055 NA
ENDBRANCH  10  12
ENDBRANCH   9  10
ENDBRANCH   5   9
ENDBRANCH   4   7
ENDBRANCH   1   4
BRANCH   1  26
ATOM     26  C   UNL     1      19.171   4.422  23.785  0.00  0.00    +0.175 C 
BRANCH  26  27
ATOM     27  C   UNL     1      18.419   3.374  24.618  0.00  0.00    +0.176 C 
ATOM     28  O   UNL     1      19.300   2.941  25.692  0.00  0.00    -0.332 OA
ATOM     29  C   UNL     1      18.710   2.011  26.659  0.00  0.00    +0.277 C 
ATOM     30  C   UNL     1      18.122   0.776  25.934  0.00  0.00    +0.110 C 
ATOM     31  C   UNL     1      17.203   1.186  24.764  0.00  0.00    +0.143 C 
ATOM     32  C   UNL     1      17.916   2.156  23.821  0.00  0.00    +0.133 C 
BRANCH  32  33
ATOM     33  N   UNL     1      17.003   2.607  22.759  0.00  0.00    -0.308 N 
ATOM     34  H   UNL     1      16.224   3.193  23.025  0.00  0.00    +0.149 HD
ATOM     35  C   UNL     1      17.136   2.293  21.468  0.00  0.00    +0.210 C 
ATOM     36  C   UNL     1      18.319   1.378  21.099  0.00  0.00    +0.109 C 
ATOM     37  O   UNL     1      16.364   2.698  20.598  0.00  0.00    -0.276 OA
ENDBRANCH  32  33
BRANCH  29  38
ATOM     38  C   UNL     1      17.601   2.704  27.478  0.00  0.00    +0.414 C 
ATOM     39  O   UNL     1      17.894   3.500  28.369  0.00  0.00    -0.240 OA
ATOM     40  O   UNL     1      16.414   2.467  27.248  0.00  0.00    -0.240 OA
ENDBRANCH  29  38
BRANCH  29  41
ATOM     41  O   UNL     1      19.764   1.560  27.549  0.00  0.00    -0.343 OA
ATOM     42  C   UNL     1      19.444   0.380  28.329  0.00  0.00    +0.198 C 
ENDBRANCH  29  41
BRANCH  31  43
ATOM     43  O   UNL     1      16.806   0.025  24.033  0.00  0.00    -0.390 OA
ATOM     44  H   UNL     1      17.571  -0.535  23.881  0.00  0.00    +0.210 HD
ENDBRANCH  31  43
ENDBRANCH  26  27
BRANCH  26  45
ATOM     45  O   UNL     1      20.533   4.538  24.243  0.00  0.00    -0.387 OA
ATOM     46  H   UNL     1      20.746   5.463  24.382  0.00  0.00    +0.210 HD
ENDBRANCH  26  45
ENDBRANCH   1  26
TORSDOF 13
