REMARK VINA RESULT:    -5.833     17.282     20.480
REMARK INTER + INTRA:         -12.664
REMARK INTER:                 -11.290
REMARK INTRA:                  -1.374
REMARK UNBOUND:                -2.568
REMARK  Name = lig_assembled_27.pdb
REMARK  16 active torsions:
REMARK  status: ('A' for Active; 'I' for Inactive)
REMARK    1  A    between atoms: _2  and  _9
REMARK    2  A    between atoms: _4  and  _18
REMARK    3  A    between atoms: _6  and  _7
REMARK    4  A    between atoms: _6  and  _18
REMARK    5  A    between atoms: _14  and  _34
REMARK    6  A    between atoms: _16  and  _22
REMARK    7  A    between atoms: _17  and  _21
REMARK    8  A    between atoms: _21  and  _22
REMARK    9  A    between atoms: _24  and  _25
REMARK   10  A    between atoms: _26  and  _27
REMARK   11  A    between atoms: _28  and  _30
REMARK   12  A    between atoms: _30  and  _31
REMARK   13  A    between atoms: _30  and  _32
REMARK   14  A    between atoms: _32  and  _33
REMARK   15  A    between atoms: _32  and  _34
REMARK   16  A    between atoms: _35  and  _37
REMARK                            x       y       z     vdW  Elec       q    Type
REMARK                         _______ _______ _______ _____ _____    ______ ____
ROOT
ATOM      1  C   UNL     1      -3.532   8.246  14.428  0.00  0.00    +0.163 C 
ENDROOT
BRANCH   1   2
ATOM      2  O   UNL     1      -4.156   8.332  15.719  0.00  0.00    -0.388 OA
ATOM      3  H   UNL     1      -3.824   9.104  16.185  0.00  0.00    +0.210 HD
ENDBRANCH   1   2
BRANCH   1   4
ATOM      4  C   UNL     1      -2.806   6.912  14.288  0.00  0.00    +0.141 C 
BRANCH   4   7
ATOM      5  C   UNL     1      -2.221   6.056  16.531  0.00  0.00    +0.401 C 
ATOM      6  O   UNL     1      -3.354   5.630  16.766  0.00  0.00    -0.226 OA
ATOM      7  N   UNL     1      -1.878   6.675  15.400  0.00  0.00    -0.279 N 
ATOM      8  H   UNL     1      -0.925   6.998  15.304  0.00  0.00    +0.152 HD
BRANCH   5   9
ATOM      9  O   UNL     1      -1.199   5.894  17.517  0.00  0.00    -0.444 OA
BRANCH   9  10
ATOM     10  C   UNL     1      -0.521   4.653  17.303  0.00  0.00    +0.292 C 
BRANCH  10  12
ATOM     11  N   UNL     1       1.560   3.755  18.297  0.00  0.00    -0.131 NA
ATOM     12  C   UNL     1       0.330   4.326  18.461  0.00  0.00    +0.121 A 
ATOM     13  C   UNL     1       0.097   4.508  19.804  0.00  0.00    +0.143 A 
ATOM     14  N   UNL     1       1.227   4.038  20.431  0.00  0.00    -0.220 N 
ATOM     15  N   UNL     1       2.098   3.582  19.497  0.00  0.00    -0.060 NA
BRANCH  14  16
ATOM     16  C   UNL     1       1.523   3.995  21.818  0.00  0.00    +0.068 A 
ATOM     17  C   UNL     1       1.477   5.177  22.575  0.00  0.00    +0.028 A 
ATOM     18  C   UNL     1       1.769   5.149  23.941  0.00  0.00    +0.003 A 
ATOM     19  C   UNL     1       2.108   3.946  24.558  0.00  0.00    +0.020 A 
ATOM     20  C   UNL     1       2.152   2.773  23.809  0.00  0.00    +0.043 A 
ATOM     21 CL   UNL     1       2.569   1.287  24.572  0.00  0.00    -0.083 Cl
ATOM     22  C   UNL     1       1.861   2.788  22.443  0.00  0.00    +0.047 A 
ENDBRANCH  14  16
ENDBRANCH  10  12
ENDBRANCH   9  10
ENDBRANCH   5   9
ENDBRANCH   4   7
ENDBRANCH   1   4
BRANCH   1  23
ATOM     23  C   UNL     1      -2.535   9.398  14.220  0.00  0.00    +0.175 C 
BRANCH  23  24
ATOM     24  C   UNL     1      -3.054  10.437  13.215  0.00  0.00    +0.176 C 
ATOM     25  O   UNL     1      -1.915  10.944  12.467  0.00  0.00    -0.332 OA
ATOM     26  C   UNL     1      -2.233  11.877  11.381  0.00  0.00    +0.277 C 
ATOM     27  C   UNL     1      -3.077  13.060  11.915  0.00  0.00    +0.110 C 
ATOM     28  C   UNL     1      -4.283  12.571  12.744  0.00  0.00    +0.143 C 
ATOM     29  C   UNL     1      -3.838  11.605  13.843  0.00  0.00    +0.133 C 
BRANCH  29  30
ATOM     30  N   UNL     1      -5.004  11.079  14.570  0.00  0.00    -0.308 N 
ATOM     31  H   UNL     1      -5.645  10.483  14.065  0.00  0.00    +0.149 HD
ATOM     32  C   UNL     1      -5.271  11.338  15.853  0.00  0.00    +0.210 C 
ATOM     33  C   UNL     1      -4.289  12.271  16.587  0.00  0.00    +0.109 C 
ATOM     34  O   UNL     1      -6.247  10.872  16.440  0.00  0.00    -0.276 OA
ENDBRANCH  29  30
BRANCH  26  35
ATOM     35  C   UNL     1      -3.005  11.160  10.254  0.00  0.00    +0.414 C 
ATOM     36  O   UNL     1      -3.784  11.789   9.539  0.00  0.00    -0.240 OA
ATOM     37  O   UNL     1      -2.848   9.954  10.058  0.00  0.00    -0.240 OA
ENDBRANCH  26  35
BRANCH  28  38
ATOM     38  O   UNL     1      -4.943  13.689  13.340  0.00  0.00    -0.390 OA
ATOM     39  H   UNL     1      -5.135  13.495  14.260  0.00  0.00    +0.210 HD
ENDBRANCH  28  38
BRANCH  26  40
ATOM     40  O   UNL     1      -0.985  12.403  10.861  0.00  0.00    -0.343 OA
ATOM     41  C   UNL     1      -0.509  13.606  11.514  0.00  0.00    +0.198 C 
ENDBRANCH  26  40
ENDBRANCH  23  24
BRANCH  23  42
ATOM     42  O   UNL     1      -1.261   8.881  13.786  0.00  0.00    -0.387 OA
ATOM     43  H   UNL     1      -0.915   8.282  14.452  0.00  0.00    +0.210 HD
ENDBRANCH  23  42
ENDBRANCH   1  23
TORSDOF 14
