REMARK VINA RESULT:    -6.504     14.158     18.256
REMARK INTER + INTRA:         -13.288
REMARK INTER:                 -11.305
REMARK INTRA:                  -1.982
REMARK UNBOUND:                -2.031
REMARK  Name = lig_assembled_42.pdb
REMARK  16 active torsions:
REMARK  status: ('A' for Active; 'I' for Inactive)
REMARK    1  A    between atoms: _2  and  _9
REMARK    2  A    between atoms: _4  and  _21
REMARK    3  A    between atoms: _6  and  _7
REMARK    4  A    between atoms: _6  and  _21
REMARK    5  A    between atoms: _17  and  _37
REMARK    6  A    between atoms: _19  and  _25
REMARK    7  A    between atoms: _20  and  _24
REMARK    8  A    between atoms: _24  and  _25
REMARK    9  A    between atoms: _27  and  _28
REMARK   10  A    between atoms: _29  and  _30
REMARK   11  A    between atoms: _31  and  _33
REMARK   12  A    between atoms: _33  and  _34
REMARK   13  A    between atoms: _33  and  _35
REMARK   14  A    between atoms: _35  and  _36
REMARK   15  A    between atoms: _35  and  _37
REMARK   16  A    between atoms: _38  and  _40
REMARK                            x       y       z     vdW  Elec       q    Type
REMARK                         _______ _______ _______ _____ _____    ______ ____
ROOT
ATOM      1  C   UNL     1      18.349   5.649  23.768  0.00  0.00    +0.163 C 
ENDROOT
BRANCH   1   2
ATOM      2  O   UNL     1      17.345   5.647  22.739  0.00  0.00    -0.388 OA
ATOM      3  H   UNL     1      16.883   4.806  22.744  0.00  0.00    +0.210 HD
ENDBRANCH   1   2
BRANCH   1   4
ATOM      4  C   UNL     1      19.338   6.786  23.530  0.00  0.00    +0.141 C 
BRANCH   4   7
ATOM      5  C   UNL     1      20.791   7.649  25.332  0.00  0.00    +0.401 C 
ATOM      6  O   UNL     1      21.807   7.094  24.907  0.00  0.00    -0.226 OA
ATOM      7  N   UNL     1      19.593   7.555  24.754  0.00  0.00    -0.279 N 
ATOM      8  H   UNL     1      18.817   8.039  25.183  0.00  0.00    +0.152 HD
BRANCH   5   9
ATOM      9  O   UNL     1      20.878   8.445  26.517  0.00  0.00    -0.444 OA
BRANCH   9  10
ATOM     10  C   UNL     1      20.025   9.586  26.390  0.00  0.00    +0.292 C 
BRANCH  10  12
ATOM     11  N   UNL     1      18.351  10.812  27.751  0.00  0.00    -0.131 NA
ATOM     12  C   UNL     1      19.231   9.778  27.619  0.00  0.00    +0.121 A 
ATOM     13  C   UNL     1      19.219   9.030  28.771  0.00  0.00    +0.143 A 
ATOM     14  N   UNL     1      18.305   9.647  29.591  0.00  0.00    -0.220 N 
ATOM     15  N   UNL     1      17.790  10.727  28.952  0.00  0.00    -0.060 NA
BRANCH  14  16
ATOM     16  C   UNL     1      17.913   9.280  30.903  0.00  0.00    +0.071 A 
ATOM     17  C   UNL     1      17.477  10.261  31.806  0.00  0.00    +0.077 A 
ATOM     18  C   UNL     1      17.106   9.854  33.070  0.00  0.00    +0.168 A 
ATOM     19  O   UNL     1      16.660  10.675  34.056  0.00  0.00    -0.453 OA
ATOM     20  C   UNL     1      16.424   9.721  35.112  0.00  0.00    +0.466 C 
ATOM     21  O   UNL     1      16.741   8.362  34.739  0.00  0.00    -0.453 OA
ATOM     22  C   UNL     1      17.152   8.537  33.455  0.00  0.00    +0.166 A 
ATOM     23  C   UNL     1      17.576   7.546  32.596  0.00  0.00    +0.051 A 
ATOM     24  C   UNL     1      17.962   7.923  31.302  0.00  0.00    +0.031 A 
ENDBRANCH  14  16
ENDBRANCH  10  12
ENDBRANCH   9  10
ENDBRANCH   5   9
ENDBRANCH   4   7
ENDBRANCH   1   4
BRANCH   1  25
ATOM     25  C   UNL     1      19.104   4.309  23.801  0.00  0.00    +0.175 C 
BRANCH  25  26
ATOM     26  C   UNL     1      18.362   3.248  24.627  0.00  0.00    +0.176 C 
ATOM     27  O   UNL     1      19.232   2.842  25.719  0.00  0.00    -0.332 OA
ATOM     28  C   UNL     1      18.647   1.903  26.681  0.00  0.00    +0.277 C 
ATOM     29  C   UNL     1      18.102   0.651  25.951  0.00  0.00    +0.110 C 
ATOM     30  C   UNL     1      17.196   1.033  24.762  0.00  0.00    +0.143 C 
ATOM     31  C   UNL     1      17.903   2.015  23.827  0.00  0.00    +0.133 C 
BRANCH  31  32
ATOM     32  N   UNL     1      16.999   2.439  22.746  0.00  0.00    -0.308 N 
ATOM     33  H   UNL     1      16.174   2.964  23.000  0.00  0.00    +0.149 HD
ATOM     34  C   UNL     1      17.198   2.175  21.452  0.00  0.00    +0.210 C 
ATOM     35  C   UNL     1      18.451   1.350  21.101  0.00  0.00    +0.109 C 
ATOM     36  O   UNL     1      16.432   2.555  20.566  0.00  0.00    -0.276 OA
ENDBRANCH  31  32
BRANCH  28  37
ATOM     37  C   UNL     1      17.507   2.574  27.475  0.00  0.00    +0.414 C 
ATOM     38  O   UNL     1      16.333   2.365  27.171  0.00  0.00    -0.240 OA
ATOM     39  O   UNL     1      17.760   3.325  28.418  0.00  0.00    -0.240 OA
ENDBRANCH  28  37
BRANCH  30  40
ATOM     40  O   UNL     1      16.840  -0.141  24.030  0.00  0.00    -0.390 OA
ATOM     41  H   UNL     1      17.620  -0.685  23.900  0.00  0.00    +0.210 HD
ENDBRANCH  30  40
BRANCH  28  42
ATOM     42  O   UNL     1      19.694   1.482  27.592  0.00  0.00    -0.343 OA
ATOM     43  C   UNL     1      20.985   2.103  27.369  0.00  0.00    +0.198 C 
ENDBRANCH  28  42
ENDBRANCH  25  26
BRANCH  25  44
ATOM     44  O   UNL     1      20.435   4.502  24.322  0.00  0.00    -0.387 OA
ATOM     45  H   UNL     1      20.386   4.962  25.163  0.00  0.00    +0.210 HD
ENDBRANCH  25  44
ENDBRANCH   1  25
TORSDOF 14
