REMARK VINA RESULT:    -5.269      5.446     10.945
REMARK INTER + INTRA:         -12.252
REMARK INTER:                  -9.781
REMARK INTRA:                  -2.471
REMARK UNBOUND:                -2.671
REMARK  Name = lig_assembled_1.pdb
REMARK  18 active torsions:
REMARK  status: ('A' for Active; 'I' for Inactive)
REMARK    1  A    between atoms: _2  and  _9
REMARK    2  A    between atoms: _4  and  _15
REMARK    3  A    between atoms: _5  and  _9
REMARK    4  A    between atoms: _5  and  _10
REMARK    5  A    between atoms: _6  and  _7
REMARK    6  A    between atoms: _6  and  _15
REMARK    7  A    between atoms: _11  and  _31
REMARK    8  A    between atoms: _13  and  _19
REMARK    9  A    between atoms: _14  and  _18
REMARK   10  A    between atoms: _18  and  _19
REMARK   11  A    between atoms: _21  and  _22
REMARK   12  A    between atoms: _23  and  _24
REMARK   13  A    between atoms: _25  and  _27
REMARK   14  A    between atoms: _27  and  _28
REMARK   15  A    between atoms: _27  and  _29
REMARK   16  A    between atoms: _29  and  _30
REMARK   17  A    between atoms: _29  and  _31
REMARK   18  A    between atoms: _32  and  _34
REMARK                            x       y       z     vdW  Elec       q    Type
REMARK                         _______ _______ _______ _____ _____    ______ ____
ROOT
ATOM      1  C   UNL     1      18.770   8.924  30.135  0.00  0.00    +0.175 C 
ENDROOT
BRANCH   1   2
ATOM      2  C   UNL     1      17.965   8.272  31.269  0.00  0.00    +0.176 C 
ATOM      3  O   UNL     1      18.015   9.160  32.420  0.00  0.00    -0.332 OA
ATOM      4  C   UNL     1      17.209   8.748  33.573  0.00  0.00    +0.277 C 
ATOM      5  C   UNL     1      17.578   7.308  34.006  0.00  0.00    +0.110 C 
ATOM      6  C   UNL     1      17.570   6.334  32.810  0.00  0.00    +0.143 C 
ATOM      7  C   UNL     1      18.438   6.861  31.667  0.00  0.00    +0.133 C 
BRANCH   7   8
ATOM      8  N   UNL     1      18.353   5.968  30.500  0.00  0.00    -0.308 N 
ATOM      9  H   UNL     1      17.466   5.904  30.019  0.00  0.00    +0.149 HD
ATOM     10  C   UNL     1      19.369   5.237  30.036  0.00  0.00    +0.210 C 
ATOM     11  C   UNL     1      20.699   5.337  30.807  0.00  0.00    +0.109 C 
ATOM     12  O   UNL     1      19.273   4.508  29.048  0.00  0.00    -0.276 OA
ENDBRANCH   7   8
BRANCH   4  13
ATOM     13  C   UNL     1      15.704   8.816  33.240  0.00  0.00    +0.414 C 
ATOM     14  O   UNL     1      14.932   7.964  33.679  0.00  0.00    -0.240 OA
ATOM     15  O   UNL     1      15.261   9.722  32.532  0.00  0.00    -0.240 OA
ENDBRANCH   4  13
BRANCH   4  16
ATOM     16  O   UNL     1      17.506   9.647  34.672  0.00  0.00    -0.343 OA
ATOM     17  C   UNL     1      17.711  11.032  34.293  0.00  0.00    +0.198 C 
ENDBRANCH   4  16
BRANCH   6  18
ATOM     18  O   UNL     1      18.061   5.058  33.224  0.00  0.00    -0.390 OA
ATOM     19  H   UNL     1      18.783   4.791  32.650  0.00  0.00    +0.210 HD
ENDBRANCH   6  18
ENDBRANCH   1   2
BRANCH   1  20
ATOM     20  O   UNL     1      20.182   8.742  30.360  0.00  0.00    -0.387 OA
ATOM     21  H   UNL     1      20.598   9.597  30.496  0.00  0.00    +0.210 HD
ENDBRANCH   1  20
BRANCH   1  22
ATOM     22  C   UNL     1      18.446  10.420  29.981  0.00  0.00    +0.163 C 
BRANCH  22  23
ATOM     23  O   UNL     1      17.111  10.705  30.429  0.00  0.00    -0.388 OA
ATOM     24  H   UNL     1      16.707   9.901  30.765  0.00  0.00    +0.210 HD
ENDBRANCH  22  23
BRANCH  22  25
ATOM     25  C   UNL     1      18.604  10.827  28.520  0.00  0.00    +0.141 C 
BRANCH  25  28
ATOM     26  C   UNL     1      19.677   9.776  26.557  0.00  0.00    +0.401 C 
ATOM     27  O   UNL     1      20.142  10.834  26.127  0.00  0.00    -0.226 OA
ATOM     28  N   UNL     1      18.941   9.682  27.665  0.00  0.00    -0.279 N 
ATOM     29  H   UNL     1      18.595   8.770  27.932  0.00  0.00    +0.152 HD
BRANCH  26  30
ATOM     30  O   UNL     1      19.925   8.565  25.838  0.00  0.00    -0.444 OA
BRANCH  30  31
ATOM     31  C   UNL     1      19.034   7.546  26.298  0.00  0.00    +0.292 C 
BRANCH  31  33
ATOM     32  N   UNL     1      18.264   6.948  24.021  0.00  0.00    -0.131 NA
ATOM     33  C   UNL     1      18.783   6.562  25.228  0.00  0.00    +0.120 A 
ATOM     34  C   UNL     1      18.991   5.200  25.214  0.00  0.00    +0.137 A 
ATOM     35  N   UNL     1      18.573   4.819  23.974  0.00  0.00    -0.249 N 
ATOM     36  N   UNL     1      18.133   5.869  23.261  0.00  0.00    -0.065 NA
BRANCH  35  37
ATOM     37  C   UNL     1      18.573   3.490  23.405  0.00  0.00    +0.173 C 
BRANCH  37  38
ATOM     38  C   UNL     1      17.389   3.248  22.478  0.00  0.00    +0.179 C 
BRANCH  38  39
ATOM     39  O   UNL     1      16.151   3.447  23.159  0.00  0.00    -0.393 OA
ATOM     40  H   UNL     1      15.543   2.747  22.853  0.00  0.00    +0.209 HD
ENDBRANCH  38  39
ENDBRANCH  37  38
ENDBRANCH  35  37
ENDBRANCH  31  33
ENDBRANCH  30  31
ENDBRANCH  26  30
ENDBRANCH  25  28
ENDBRANCH  22  25
ENDBRANCH   1  22
TORSDOF 16
