REMARK VINA RESULT:    -6.461     13.988     16.324
REMARK INTER + INTRA:         -13.436
REMARK INTER:                 -11.376
REMARK INTRA:                  -2.060
REMARK UNBOUND:                -1.875
REMARK  Name = lig_assembled_82.pdb
REMARK  19 active torsions:
REMARK  status: ('A' for Active; 'I' for Inactive)
REMARK    1  A    between atoms: _2  and  _9
REMARK    2  A    between atoms: _4  and  _22
REMARK    3  A    between atoms: _5  and  _16
REMARK    4  A    between atoms: _6  and  _7
REMARK    5  A    between atoms: _6  and  _22
REMARK    6  A    between atoms: _9  and  _10
REMARK    7  A    between atoms: _16  and  _17
REMARK    8  A    between atoms: _18  and  _38
REMARK    9  A    between atoms: _20  and  _26
REMARK   10  A    between atoms: _21  and  _25
REMARK   11  A    between atoms: _25  and  _26
REMARK   12  A    between atoms: _28  and  _29
REMARK   13  A    between atoms: _30  and  _31
REMARK   14  A    between atoms: _32  and  _34
REMARK   15  A    between atoms: _34  and  _35
REMARK   16  A    between atoms: _34  and  _36
REMARK   17  A    between atoms: _36  and  _37
REMARK   18  A    between atoms: _36  and  _38
REMARK   19  A    between atoms: _39  and  _41
REMARK                            x       y       z     vdW  Elec       q    Type
REMARK                         _______ _______ _______ _____ _____    ______ ____
ROOT
ATOM      1  C   UNL     1      19.021   7.215  30.281  0.00  0.00    +0.163 C 
ENDROOT
BRANCH   1   2
ATOM      2  O   UNL     1      18.256   6.030  30.558  0.00  0.00    -0.388 OA
ATOM      3  H   UNL     1      17.323   6.211  30.418  0.00  0.00    +0.210 HD
ENDBRANCH   1   2
BRANCH   1   4
ATOM      4  C   UNL     1      20.139   6.894  29.294  0.00  0.00    +0.141 C 
BRANCH   4   7
ATOM      5  C   UNL     1      19.859   7.810  27.016  0.00  0.00    +0.401 C 
ATOM      6  O   UNL     1      20.473   8.852  27.258  0.00  0.00    -0.226 OA
ATOM      7  N   UNL     1      19.650   6.843  27.911  0.00  0.00    -0.279 N 
ATOM      8  H   UNL     1      19.127   6.030  27.620  0.00  0.00    +0.152 HD
BRANCH   5   9
ATOM      9  O   UNL     1      19.326   7.606  25.705  0.00  0.00    -0.444 OA
BRANCH   9  10
ATOM     10  C   UNL     1      19.953   6.470  25.106  0.00  0.00    +0.292 C 
BRANCH  10  12
ATOM     11  N   UNL     1      18.176   6.509  23.385  0.00  0.00    -0.131 NA
ATOM     12  C   UNL     1      19.039   5.794  24.181  0.00  0.00    +0.120 A 
ATOM     13  C   UNL     1      18.847   4.447  23.933  0.00  0.00    +0.137 A 
ATOM     14  N   UNL     1      17.776   4.413  23.085  0.00  0.00    -0.247 N 
ATOM     15  N   UNL     1      17.438   5.655  22.691  0.00  0.00    -0.065 NA
BRANCH  14  16
ATOM     16  C   UNL     1      16.971   3.257  22.679  0.00  0.00    +0.176 C 
BRANCH  16  17
ATOM     17  C   UNL     1      17.107   2.093  23.628  0.00  0.00    -0.049 C 
ATOM     18  C   UNL     1      18.120   1.042  23.300  0.00  0.00    +0.023 C 
ATOM     19  C   UNL     1      18.915   0.352  24.499  0.00  0.00    -0.025 C 
ATOM     20  C   UNL     1      19.381   0.906  25.851  0.00  0.00    +0.012 C 
ATOM     21  C   UNL     1      17.521  -0.410  24.692  0.00  0.00    -0.000 C 
ATOM     22  C   UNL     1      16.395   0.446  25.352  0.00  0.00    +0.031 C 
ATOM     23  C   UNL     1      20.178  -0.232  23.819  0.00  0.00    +0.012 C 
ATOM     24  C   UNL     1      17.390  -0.353  23.146  0.00  0.00    +0.012 C 
ATOM     25  C   UNL     1      16.293   1.796  24.659  0.00  0.00    -0.025 C 
ENDBRANCH  16  17
ENDBRANCH  14  16
ENDBRANCH  10  12
ENDBRANCH   9  10
ENDBRANCH   5   9
ENDBRANCH   4   7
ENDBRANCH   1   4
BRANCH   1  26
ATOM     26  C   UNL     1      19.625   7.794  31.572  0.00  0.00    +0.175 C 
BRANCH  26  27
ATOM     27  C   UNL     1      18.612   8.643  32.353  0.00  0.00    +0.176 C 
ATOM     28  O   UNL     1      17.609   7.747  32.905  0.00  0.00    -0.332 OA
ATOM     29  C   UNL     1      16.610   8.373  33.777  0.00  0.00    +0.277 C 
ATOM     30  C   UNL     1      15.916   9.549  33.048  0.00  0.00    +0.110 C 
ATOM     31  C   UNL     1      16.943  10.513  32.417  0.00  0.00    +0.143 C 
ATOM     32  C   UNL     1      17.935   9.756  31.532  0.00  0.00    +0.133 C 
BRANCH  32  33
ATOM     33  N   UNL     1      18.959  10.672  31.006  0.00  0.00    -0.308 N 
ATOM     34  H   UNL     1      19.643  11.037  31.655  0.00  0.00    +0.149 HD
ATOM     35  C   UNL     1      19.045  11.051  29.729  0.00  0.00    +0.210 C 
ATOM     36  C   UNL     1      17.973  10.498  28.771  0.00  0.00    +0.109 C 
ATOM     37  O   UNL     1      19.924  11.808  29.313  0.00  0.00    -0.276 OA
ENDBRANCH  32  33
BRANCH  29  38
ATOM     38  C   UNL     1      17.264   8.886  35.077  0.00  0.00    +0.414 C 
ATOM     39  O   UNL     1      18.259   8.324  35.535  0.00  0.00    -0.240 OA
ATOM     40  O   UNL     1      16.798   9.861  35.668  0.00  0.00    -0.240 OA
ENDBRANCH  29  38
BRANCH  29  41
ATOM     41  O   UNL     1      15.605   7.376  34.097  0.00  0.00    -0.343 OA
ATOM     42  C   UNL     1      16.002   6.005  33.846  0.00  0.00    +0.198 C 
ENDBRANCH  29  41
BRANCH  31  43
ATOM     43  O   UNL     1      16.264  11.493  31.630  0.00  0.00    -0.390 OA
ATOM     44  H   UNL     1      15.740  11.056  30.955  0.00  0.00    +0.210 HD
ENDBRANCH  31  43
ENDBRANCH  26  27
BRANCH  26  45
ATOM     45  O   UNL     1      20.796   8.576  31.264  0.00  0.00    -0.387 OA
ATOM     46  H   UNL     1      21.444   8.472  31.965  0.00  0.00    +0.210 HD
ENDBRANCH  26  45
ENDBRANCH   1  26
TORSDOF 15
