REMARK VINA RESULT:    -6.235      4.567      5.688
REMARK INTER + INTRA:         -12.426
REMARK INTER:                 -10.883
REMARK INTRA:                  -1.543
REMARK UNBOUND:                -1.636
REMARK  Name = lig_assembled_52.pdb
REMARK  16 active torsions:
REMARK  status: ('A' for Active; 'I' for Inactive)
REMARK    1  A    between atoms: _2  and  _10
REMARK    2  A    between atoms: _5  and  _18
REMARK    3  A    between atoms: _7  and  _8
REMARK    4  A    between atoms: _7  and  _18
REMARK    5  A    between atoms: _14  and  _34
REMARK    6  A    between atoms: _16  and  _22
REMARK    7  A    between atoms: _17  and  _21
REMARK    8  A    between atoms: _21  and  _22
REMARK    9  A    between atoms: _24  and  _25
REMARK   10  A    between atoms: _26  and  _27
REMARK   11  A    between atoms: _28  and  _30
REMARK   12  A    between atoms: _30  and  _31
REMARK   13  A    between atoms: _30  and  _32
REMARK   14  A    between atoms: _32  and  _33
REMARK   15  A    between atoms: _32  and  _34
REMARK   16  A    between atoms: _35  and  _37
REMARK                            x       y       z     vdW  Elec       q    Type
REMARK                         _______ _______ _______ _____ _____    ______ ____
ROOT
ATOM      1  C   UNL     1       6.662   3.822  33.673  0.00  0.00    +0.163 C 
ENDROOT
BRANCH   1   2
ATOM      2  O   UNL     1       7.516   4.694  32.915  0.00  0.00    -0.388 OA
ATOM      3  H   UNL     1       7.707   4.295  32.063  0.00  0.00    +0.210 HD
ENDBRANCH   1   2
BRANCH   1   4
ATOM      4  C   UNL     1       6.108   2.722  32.772  0.00  0.00    +0.141 C 
BRANCH   4   7
ATOM      5  C   UNL     1       4.109   2.656  31.322  0.00  0.00    +0.401 C 
ATOM      6  O   UNL     1       3.706   1.579  31.767  0.00  0.00    -0.226 OA
ATOM      7  N   UNL     1       5.225   3.260  31.730  0.00  0.00    -0.279 N 
ATOM      8  H   UNL     1       5.478   4.138  31.298  0.00  0.00    +0.152 HD
BRANCH   5   9
ATOM      9  O   UNL     1       3.351   3.314  30.303  0.00  0.00    -0.444 OA
BRANCH   9  10
ATOM     10  C   UNL     1       2.236   2.497  29.935  0.00  0.00    +0.292 C 
BRANCH  10  12
ATOM     11  N   UNL     1       0.292   3.668  28.951  0.00  0.00    -0.131 NA
ATOM     12  C   UNL     1       1.520   3.093  28.792  0.00  0.00    +0.121 A 
ATOM     13  C   UNL     1       1.894   3.194  27.471  0.00  0.00    +0.143 A 
ATOM     14  N   UNL     1       0.860   3.862  26.858  0.00  0.00    -0.218 N 
ATOM     15  N   UNL     1      -0.104   4.129  27.772  0.00  0.00    -0.060 NA
BRANCH  14  16
ATOM     16  C   UNL     1       0.744   4.262  25.510  0.00  0.00    +0.085 A 
ATOM     17  C   UNL     1       1.854   4.345  24.665  0.00  0.00    +0.031 A 
ATOM     18  C   UNL     1       1.677   4.767  23.348  0.00  0.00    +0.022 A 
ATOM     19  C   UNL     1       0.399   5.088  22.923  0.00  0.00    +0.111 A 
ATOM     20  N   UNL     1      -0.693   5.009  23.712  0.00  0.00    -0.261 NA
ATOM     21  C   UNL     1      -0.500   4.598  24.990  0.00  0.00    +0.138 A 
ENDBRANCH  14  16
ENDBRANCH  10  12
ENDBRANCH   9  10
ENDBRANCH   5   9
ENDBRANCH   4   7
ENDBRANCH   1   4
BRANCH   1  22
ATOM     22  C   UNL     1       5.497   4.604  34.303  0.00  0.00    +0.175 C 
BRANCH  22  23
ATOM     23  C   UNL     1       5.970   5.543  35.423  0.00  0.00    +0.176 C 
ATOM     24  O   UNL     1       7.352   5.210  35.731  0.00  0.00    -0.332 OA
ATOM     25  C   UNL     1       8.010   6.078  36.712  0.00  0.00    +0.277 C 
ATOM     26  C   UNL     1       7.183   6.142  38.019  0.00  0.00    +0.110 C 
ATOM     27  C   UNL     1       5.699   6.462  37.740  0.00  0.00    +0.143 C 
ATOM     28  C   UNL     1       5.116   5.500  36.704  0.00  0.00    +0.133 C 
BRANCH  28  29
ATOM     29  N   UNL     1       3.729   5.869  36.381  0.00  0.00    -0.308 N 
ATOM     30  H   UNL     1       3.580   6.672  35.785  0.00  0.00    +0.149 HD
ATOM     31  C   UNL     1       2.653   5.213  36.824  0.00  0.00    +0.210 C 
ATOM     32  C   UNL     1       2.912   4.011  37.752  0.00  0.00    +0.109 C 
ATOM     33  O   UNL     1       1.503   5.537  36.526  0.00  0.00    -0.276 OA
ENDBRANCH  28  29
BRANCH  25  34
ATOM     34  C   UNL     1       8.191   7.502  36.147  0.00  0.00    +0.414 C 
ATOM     35  O   UNL     1       8.277   8.465  36.908  0.00  0.00    -0.240 OA
ATOM     36  O   UNL     1       8.252   7.688  34.931  0.00  0.00    -0.240 OA
ENDBRANCH  25  34
BRANCH  27  37
ATOM     37  O   UNL     1       4.948   6.362  38.950  0.00  0.00    -0.390 OA
ATOM     38  H   UNL     1       5.535   6.128  39.673  0.00  0.00    +0.210 HD
ENDBRANCH  27  37
BRANCH  25  39
ATOM     39  O   UNL     1       9.307   5.506  37.019  0.00  0.00    -0.343 OA
ATOM     40  C   UNL     1       9.271   4.163  37.565  0.00  0.00    +0.198 C 
ENDBRANCH  25  39
ENDBRANCH  22  23
BRANCH  22  41
ATOM     41  O   UNL     1       4.501   3.692  34.808  0.00  0.00    -0.387 OA
ATOM     42  H   UNL     1       4.889   3.142  35.493  0.00  0.00    +0.210 HD
ENDBRANCH  22  41
ENDBRANCH   1  22
TORSDOF 14
