REMARK VINA RESULT:    -6.723      4.270      5.555
REMARK INTER + INTRA:         -13.423
REMARK INTER:                 -11.709
REMARK INTRA:                  -1.714
REMARK UNBOUND:                -1.788
REMARK  Name = lig_assembled_20.pdb
REMARK  16 active torsions:
REMARK  status: ('A' for Active; 'I' for Inactive)
REMARK    1  A    between atoms: _2  and  _11
REMARK    2  A    between atoms: _6  and  _21
REMARK    3  A    between atoms: _8  and  _9
REMARK    4  A    between atoms: _8  and  _21
REMARK    5  A    between atoms: _17  and  _37
REMARK    6  A    between atoms: _19  and  _25
REMARK    7  A    between atoms: _20  and  _24
REMARK    8  A    between atoms: _24  and  _25
REMARK    9  A    between atoms: _27  and  _28
REMARK   10  A    between atoms: _29  and  _30
REMARK   11  A    between atoms: _31  and  _33
REMARK   12  A    between atoms: _33  and  _34
REMARK   13  A    between atoms: _33  and  _35
REMARK   14  A    between atoms: _35  and  _36
REMARK   15  A    between atoms: _35  and  _37
REMARK   16  A    between atoms: _38  and  _40
REMARK                            x       y       z     vdW  Elec       q    Type
REMARK                         _______ _______ _______ _____ _____    ______ ____
ROOT
ATOM      1  C   UNL     1       7.543   2.526  34.523  0.00  0.00    +0.163 C 
ENDROOT
BRANCH   1   2
ATOM      2  O   UNL     1       8.089   2.487  35.852  0.00  0.00    -0.388 OA
ATOM      3  H   UNL     1       7.418   2.757  36.482  0.00  0.00    +0.210 HD
ENDBRANCH   1   2
BRANCH   1   4
ATOM      4  C   UNL     1       8.123   1.390  33.686  0.00  0.00    +0.141 C 
BRANCH   4   7
ATOM      5  C   UNL     1       6.155   0.471  32.509  0.00  0.00    +0.401 C 
ATOM      6  O   UNL     1       5.983   1.476  31.815  0.00  0.00    -0.226 OA
ATOM      7  N   UNL     1       7.126   0.347  33.414  0.00  0.00    -0.279 N 
ATOM      8  H   UNL     1       7.180  -0.513  33.941  0.00  0.00    +0.152 HD
BRANCH   5   9
ATOM      9  O   UNL     1       5.267  -0.639  32.354  0.00  0.00    -0.444 OA
BRANCH   9  10
ATOM     10  C   UNL     1       4.041  -0.194  31.768  0.00  0.00    +0.292 C 
BRANCH  10  12
ATOM     11  N   UNL     1       2.900  -0.279  29.568  0.00  0.00    -0.131 NA
ATOM     12  C   UNL     1       4.008  -0.516  30.329  0.00  0.00    +0.121 A 
ATOM     13  C   UNL     1       4.987  -1.064  29.536  0.00  0.00    +0.143 A 
ATOM     14  N   UNL     1       4.430  -1.147  28.281  0.00  0.00    -0.220 N 
ATOM     15  N   UNL     1       3.163  -0.665  28.325  0.00  0.00    -0.060 NA
BRANCH  14  16
ATOM     16  C   UNL     1       5.016  -1.641  27.086  0.00  0.00    +0.068 A 
ATOM     17  C   UNL     1       4.376  -1.427  25.854  0.00  0.00    +0.030 A 
ATOM     18  C   UNL     1       4.930  -1.897  24.655  0.00  0.00    +0.030 A 
ATOM     19  C   UNL     1       6.144  -2.585  24.739  0.00  0.00    +0.066 A 
ATOM     20  C   UNL     1       6.800  -2.814  25.941  0.00  0.00    +0.021 A 
ATOM     21  C   UNL     1       7.963  -3.529  25.582  0.00  0.00    +0.142 A 
ATOM     22  N   UNL     1       8.052  -3.742  24.267  0.00  0.00    -0.181 NA
ATOM     23  N   UNL     1       6.941  -3.159  23.782  0.00  0.00    -0.277 N 
ATOM     24  H   UNL     1       6.779  -3.190  22.782  0.00  0.00    +0.189 HD
ATOM     25  C   UNL     1       6.237  -2.340  27.139  0.00  0.00    +0.039 A 
ENDBRANCH  14  16
ENDBRANCH  10  12
ENDBRANCH   9  10
ENDBRANCH   5   9
ENDBRANCH   4   7
ENDBRANCH   1   4
BRANCH   1  26
ATOM     26  C   UNL     1       7.846   3.872  33.843  0.00  0.00    +0.175 C 
BRANCH  26  27
ATOM     27  C   UNL     1       7.208   5.053  34.589  0.00  0.00    +0.176 C 
ATOM     28  O   UNL     1       7.929   5.235  35.839  0.00  0.00    -0.332 OA
ATOM     29  C   UNL     1       7.524   6.392  36.642  0.00  0.00    +0.277 C 
ATOM     30  C   UNL     1       6.000   6.354  36.916  0.00  0.00    +0.110 C 
ATOM     31  C   UNL     1       5.193   6.132  35.620  0.00  0.00    +0.143 C 
ATOM     32  C   UNL     1       5.700   4.904  34.862  0.00  0.00    +0.133 C 
BRANCH  32  33
ATOM     33  N   UNL     1       4.982   4.752  33.587  0.00  0.00    -0.308 N 
ATOM     34  H   UNL     1       5.162   5.431  32.861  0.00  0.00    +0.149 HD
ATOM     35  C   UNL     1       4.108   3.777  33.327  0.00  0.00    +0.210 C 
ATOM     36  C   UNL     1       3.835   2.773  34.463  0.00  0.00    +0.109 C 
ATOM     37  O   UNL     1       3.532   3.666  32.244  0.00  0.00    -0.276 OA
ENDBRANCH  32  33
BRANCH  29  38
ATOM     38  C   UNL     1       7.885   7.709  35.924  0.00  0.00    +0.414 C 
ATOM     39  O   UNL     1       7.890   7.765  34.695  0.00  0.00    -0.240 OA
ATOM     40  O   UNL     1       8.173   8.716  36.573  0.00  0.00    -0.240 OA
ENDBRANCH  29  38
BRANCH  31  41
ATOM     41  O   UNL     1       3.812   5.952  35.937  0.00  0.00    -0.390 OA
ATOM     42  H   UNL     1       3.726   5.685  36.855  0.00  0.00    +0.210 HD
ENDBRANCH  31  41
BRANCH  29  43
ATOM     43  O   UNL     1       8.219   6.322  37.913  0.00  0.00    -0.343 OA
ATOM     44  C   UNL     1       9.331   5.392  37.952  0.00  0.00    +0.198 C 
ENDBRANCH  29  43
ENDBRANCH  26  27
BRANCH  26  45
ATOM     45  O   UNL     1       7.398   3.849  32.473  0.00  0.00    -0.387 OA
ATOM     46  H   UNL     1       8.149   3.705  31.893  0.00  0.00    +0.210 HD
ENDBRANCH  26  45
ENDBRANCH   1  26
TORSDOF 14
