REMARK VINA RESULT:    -6.060      6.959     11.717
REMARK INTER + INTRA:         -12.901
REMARK INTER:                 -10.783
REMARK INTRA:                  -2.118
REMARK UNBOUND:                -2.413
REMARK  Name = lig_assembled_8.pdb
REMARK  16 active torsions:
REMARK  status: ('A' for Active; 'I' for Inactive)
REMARK    1  A    between atoms: _2  and  _9
REMARK    2  A    between atoms: _4  and  _18
REMARK    3  A    between atoms: _6  and  _7
REMARK    4  A    between atoms: _6  and  _18
REMARK    5  A    between atoms: _14  and  _34
REMARK    6  A    between atoms: _16  and  _22
REMARK    7  A    between atoms: _17  and  _21
REMARK    8  A    between atoms: _21  and  _22
REMARK    9  A    between atoms: _24  and  _25
REMARK   10  A    between atoms: _26  and  _27
REMARK   11  A    between atoms: _28  and  _30
REMARK   12  A    between atoms: _30  and  _31
REMARK   13  A    between atoms: _30  and  _32
REMARK   14  A    between atoms: _32  and  _33
REMARK   15  A    between atoms: _32  and  _34
REMARK   16  A    between atoms: _35  and  _37
REMARK                            x       y       z     vdW  Elec       q    Type
REMARK                         _______ _______ _______ _____ _____    ______ ____
ROOT
ATOM      1  C   UNL     1       9.891   3.008  34.800  0.00  0.00    +0.163 C 
ENDROOT
BRANCH   1   2
ATOM      2  O   UNL     1       9.649   2.053  33.754  0.00  0.00    -0.388 OA
ATOM      3  H   UNL     1      10.044   2.366  32.936  0.00  0.00    +0.210 HD
ENDBRANCH   1   2
BRANCH   1   4
ATOM      4  C   UNL     1      11.090   2.575  35.636  0.00  0.00    +0.141 C 
BRANCH   4   7
ATOM      5  C   UNL     1      12.342   4.109  37.114  0.00  0.00    +0.401 C 
ATOM      6  O   UNL     1      11.903   3.615  38.155  0.00  0.00    -0.226 OA
ATOM      7  N   UNL     1      12.011   3.690  35.892  0.00  0.00    -0.279 N 
ATOM      8  H   UNL     1      12.416   4.165  35.098  0.00  0.00    +0.152 HD
BRANCH   5   9
ATOM      9  O   UNL     1      13.259   5.203  37.197  0.00  0.00    -0.444 OA
BRANCH   9  10
ATOM     10  C   UNL     1      14.548   4.781  36.743  0.00  0.00    +0.292 C 
BRANCH  10  12
ATOM     11  N   UNL     1      14.721   5.057  34.297  0.00  0.00    -0.131 NA
ATOM     12  C   UNL     1      14.944   5.545  35.546  0.00  0.00    +0.121 A 
ATOM     13  C   UNL     1      15.546   6.777  35.441  0.00  0.00    +0.143 A 
ATOM     14  N   UNL     1      15.656   7.021  34.083  0.00  0.00    -0.219 N 
ATOM     15  N   UNL     1      15.159   5.951  33.423  0.00  0.00    -0.060 NA
BRANCH  14  16
ATOM     16  C   UNL     1      16.176   8.184  33.435  0.00  0.00    +0.081 A 
ATOM     17  C   UNL     1      15.513   9.414  33.645  0.00  0.00    +0.029 A 
ATOM     18  C   UNL     1      15.945  10.593  33.031  0.00  0.00    +0.002 A 
ATOM     19  C   UNL     1      17.049  10.574  32.194  0.00  0.00    +0.001 A 
ATOM     20  C   UNL     1      17.724   9.376  31.977  0.00  0.00    +0.017 A 
ATOM     21  C   UNL     1      17.304   8.179  32.590  0.00  0.00    +0.043 A 
ATOM     22 BR   UNL     1      18.388   6.677  32.146  0.00  0.00    -0.048 Br
ENDBRANCH  14  16
ENDBRANCH  10  12
ENDBRANCH   9  10
ENDBRANCH   5   9
ENDBRANCH   4   7
ENDBRANCH   1   4
BRANCH   1  23
ATOM     23  C   UNL     1       8.657   3.154  35.707  0.00  0.00    +0.175 C 
BRANCH  23  24
ATOM     24  C   UNL     1       7.807   4.378  35.335  0.00  0.00    +0.176 C 
ATOM     25  O   UNL     1       7.550   5.130  36.553  0.00  0.00    -0.332 OA
ATOM     26  C   UNL     1       6.836   6.398  36.375  0.00  0.00    +0.277 C 
ATOM     27  C   UNL     1       5.508   6.169  35.611  0.00  0.00    +0.110 C 
ATOM     28  C   UNL     1       5.727   5.345  34.325  0.00  0.00    +0.143 C 
ATOM     29  C   UNL     1       6.481   4.049  34.624  0.00  0.00    +0.133 C 
BRANCH  29  30
ATOM     30  N   UNL     1       6.760   3.315  33.380  0.00  0.00    -0.308 N 
ATOM     31  H   UNL     1       7.338   3.767  32.685  0.00  0.00    +0.149 HD
ATOM     32  C   UNL     1       6.298   2.092  33.108  0.00  0.00    +0.210 C 
ATOM     33  C   UNL     1       5.399   1.441  34.176  0.00  0.00    +0.109 C 
ATOM     34  O   UNL     1       6.560   1.495  32.063  0.00  0.00    -0.276 OA
ENDBRANCH  29  30
BRANCH  26  35
ATOM     35  C   UNL     1       7.706   7.413  35.604  0.00  0.00    +0.414 C 
ATOM     36  O   UNL     1       7.217   8.087  34.698  0.00  0.00    -0.240 OA
ATOM     37  O   UNL     1       8.895   7.558  35.889  0.00  0.00    -0.240 OA
ENDBRANCH  26  35
BRANCH  28  38
ATOM     38  O   UNL     1       4.465   5.029  33.735  0.00  0.00    -0.390 OA
ATOM     39  H   UNL     1       4.274   4.098  33.867  0.00  0.00    +0.210 HD
ENDBRANCH  28  38
BRANCH  26  40
ATOM     40  O   UNL     1       6.521   6.924  37.690  0.00  0.00    -0.343 OA
ATOM     41  C   UNL     1       5.461   6.227  38.391  0.00  0.00    +0.198 C 
ENDBRANCH  26  40
ENDBRANCH  23  24
BRANCH  23  42
ATOM     42  O   UNL     1       9.064   3.233  37.088  0.00  0.00    -0.387 OA
ATOM     43  H   UNL     1       9.911   3.679  37.148  0.00  0.00    +0.210 HD
ENDBRANCH  23  42
ENDBRANCH   1  23
TORSDOF 14
