REMARK VINA RESULT:    -6.094      4.810      9.117
REMARK INTER + INTRA:         -12.461
REMARK INTER:                 -10.404
REMARK INTRA:                  -2.057
REMARK UNBOUND:                -1.914
REMARK  Name = lig_assembled_56.pdb
REMARK  16 active torsions:
REMARK  status: ('A' for Active; 'I' for Inactive)
REMARK    1  A    between atoms: _2  and  _10
REMARK    2  A    between atoms: _5  and  _18
REMARK    3  A    between atoms: _7  and  _8
REMARK    4  A    between atoms: _7  and  _18
REMARK    5  A    between atoms: _14  and  _34
REMARK    6  A    between atoms: _16  and  _22
REMARK    7  A    between atoms: _17  and  _21
REMARK    8  A    between atoms: _21  and  _22
REMARK    9  A    between atoms: _24  and  _25
REMARK   10  A    between atoms: _26  and  _27
REMARK   11  A    between atoms: _28  and  _30
REMARK   12  A    between atoms: _30  and  _31
REMARK   13  A    between atoms: _30  and  _32
REMARK   14  A    between atoms: _32  and  _33
REMARK   15  A    between atoms: _32  and  _34
REMARK   16  A    between atoms: _35  and  _37
REMARK                            x       y       z     vdW  Elec       q    Type
REMARK                         _______ _______ _______ _____ _____    ______ ____
ROOT
ATOM      1  C   UNL     1       0.324  13.876  11.151  0.00  0.00    +0.163 C 
ENDROOT
BRANCH   1   2
ATOM      2  O   UNL     1      -0.440  12.676  10.942  0.00  0.00    -0.388 OA
ATOM      3  H   UNL     1       0.016  12.111  10.314  0.00  0.00    +0.210 HD
ENDBRANCH   1   2
BRANCH   1   4
ATOM      4  C   UNL     1      -0.139  14.573  12.426  0.00  0.00    +0.141 C 
BRANCH   4   7
ATOM      5  C   UNL     1      -2.542  14.463  12.992  0.00  0.00    +0.401 C 
ATOM      6  O   UNL     1      -2.805  15.563  12.501  0.00  0.00    -0.226 OA
ATOM      7  N   UNL     1      -1.322  13.925  13.006  0.00  0.00    -0.279 N 
ATOM      8  H   UNL     1      -1.204  13.020  13.441  0.00  0.00    +0.152 HD
BRANCH   5   9
ATOM      9  O   UNL     1      -3.594  13.701  13.591  0.00  0.00    -0.444 OA
BRANCH   9  10
ATOM     10  C   UNL     1      -3.953  12.620  12.726  0.00  0.00    +0.292 C 
BRANCH  10  12
ATOM     11  N   UNL     1      -2.207  10.880  12.503  0.00  0.00    -0.131 NA
ATOM     12  C   UNL     1      -3.295  11.374  13.162  0.00  0.00    +0.121 A 
ATOM     13  C   UNL     1      -3.601  10.538  14.213  0.00  0.00    +0.143 A 
ATOM     14  N   UNL     1      -2.649   9.545  14.165  0.00  0.00    -0.220 N 
ATOM     15  N   UNL     1      -1.822   9.769  13.115  0.00  0.00    -0.060 NA
BRANCH  14  16
ATOM     16  C   UNL     1      -2.475   8.439  15.032  0.00  0.00    +0.070 A 
ATOM     17  C   UNL     1      -3.547   7.923  15.765  0.00  0.00    +0.047 A 
ATOM     18  C   UNL     1      -3.301   6.850  16.607  0.00  0.00    +0.113 A 
ATOM     19  N   UNL     1      -2.091   6.274  16.760  0.00  0.00    -0.263 NA
ATOM     20  C   UNL     1      -1.073   6.790  16.039  0.00  0.00    +0.113 A 
ATOM     21  C   UNL     1      -1.210   7.859  15.170  0.00  0.00    +0.047 A 
ENDBRANCH  14  16
ENDBRANCH  10  12
ENDBRANCH   9  10
ENDBRANCH   5   9
ENDBRANCH   4   7
ENDBRANCH   1   4
BRANCH   1  22
ATOM     22  C   UNL     1       0.178  14.836   9.958  0.00  0.00    +0.175 C 
BRANCH  22  23
ATOM     23  C   UNL     1       1.264  15.922   9.954  0.00  0.00    +0.176 C 
ATOM     24  O   UNL     1       0.677  17.143  10.483  0.00  0.00    -0.332 OA
ATOM     25  C   UNL     1       1.602  18.268  10.653  0.00  0.00    +0.277 C 
ATOM     26  C   UNL     1       2.334  18.572   9.324  0.00  0.00    +0.110 C 
ATOM     27  C   UNL     1       2.948  17.298   8.706  0.00  0.00    +0.143 C 
ATOM     28  C   UNL     1       1.900  16.191   8.578  0.00  0.00    +0.133 C 
BRANCH  28  29
ATOM     29  N   UNL     1       2.515  14.955   8.070  0.00  0.00    -0.308 N 
ATOM     30  H   UNL     1       3.256  14.538   8.616  0.00  0.00    +0.149 HD
ATOM     31  C   UNL     1       2.159  14.349   6.934  0.00  0.00    +0.210 C 
ATOM     32  C   UNL     1       1.045  15.023   6.112  0.00  0.00    +0.109 C 
ATOM     33  O   UNL     1       2.682  13.305   6.541  0.00  0.00    -0.276 OA
ENDBRANCH  28  29
BRANCH  25  34
ATOM     34  C   UNL     1       2.638  17.962  11.755  0.00  0.00    +0.414 C 
ATOM     35  O   UNL     1       3.683  18.609  11.820  0.00  0.00    -0.240 OA
ATOM     36  O   UNL     1       2.430  17.070  12.578  0.00  0.00    -0.240 OA
ENDBRANCH  25  34
BRANCH  27  37
ATOM     37  O   UNL     1       3.479  17.595   7.415  0.00  0.00    -0.390 OA
ATOM     38  H   UNL     1       3.514  18.547   7.294  0.00  0.00    +0.210 HD
ENDBRANCH  27  37
BRANCH  25  39
ATOM     39  O   UNL     1       0.824  19.435  11.025  0.00  0.00    -0.343 OA
ATOM     40  C   UNL     1       1.157  20.647  10.303  0.00  0.00    +0.198 C 
ENDBRANCH  25  39
ENDBRANCH  22  23
BRANCH  22  41
ATOM     41  O   UNL     1      -1.130  15.442   9.966  0.00  0.00    -0.387 OA
ATOM     42  H   UNL     1      -1.646  15.099   9.232  0.00  0.00    +0.210 HD
ENDBRANCH  22  41
ENDBRANCH   1  22
TORSDOF 14
