REMARK VINA RESULT:    -6.180      3.315      5.510
REMARK INTER + INTRA:         -14.385
REMARK INTER:                 -12.168
REMARK INTRA:                  -2.217
REMARK UNBOUND:                -2.243
REMARK  Name = lig_assembled_31.pdb
REMARK  20 active torsions:
REMARK  status: ('A' for Active; 'I' for Inactive)
REMARK    1  A    between atoms: _2  and  _11
REMARK    2  A    between atoms: _3  and  _12
REMARK    3  A    between atoms: _4  and  _14
REMARK    4  A    between atoms: _6  and  _24
REMARK    5  A    between atoms: _8  and  _9
REMARK    6  A    between atoms: _8  and  _24
REMARK    7  A    between atoms: _11  and  _12
REMARK    8  A    between atoms: _14  and  _15
REMARK    9  A    between atoms: _20  and  _40
REMARK   10  A    between atoms: _22  and  _28
REMARK   11  A    between atoms: _23  and  _27
REMARK   12  A    between atoms: _27  and  _28
REMARK   13  A    between atoms: _30  and  _31
REMARK   14  A    between atoms: _32  and  _33
REMARK   15  A    between atoms: _34  and  _36
REMARK   16  A    between atoms: _36  and  _37
REMARK   17  A    between atoms: _36  and  _38
REMARK   18  A    between atoms: _38  and  _39
REMARK   19  A    between atoms: _38  and  _40
REMARK   20  A    between atoms: _41  and  _43
REMARK                            x       y       z     vdW  Elec       q    Type
REMARK                         _______ _______ _______ _____ _____    ______ ____
ROOT
ATOM      1  C   UNL     1      18.374   5.820  24.058  0.00  0.00    +0.401 C 
ATOM      2  O   UNL     1      18.323   6.626  23.125  0.00  0.00    -0.226 OA
ATOM      3  N   UNL     1      18.054   4.531  23.947  0.00  0.00    -0.279 N 
ATOM      4  H   UNL     1      18.137   3.946  24.767  0.00  0.00    +0.152 HD
ENDROOT
BRANCH   1   5
ATOM      5  O   UNL     1      18.802   6.274  25.344  0.00  0.00    -0.444 OA
BRANCH   5   6
ATOM      6  C   UNL     1      20.083   6.898  25.229  0.00  0.00    +0.292 C 
BRANCH   6   8
ATOM      7  N   UNL     1      20.983   9.180  25.562  0.00  0.00    -0.131 NA
ATOM      8  C   UNL     1      20.080   8.211  25.905  0.00  0.00    +0.120 A 
ATOM      9  C   UNL     1      19.266   8.690  26.907  0.00  0.00    +0.137 A 
ATOM     10  N   UNL     1      19.733   9.950  27.134  0.00  0.00    -0.250 N 
ATOM     11  N   UNL     1      20.760  10.245  26.321  0.00  0.00    -0.065 NA
BRANCH  10  12
ATOM     12  C   UNL     1      19.259  10.920  28.100  0.00  0.00    +0.164 C 
BRANCH  12  13
ATOM     13  C   UNL     1      19.253  10.344  29.507  0.00  0.00    +0.129 C 
BRANCH  13  14
ATOM     14  N   UNL     1      18.462  11.099  30.471  0.00  0.00    -0.298 N 
ATOM     15  H   UNL     1      18.781  11.994  30.811  0.00  0.00    +0.150 HD
ATOM     16  C   UNL     1      17.535  10.424  31.220  0.00  0.00    +0.300 C 
ATOM     17  O   UNL     1      17.276   9.236  31.045  0.00  0.00    -0.253 OA
ATOM     18  N   UNL     1      16.907  11.186  32.156  0.00  0.00    -0.292 N 
ATOM     19  H   UNL     1      17.150  12.151  32.329  0.00  0.00    +0.151 HD
BRANCH  18  20
ATOM     20  C   UNL     1      15.907  10.567  32.994  0.00  0.00    +0.180 C 
BRANCH  20  21
ATOM     21  C   UNL     1      16.399  10.242  34.357  0.00  0.00    +0.122 A 
ATOM     22  O   UNL     1      16.430   8.935  34.757  0.00  0.00    -0.466 OA
ATOM     23  C   UNL     1      16.918   8.926  36.029  0.00  0.00    +0.195 A 
ATOM     24  C   UNL     1      17.198  10.205  36.452  0.00  0.00    +0.041 A 
ATOM     25  C   UNL     1      16.863  11.056  35.374  0.00  0.00    +0.046 A 
ENDBRANCH  20  21
ENDBRANCH  18  20
ENDBRANCH  13  14
ENDBRANCH  12  13
ENDBRANCH  10  12
ENDBRANCH   6   8
ENDBRANCH   5   6
ENDBRANCH   1   5
BRANCH   3  26
ATOM     26  C   UNL     1      17.588   3.911  22.700  0.00  0.00    +0.141 C 
BRANCH  26  27
ATOM     27  C   UNL     1      17.127   2.474  22.916  0.00  0.00    +0.163 C 
BRANCH  27  28
ATOM     28  O   UNL     1      17.744   1.609  21.949  0.00  0.00    -0.388 OA
ATOM     29  H   UNL     1      18.214   0.905  22.402  0.00  0.00    +0.210 HD
ENDBRANCH  27  28
BRANCH  27  30
ATOM     30  C   UNL     1      17.474   2.033  24.349  0.00  0.00    +0.175 C 
BRANCH  30  31
ATOM     31  C   UNL     1      17.874   0.552  24.417  0.00  0.00    +0.176 C 
ATOM     32  O   UNL     1      16.705  -0.243  24.077  0.00  0.00    -0.332 OA
ATOM     33  C   UNL     1      16.926  -1.690  23.987  0.00  0.00    +0.277 C 
ATOM     34  C   UNL     1      17.559  -2.223  25.295  0.00  0.00    +0.110 C 
ATOM     35  C   UNL     1      18.788  -1.388  25.714  0.00  0.00    +0.143 C 
ATOM     36  C   UNL     1      18.446   0.101  25.773  0.00  0.00    +0.133 C 
BRANCH  36  37
ATOM     37  N   UNL     1      19.646   0.893  26.088  0.00  0.00    -0.308 N 
ATOM     38  H   UNL     1      20.440   0.813  25.469  0.00  0.00    +0.149 HD
ATOM     39  C   UNL     1      19.753   1.710  27.140  0.00  0.00    +0.210 C 
ATOM     40  C   UNL     1      18.535   1.789  28.079  0.00  0.00    +0.109 C 
ATOM     41  O   UNL     1      20.766   2.372  27.371  0.00  0.00    -0.276 OA
ENDBRANCH  36  37
BRANCH  33  42
ATOM     42  C   UNL     1      17.844  -2.029  22.794  0.00  0.00    +0.414 C 
ATOM     43  O   UNL     1      17.985  -1.227  21.872  0.00  0.00    -0.240 OA
ATOM     44  O   UNL     1      18.443  -3.104  22.754  0.00  0.00    -0.240 OA
ENDBRANCH  33  42
BRANCH  35  45
ATOM     45  O   UNL     1      19.247  -1.817  26.997  0.00  0.00    -0.390 OA
ATOM     46  H   UNL     1      19.484  -1.051  27.525  0.00  0.00    +0.210 HD
ENDBRANCH  35  45
BRANCH  33  47
ATOM     47  O   UNL     1      15.637  -2.331  23.808  0.00  0.00    -0.343 OA
ATOM     48  C   UNL     1      15.466  -3.575  24.532  0.00  0.00    +0.198 C 
ENDBRANCH  33  47
ENDBRANCH  30  31
BRANCH  30  49
ATOM     49  O   UNL     1      16.361   2.288  25.229  0.00  0.00    -0.387 OA
ATOM     50  H   UNL     1      16.262   3.235  25.354  0.00  0.00    +0.210 HD
ENDBRANCH  30  49
ENDBRANCH  27  30
ENDBRANCH  26  27
ENDBRANCH   3  26
TORSDOF 18
