REMARK VINA RESULT:    -5.623     21.600     25.290
REMARK INTER + INTRA:         -15.908
REMARK INTER:                 -13.646
REMARK INTRA:                  -2.262
REMARK UNBOUND:                -2.725
REMARK  Name = lig_assembled_30.pdb
REMARK  27 active torsions:
REMARK  status: ('A' for Active; 'I' for Inactive)
REMARK    1  A    between atoms: _2  and  _9
REMARK    2  A    between atoms: _4  and  _25
REMARK    3  A    between atoms: _5  and  _18
REMARK    4  A    between atoms: _5  and  _19
REMARK    5  A    between atoms: _6  and  _7
REMARK    6  A    between atoms: _6  and  _25
REMARK    7  A    between atoms: _9  and  _10
REMARK    8  A    between atoms: _10  and  _11
REMARK    9  A    between atoms: _11  and  _12
REMARK   10  A    between atoms: _12  and  _13
REMARK   11  A    between atoms: _13  and  _14
REMARK   12  A    between atoms: _14  and  _15
REMARK   13  A    between atoms: _15  and  _16
REMARK   14  A    between atoms: _16  and  _17
REMARK   15  A    between atoms: _17  and  _18
REMARK   16  A    between atoms: _21  and  _41
REMARK   17  A    between atoms: _23  and  _29
REMARK   18  A    between atoms: _24  and  _28
REMARK   19  A    between atoms: _28  and  _29
REMARK   20  A    between atoms: _31  and  _32
REMARK   21  A    between atoms: _33  and  _34
REMARK   22  A    between atoms: _35  and  _37
REMARK   23  A    between atoms: _37  and  _38
REMARK   24  A    between atoms: _37  and  _39
REMARK   25  A    between atoms: _39  and  _40
REMARK   26  A    between atoms: _39  and  _41
REMARK   27  A    between atoms: _42  and  _44
REMARK                            x       y       z     vdW  Elec       q    Type
REMARK                         _______ _______ _______ _____ _____    ______ ____
ROOT
ATOM      1  C   UNL     1      -2.465  11.571  12.846  0.00  0.00    +0.401 C 
ATOM      2  O   UNL     1      -2.364  10.996  11.760  0.00  0.00    -0.226 OA
ATOM      3  N   UNL     1      -2.393  12.894  12.998  0.00  0.00    -0.279 N 
ATOM      4  H   UNL     1      -2.497  13.273  13.929  0.00  0.00    +0.152 HD
ENDROOT
BRANCH   1   5
ATOM      5  O   UNL     1      -2.678  10.793  14.027  0.00  0.00    -0.444 OA
BRANCH   5   6
ATOM      6  C   UNL     1      -3.283   9.546  13.674  0.00  0.00    +0.292 C 
BRANCH   6   8
ATOM      7  N   UNL     1      -3.877   8.775  15.950  0.00  0.00    -0.131 NA
ATOM      8  C   UNL     1      -3.171   8.589  14.791  0.00  0.00    +0.120 A 
ATOM      9  C   UNL     1      -2.419   7.440  14.899  0.00  0.00    +0.137 A 
ATOM     10  N   UNL     1      -2.712   6.977  16.146  0.00  0.00    -0.251 N 
ATOM     11  N   UNL     1      -3.586   7.778  16.777  0.00  0.00    -0.065 NA
BRANCH  10  12
ATOM     12  C   UNL     1      -2.171   5.812  16.811  0.00  0.00    +0.145 C 
BRANCH  12  13
ATOM     13  C   UNL     1      -0.659   5.924  16.977  0.00  0.00    +0.023 C 
BRANCH  13  14
ATOM     14  C   UNL     1      -0.048   4.639  17.531  0.00  0.00    +0.002 C 
BRANCH  14  15
ATOM     15  C   UNL     1      -0.471   4.438  18.986  0.00  0.00    +0.000 C 
BRANCH  15  16
ATOM     16  C   UNL     1       0.385   3.387  19.686  0.00  0.00    +0.000 C 
BRANCH  16  17
ATOM     17  C   UNL     1       1.743   3.969  20.083  0.00  0.00    +0.000 C 
BRANCH  17  18
ATOM     18  C   UNL     1       1.845   4.131  21.597  0.00  0.00    +0.000 C 
BRANCH  18  19
ATOM     19  C   UNL     1       1.625   2.803  22.322  0.00  0.00    +0.001 C 
BRANCH  19  20
ATOM     20  C   UNL     1       2.020   2.926  23.792  0.00  0.00    +0.011 C 
BRANCH  20  21
ATOM     21  C   UNL     1       2.006   4.376  24.267  0.00  0.00    +0.120 C 
BRANCH  21  22
ATOM     22  C   UNL     1       0.717   4.711  24.984  0.00  0.00    +0.305 C 
ATOM     23  O   UNL     1      -0.114   5.521  24.605  0.00  0.00    -0.251 OA
BRANCH  22  24
ATOM     24  O   UNL     1       0.565   4.003  26.126  0.00  0.00    -0.481 OA
ATOM     25  H   UNL     1       0.567   4.554  26.931  0.00  0.00    +0.295 HD
ENDBRANCH  22  24
ENDBRANCH  21  22
ENDBRANCH  20  21
ENDBRANCH  19  20
ENDBRANCH  18  19
ENDBRANCH  17  18
ENDBRANCH  16  17
ENDBRANCH  15  16
ENDBRANCH  14  15
ENDBRANCH  13  14
ENDBRANCH  12  13
ENDBRANCH  10  12
ENDBRANCH   6   8
ENDBRANCH   5   6
ENDBRANCH   1   5
BRANCH   3  26
ATOM     26  C   UNL     1      -2.169  13.830  11.890  0.00  0.00    +0.141 C 
BRANCH  26  27
ATOM     27  C   UNL     1      -0.844  14.572  12.031  0.00  0.00    +0.163 C 
BRANCH  27  28
ATOM     28  O   UNL     1      -0.509  14.720  13.421  0.00  0.00    -0.388 OA
ATOM     29  H   UNL     1      -0.151  15.599  13.572  0.00  0.00    +0.210 HD
ENDBRANCH  27  28
BRANCH  27  30
ATOM     30  C   UNL     1       0.257  13.806  11.279  0.00  0.00    +0.175 C 
BRANCH  30  31
ATOM     31  C   UNL     1       1.015  14.704  10.290  0.00  0.00    +0.176 C 
ATOM     32  O   UNL     1       1.846  15.615  11.061  0.00  0.00    -0.332 OA
ATOM     33  C   UNL     1       2.727  16.486  10.277  0.00  0.00    +0.277 C 
ATOM     34  C   UNL     1       1.911  17.281   9.229  0.00  0.00    +0.110 C 
ATOM     35  C   UNL     1       0.988  16.358   8.406  0.00  0.00    +0.143 C 
ATOM     36  C   UNL     1       0.117  15.496   9.321  0.00  0.00    +0.133 C 
BRANCH  36  37
ATOM     37  N   UNL     1      -0.694  14.560   8.527  0.00  0.00    -0.308 N 
ATOM     38  H   UNL     1      -0.225  13.774   8.100  0.00  0.00    +0.149 HD
ATOM     39  C   UNL     1      -2.011  14.681   8.335  0.00  0.00    +0.210 C 
ATOM     40  C   UNL     1      -2.692  15.904   8.978  0.00  0.00    +0.109 C 
ATOM     41  O   UNL     1      -2.667  13.873   7.677  0.00  0.00    -0.276 OA
ENDBRANCH  36  37
BRANCH  33  42
ATOM     42  C   UNL     1       3.817  15.659   9.563  0.00  0.00    +0.414 C 
ATOM     43  O   UNL     1       4.302  16.057   8.504  0.00  0.00    -0.240 OA
ATOM     44  O   UNL     1       4.211  14.596  10.044  0.00  0.00    -0.240 OA
ENDBRANCH  33  42
BRANCH  35  45
ATOM     45  O   UNL     1       0.147  17.146   7.562  0.00  0.00    -0.390 OA
ATOM     46  H   UNL     1       0.562  17.248   6.702  0.00  0.00    +0.210 HD
ENDBRANCH  35  45
BRANCH  33  47
ATOM     47  O   UNL     1       3.349  17.431  11.186  0.00  0.00    -0.343 OA
ATOM     48  C   UNL     1       2.441  18.385  11.792  0.00  0.00    +0.198 C 
ENDBRANCH  33  47
ENDBRANCH  30  31
BRANCH  30  49
ATOM     49  O   UNL     1      -0.309  12.674  10.588  0.00  0.00    -0.387 OA
ATOM     50  H   UNL     1      -1.238  12.591  10.817  0.00  0.00    +0.210 HD
ENDBRANCH  30  49
ENDBRANCH  27  30
ENDBRANCH  26  27
ENDBRANCH   3  26
TORSDOF 25
