REMARK VINA RESULT:    -6.487      1.958      3.053
REMARK INTER + INTRA:         -15.024
REMARK INTER:                 -11.874
REMARK INTRA:                  -3.150
REMARK UNBOUND:                -2.090
REMARK  Name = lig_assembled_76.pdb
REMARK  21 active torsions:
REMARK  status: ('A' for Active; 'I' for Inactive)
REMARK    1  A    between atoms: _2  and  _9
REMARK    2  A    between atoms: _4  and  _23
REMARK    3  A    between atoms: _6  and  _7
REMARK    4  A    between atoms: _6  and  _23
REMARK    5  A    between atoms: _9  and  _10
REMARK    6  A    between atoms: _10  and  _11
REMARK    7  A    between atoms: _10  and  _18
REMARK    8  A    between atoms: _11  and  _12
REMARK    9  A    between atoms: _12  and  _13
REMARK   10  A    between atoms: _19  and  _39
REMARK   11  A    between atoms: _21  and  _27
REMARK   12  A    between atoms: _22  and  _26
REMARK   13  A    between atoms: _26  and  _27
REMARK   14  A    between atoms: _29  and  _30
REMARK   15  A    between atoms: _31  and  _32
REMARK   16  A    between atoms: _33  and  _35
REMARK   17  A    between atoms: _35  and  _36
REMARK   18  A    between atoms: _35  and  _37
REMARK   19  A    between atoms: _37  and  _38
REMARK   20  A    between atoms: _37  and  _39
REMARK   21  A    between atoms: _40  and  _42
REMARK                            x       y       z     vdW  Elec       q    Type
REMARK                         _______ _______ _______ _____ _____    ______ ____
ROOT
ATOM      1  C   UNL     1       1.736   2.196  34.793  0.00  0.00    +0.141 C 
ENDROOT
BRANCH   1   4
ATOM      2  C   UNL     1       1.594   0.508  32.994  0.00  0.00    +0.401 C 
ATOM      3  O   UNL     1       2.121  -0.385  33.662  0.00  0.00    -0.226 OA
ATOM      4  N   UNL     1       1.380   1.746  33.442  0.00  0.00    -0.279 N 
ATOM      5  H   UNL     1       0.950   2.412  32.815  0.00  0.00    +0.152 HD
BRANCH   2   6
ATOM      6  O   UNL     1       1.182   0.223  31.655  0.00  0.00    -0.444 OA
BRANCH   6   7
ATOM      7  C   UNL     1       0.114   1.099  31.286  0.00  0.00    +0.292 C 
BRANCH   7   9
ATOM      8  N   UNL     1       0.868   3.325  30.498  0.00  0.00    -0.131 NA
ATOM      9  C   UNL     1       0.548   2.020  30.223  0.00  0.00    +0.120 A 
ATOM     10  C   UNL     1       0.695   1.794  28.873  0.00  0.00    +0.137 A 
ATOM     11  N   UNL     1       1.110   2.995  28.386  0.00  0.00    -0.249 N 
ATOM     12  N   UNL     1       1.204   3.916  29.359  0.00  0.00    -0.065 NA
BRANCH  11  13
ATOM     13  C   UNL     1       1.303   3.369  27.003  0.00  0.00    +0.176 C 
BRANCH  13  14
ATOM     14  C   UNL     1       0.032   3.921  26.350  0.00  0.00    +0.136 C 
BRANCH  14  15
ATOM     15  O   UNL     1      -0.656   4.788  27.263  0.00  0.00    -0.390 OA
ATOM     16  H   UNL     1      -0.030   5.448  27.609  0.00  0.00    +0.210 HD
ENDBRANCH  14  15
BRANCH  14  17
ATOM     17  C   UNL     1       0.329   4.733  25.080  0.00  0.00    +0.038 C 
BRANCH  17  18
ATOM     18  C   UNL     1       1.754   4.550  24.559  0.00  0.00    +0.038 C 
BRANCH  18  19
ATOM     19  C   UNL     1       1.782   3.929  23.186  0.00  0.00    -0.047 A 
ATOM     20  C   UNL     1       1.751   4.740  22.043  0.00  0.00    +0.003 A 
ATOM     21  C   UNL     1       1.795   4.169  20.770  0.00  0.00    +0.000 A 
ATOM     22  C   UNL     1       1.863   2.785  20.629  0.00  0.00    +0.000 A 
ATOM     23  C   UNL     1       1.883   1.971  21.761  0.00  0.00    +0.000 A 
ATOM     24  C   UNL     1       1.838   2.539  23.034  0.00  0.00    +0.003 A 
ENDBRANCH  18  19
ENDBRANCH  17  18
ENDBRANCH  14  17
ENDBRANCH  13  14
ENDBRANCH  11  13
ENDBRANCH   7   9
ENDBRANCH   6   7
ENDBRANCH   2   6
ENDBRANCH   1   4
BRANCH   1  25
ATOM     25  C   UNL     1       2.959   3.107  34.786  0.00  0.00    +0.163 C 
BRANCH  25  26
ATOM     26  O   UNL     1       2.624   4.384  35.353  0.00  0.00    -0.388 OA
ATOM     27  H   UNL     1       3.089   5.077  34.879  0.00  0.00    +0.210 HD
ENDBRANCH  25  26
BRANCH  25  28
ATOM     28  C   UNL     1       4.101   2.439  35.571  0.00  0.00    +0.175 C 
BRANCH  28  29
ATOM     29  C   UNL     1       5.475   3.006  35.186  0.00  0.00    +0.176 C 
ATOM     30  O   UNL     1       5.559   4.363  35.702  0.00  0.00    -0.332 OA
ATOM     31  C   UNL     1       6.851   5.032  35.520  0.00  0.00    +0.277 C 
ATOM     32  C   UNL     1       7.265   5.013  34.028  0.00  0.00    +0.110 C 
ATOM     33  C   UNL     1       7.161   3.595  33.426  0.00  0.00    +0.143 C 
ATOM     34  C   UNL     1       5.778   2.993  33.676  0.00  0.00    +0.133 C 
BRANCH  34  35
ATOM     35  N   UNL     1       5.720   1.611  33.175  0.00  0.00    -0.308 N 
ATOM     36  H   UNL     1       6.239   0.905  33.678  0.00  0.00    +0.149 HD
ATOM     37  C   UNL     1       5.025   1.228  32.101  0.00  0.00    +0.210 C 
ATOM     38  C   UNL     1       4.265   2.332  31.342  0.00  0.00    +0.109 C 
ATOM     39  O   UNL     1       4.983   0.060  31.713  0.00  0.00    -0.276 OA
ENDBRANCH  34  35
BRANCH  31  40
ATOM     40  C   UNL     1       7.945   4.349  36.367  0.00  0.00    +0.414 C 
ATOM     41  O   UNL     1       9.106   4.754  36.324  0.00  0.00    -0.240 OA
ATOM     42  O   UNL     1       7.666   3.394  37.093  0.00  0.00    -0.240 OA
ENDBRANCH  31  40
BRANCH  33  43
ATOM     43  O   UNL     1       7.404   3.650  32.020  0.00  0.00    -0.390 OA
ATOM     44  H   UNL     1       8.325   3.867  31.862  0.00  0.00    +0.210 HD
ENDBRANCH  33  43
BRANCH  31  45
ATOM     45  O   UNL     1       6.704   6.414  35.936  0.00  0.00    -0.343 OA
ATOM     46  C   UNL     1       6.650   7.377  34.853  0.00  0.00    +0.198 C 
ENDBRANCH  31  45
ENDBRANCH  28  29
BRANCH  28  47
ATOM     47  O   UNL     1       4.077   1.012  35.365  0.00  0.00    -0.387 OA
ATOM     48  H   UNL     1       3.897   0.825  34.441  0.00  0.00    +0.210 HD
ENDBRANCH  28  47
ENDBRANCH  25  28
ENDBRANCH   1  25
TORSDOF 19
