REMARK VINA RESULT:    -5.789      1.640      3.278
REMARK INTER + INTRA:         -14.145
REMARK INTER:                 -12.527
REMARK INTRA:                  -1.618
REMARK UNBOUND:                -3.450
REMARK  Name = lig_assembled_66.pdb
REMARK  18 active torsions:
REMARK  status: ('A' for Active; 'I' for Inactive)
REMARK    1  A    between atoms: _2  and  _10
REMARK    2  A    between atoms: _5  and  _21
REMARK    3  A    between atoms: _7  and  _8
REMARK    4  A    between atoms: _7  and  _21
REMARK    5  A    between atoms: _10  and  _11
REMARK    6  A    between atoms: _15  and  _16
REMARK    7  A    between atoms: _17  and  _37
REMARK    8  A    between atoms: _19  and  _25
REMARK    9  A    between atoms: _20  and  _24
REMARK   10  A    between atoms: _24  and  _25
REMARK   11  A    between atoms: _27  and  _28
REMARK   12  A    between atoms: _29  and  _30
REMARK   13  A    between atoms: _31  and  _33
REMARK   14  A    between atoms: _33  and  _34
REMARK   15  A    between atoms: _33  and  _35
REMARK   16  A    between atoms: _35  and  _36
REMARK   17  A    between atoms: _35  and  _37
REMARK   18  A    between atoms: _38  and  _40
REMARK                            x       y       z     vdW  Elec       q    Type
REMARK                         _______ _______ _______ _____ _____    ______ ____
ROOT
ATOM      1  C   UNL     1       3.975   3.258  31.819  0.00  0.00    +0.163 C 
ENDROOT
BRANCH   1   2
ATOM      2  O   UNL     1       3.349   4.507  32.156  0.00  0.00    -0.388 OA
ATOM      3  H   UNL     1       3.846   4.936  32.857  0.00  0.00    +0.210 HD
ENDBRANCH   1   2
BRANCH   1   4
ATOM      4  C   UNL     1       4.855   2.754  32.977  0.00  0.00    +0.175 C 
BRANCH   4   5
ATOM      5  C   UNL     1       5.039   3.819  34.068  0.00  0.00    +0.176 C 
ATOM      6  O   UNL     1       6.444   3.836  34.444  0.00  0.00    -0.332 OA
ATOM      7  C   UNL     1       6.830   4.871  35.407  0.00  0.00    +0.277 C 
ATOM      8  C   UNL     1       5.949   4.784  36.678  0.00  0.00    +0.110 C 
ATOM      9  C   UNL     1       4.447   4.732  36.327  0.00  0.00    +0.143 C 
ATOM     10  C   UNL     1       4.158   3.622  35.316  0.00  0.00    +0.133 C 
BRANCH  10  11
ATOM     11  N   UNL     1       2.740   3.638  34.924  0.00  0.00    -0.308 N 
ATOM     12  H   UNL     1       2.383   4.472  34.480  0.00  0.00    +0.149 HD
ATOM     13  C   UNL     1       1.894   2.623  35.118  0.00  0.00    +0.210 C 
ATOM     14  C   UNL     1       2.462   1.376  35.821  0.00  0.00    +0.109 C 
ATOM     15  O   UNL     1       0.714   2.659  34.766  0.00  0.00    -0.276 OA
ENDBRANCH  10  11
BRANCH   7  16
ATOM     16  C   UNL     1       6.697   6.276  34.782  0.00  0.00    +0.414 C 
ATOM     17  O   UNL     1       7.044   6.473  33.619  0.00  0.00    -0.240 OA
ATOM     18  O   UNL     1       6.242   7.211  35.442  0.00  0.00    -0.240 OA
ENDBRANCH   7  16
BRANCH   7  19
ATOM     19  O   UNL     1       8.210   4.636  35.790  0.00  0.00    -0.343 OA
ATOM     20  C   UNL     1       8.835   3.493  35.153  0.00  0.00    +0.198 C 
ENDBRANCH   7  19
BRANCH   9  21
ATOM     21  O   UNL     1       3.684   4.500  37.512  0.00  0.00    -0.390 OA
ATOM     22  H   UNL     1       2.819   4.157  37.274  0.00  0.00    +0.210 HD
ENDBRANCH   9  21
ENDBRANCH   4   5
BRANCH   4  23
ATOM     23  O   UNL     1       6.138   2.328  32.477  0.00  0.00    -0.387 OA
ATOM     24  H   UNL     1       6.478   1.620  33.028  0.00  0.00    +0.210 HD
ENDBRANCH   4  23
ENDBRANCH   1   4
BRANCH   1  25
ATOM     25  C   UNL     1       2.913   2.213  31.494  0.00  0.00    +0.141 C 
BRANCH  25  28
ATOM     26  C   UNL     1       1.882   3.017  29.397  0.00  0.00    +0.401 C 
ATOM     27  O   UNL     1       1.320   3.976  29.931  0.00  0.00    -0.226 OA
ATOM     28  N   UNL     1       2.641   2.138  30.053  0.00  0.00    -0.279 N 
ATOM     29  H   UNL     1       3.053   1.379  29.530  0.00  0.00    +0.152 HD
BRANCH  26  30
ATOM     30  O   UNL     1       1.721   2.812  27.992  0.00  0.00    -0.444 OA
BRANCH  30  31
ATOM     31  C   UNL     1       0.413   3.231  27.594  0.00  0.00    +0.292 C 
BRANCH  31  33
ATOM     32  N   UNL     1      -0.380   4.995  26.045  0.00  0.00    -0.131 NA
ATOM     33  C   UNL     1       0.472   3.956  26.310  0.00  0.00    +0.120 A 
ATOM     34  C   UNL     1       1.327   3.793  25.243  0.00  0.00    +0.137 A 
ATOM     35  N   UNL     1       0.983   4.799  24.387  0.00  0.00    -0.247 N 
ATOM     36  N   UNL     1      -0.057   5.507  24.865  0.00  0.00    -0.065 NA
BRANCH  35  37
ATOM     37  C   UNL     1       1.745   5.292  23.254  0.00  0.00    +0.180 C 
BRANCH  37  38
ATOM     38  C   UNL     1       1.224   4.804  21.927  0.00  0.00    -0.025 A 
ATOM     39  C   UNL     1      -0.067   5.149  21.502  0.00  0.00    +0.005 A 
ATOM     40  C   UNL     1      -0.527   4.771  20.238  0.00  0.00    +0.002 A 
ATOM     41  C   UNL     1       0.292   4.026  19.390  0.00  0.00    +0.019 A 
ATOM     42  C   UNL     1       1.569   3.643  19.812  0.00  0.00    +0.052 A 
ATOM     43  C   UNL     1       2.033   4.032  21.076  0.00  0.00    +0.024 A 
BRANCH  42  44
ATOM     44  C   UNL     1       2.407   2.863  18.949  0.00  0.00    +0.099 C 
ATOM     45  N   UNL     1       3.079   2.227  18.248  0.00  0.00    -0.191 NA
ENDBRANCH  42  44
ENDBRANCH  37  38
ENDBRANCH  35  37
ENDBRANCH  31  33
ENDBRANCH  30  31
ENDBRANCH  26  30
ENDBRANCH  25  28
ENDBRANCH   1  25
TORSDOF 16
