REMARK VINA RESULT:    -6.416      1.684      2.195
REMARK INTER + INTRA:         -14.077
REMARK INTER:                 -12.419
REMARK INTRA:                  -1.658
REMARK UNBOUND:                -2.597
REMARK  Name = lig_assembled_89.pdb
REMARK  19 active torsions:
REMARK  status: ('A' for Active; 'I' for Inactive)
REMARK    1  A    between atoms: _2  and  _12
REMARK    2  A    between atoms: _5  and  _20
REMARK    3  A    between atoms: _7  and  _29
REMARK    4  A    between atoms: _9  and  _10
REMARK    5  A    between atoms: _9  and  _29
REMARK    6  A    between atoms: _20  and  _21
REMARK    7  A    between atoms: _20  and  _22
REMARK    8  A    between atoms: _25  and  _45
REMARK    9  A    between atoms: _27  and  _33
REMARK   10  A    between atoms: _28  and  _32
REMARK   11  A    between atoms: _32  and  _33
REMARK   12  A    between atoms: _35  and  _36
REMARK   13  A    between atoms: _37  and  _38
REMARK   14  A    between atoms: _39  and  _41
REMARK   15  A    between atoms: _41  and  _42
REMARK   16  A    between atoms: _41  and  _43
REMARK   17  A    between atoms: _43  and  _44
REMARK   18  A    between atoms: _43  and  _45
REMARK   19  A    between atoms: _46  and  _48
REMARK                            x       y       z     vdW  Elec       q    Type
REMARK                         _______ _______ _______ _____ _____    ______ ____
ROOT
ATOM      1  C   UNL     1       2.327   1.523  32.085  0.00  0.00    +0.401 C 
ATOM      2  O   UNL     1       2.189   1.403  33.304  0.00  0.00    -0.226 OA
ATOM      3  N   UNL     1       3.504   1.699  31.482  0.00  0.00    -0.279 N 
ATOM      4  H   UNL     1       3.517   1.778  30.475  0.00  0.00    +0.152 HD
ENDROOT
BRANCH   3   5
ATOM      5  C   UNL     1       4.782   1.786  32.200  0.00  0.00    +0.141 C 
BRANCH   5   6
ATOM      6  C   UNL     1       5.149   3.228  32.534  0.00  0.00    +0.163 C 
BRANCH   6   7
ATOM      7  O   UNL     1       4.188   3.781  33.448  0.00  0.00    -0.388 OA
ATOM      8  H   UNL     1       4.417   4.694  33.640  0.00  0.00    +0.210 HD
ENDBRANCH   6   7
BRANCH   6   9
ATOM      9  C   UNL     1       6.566   3.272  33.133  0.00  0.00    +0.175 C 
BRANCH   9  10
ATOM     10  C   UNL     1       6.604   4.022  34.472  0.00  0.00    +0.176 C 
ATOM     11  O   UNL     1       6.455   5.442  34.194  0.00  0.00    -0.332 OA
ATOM     12  C   UNL     1       6.363   6.312  35.370  0.00  0.00    +0.277 C 
ATOM     13  C   UNL     1       7.575   6.087  36.307  0.00  0.00    +0.110 C 
ATOM     14  C   UNL     1       7.793   4.588  36.606  0.00  0.00    +0.143 C 
ATOM     15  C   UNL     1       7.872   3.776  35.312  0.00  0.00    +0.133 C 
BRANCH  15  16
ATOM     16  N   UNL     1       7.992   2.341  35.611  0.00  0.00    -0.308 N 
ATOM     17  H   UNL     1       7.201   1.880  36.038  0.00  0.00    +0.149 HD
ATOM     18  C   UNL     1       9.079   1.607  35.356  0.00  0.00    +0.210 C 
ATOM     19  C   UNL     1      10.277   2.345  34.730  0.00  0.00    +0.109 C 
ATOM     20  O   UNL     1       9.146   0.403  35.605  0.00  0.00    -0.276 OA
ENDBRANCH  15  16
BRANCH  12  21
ATOM     21  C   UNL     1       5.056   6.046  36.146  0.00  0.00    +0.414 C 
ATOM     22  O   UNL     1       5.006   6.235  37.361  0.00  0.00    -0.240 OA
ATOM     23  O   UNL     1       4.052   5.643  35.558  0.00  0.00    -0.240 OA
ENDBRANCH  12  21
BRANCH  14  24
ATOM     24  O   UNL     1       9.004   4.416  37.344  0.00  0.00    -0.390 OA
ATOM     25  H   UNL     1       9.382   3.556  37.143  0.00  0.00    +0.210 HD
ENDBRANCH  14  24
BRANCH  12  26
ATOM     26  O   UNL     1       6.388   7.689  34.913  0.00  0.00    -0.343 OA
ATOM     27  C   UNL     1       7.663   8.136  34.388  0.00  0.00    +0.198 C 
ENDBRANCH  12  26
ENDBRANCH   9  10
BRANCH   9  28
ATOM     28  O   UNL     1       7.481   3.877  32.198  0.00  0.00    -0.387 OA
ATOM     29  H   UNL     1       7.742   3.228  31.540  0.00  0.00    +0.210 HD
ENDBRANCH   9  28
ENDBRANCH   6   9
ENDBRANCH   5   6
ENDBRANCH   3   5
BRANCH   1  30
ATOM     30  O   UNL     1       1.171   1.469  31.246  0.00  0.00    -0.444 OA
BRANCH  30  31
ATOM     31  C   UNL     1       0.555   2.759  31.196  0.00  0.00    +0.292 C 
BRANCH  31  33
ATOM     32  N   UNL     1      -0.544   4.118  29.458  0.00  0.00    -0.131 NA
ATOM     33  C   UNL     1       0.401   3.196  29.798  0.00  0.00    +0.121 A 
ATOM     34  C   UNL     1       1.102   2.837  28.673  0.00  0.00    +0.145 A 
ATOM     35  N   UNL     1       0.562   3.595  27.651  0.00  0.00    -0.199 N 
ATOM     36  N   UNL     1      -0.433   4.359  28.159  0.00  0.00    -0.059 NA
BRANCH  35  37
ATOM     37  C   UNL     1       1.038   3.643  26.308  0.00  0.00    +0.186 A 
ATOM     38  C   UNL     1       0.332   3.651  25.122  0.00  0.00    +0.158 A 
ATOM     39  C   UNL     1      -1.053   3.490  24.805  0.00  0.00    +0.280 A 
ATOM     40  O   UNL     1      -1.845   2.962  25.575  0.00  0.00    -0.265 OA
ATOM     41  N   UNL     1      -1.436   3.952  23.530  0.00  0.00    -0.302 N 
ATOM     42  C   UNL     1      -0.444   4.122  22.491  0.00  0.00    +0.069 A 
ATOM     43  C   UNL     1      -0.783   4.307  21.143  0.00  0.00    +0.028 A 
ATOM     44  C   UNL     1       0.206   4.417  20.155  0.00  0.00    +0.002 A 
ATOM     45  C   UNL     1       1.553   4.355  20.492  0.00  0.00    +0.002 A 
ATOM     46  C   UNL     1       1.925   4.186  21.822  0.00  0.00    +0.028 A 
ATOM     47  C   UNL     1       0.932   4.062  22.805  0.00  0.00    +0.072 A 
ATOM     48  N   UNL     1       1.273   3.881  24.155  0.00  0.00    -0.291 N 
ATOM     49  C   UNL     1       2.499   3.889  24.770  0.00  0.00    +0.207 A 
ATOM     50  N   UNL     1       2.395   3.759  26.075  0.00  0.00    -0.216 NA
BRANCH  41  51
ATOM     51  C   UNL     1      -2.884   4.052  23.234  0.00  0.00    +0.085 C 
ATOM     52  C   UNL     1      -3.385   3.001  22.224  0.00  0.00    +0.030 C 
ATOM     53  C   UNL     1      -3.276   5.458  22.782  0.00  0.00    +0.030 C 
ENDBRANCH  41  51
ENDBRANCH  35  37
ENDBRANCH  31  33
ENDBRANCH  30  31
ENDBRANCH   1  30
TORSDOF 15
