REMARK VINA RESULT:    -5.963     10.469     13.982
REMARK INTER + INTRA:         -13.096
REMARK INTER:                 -10.797
REMARK INTRA:                  -2.300
REMARK UNBOUND:                -2.078
REMARK  Name = lig_assembled_14.pdb
REMARK  18 active torsions:
REMARK  status: ('A' for Active; 'I' for Inactive)
REMARK    1  A    between atoms: _2  and  _10
REMARK    2  A    between atoms: _3  and  _11
REMARK    3  A    between atoms: _5  and  _19
REMARK    4  A    between atoms: _7  and  _8
REMARK    5  A    between atoms: _7  and  _19
REMARK    6  A    between atoms: _10  and  _11
REMARK    7  A    between atoms: _15  and  _35
REMARK    8  A    between atoms: _17  and  _23
REMARK    9  A    between atoms: _18  and  _22
REMARK   10  A    between atoms: _22  and  _23
REMARK   11  A    between atoms: _25  and  _26
REMARK   12  A    between atoms: _27  and  _28
REMARK   13  A    between atoms: _29  and  _31
REMARK   14  A    between atoms: _31  and  _32
REMARK   15  A    between atoms: _31  and  _33
REMARK   16  A    between atoms: _33  and  _34
REMARK   17  A    between atoms: _33  and  _35
REMARK   18  A    between atoms: _36  and  _38
REMARK                            x       y       z     vdW  Elec       q    Type
REMARK                         _______ _______ _______ _____ _____    ______ ____
ROOT
ATOM      1  C   UNL     1       9.831   3.012  34.988  0.00  0.00    +0.163 C 
ENDROOT
BRANCH   1   2
ATOM      2  O   UNL     1       9.713   2.088  33.894  0.00  0.00    -0.388 OA
ATOM      3  H   UNL     1      10.418   1.438  33.946  0.00  0.00    +0.210 HD
ENDBRANCH   1   2
BRANCH   1   4
ATOM      4  C   UNL     1       8.506   3.119  35.763  0.00  0.00    +0.175 C 
BRANCH   4   5
ATOM      5  C   UNL     1       7.691   4.352  35.345  0.00  0.00    +0.176 C 
ATOM      6  O   UNL     1       7.394   5.119  36.544  0.00  0.00    -0.332 OA
ATOM      7  C   UNL     1       6.706   6.395  36.326  0.00  0.00    +0.277 C 
ATOM      8  C   UNL     1       5.409   6.178  35.510  0.00  0.00    +0.110 C 
ATOM      9  C   UNL     1       5.668   5.339  34.241  0.00  0.00    +0.143 C 
ATOM     10  C   UNL     1       6.390   4.036  34.583  0.00  0.00    +0.133 C 
BRANCH  10  11
ATOM     11  N   UNL     1       6.709   3.287  33.357  0.00  0.00    -0.308 N 
ATOM     12  H   UNL     1       7.314   3.728  32.679  0.00  0.00    +0.149 HD
ATOM     13  C   UNL     1       6.252   2.062  33.083  0.00  0.00    +0.210 C 
ATOM     14  C   UNL     1       5.312   1.428  34.125  0.00  0.00    +0.109 C 
ATOM     15  O   UNL     1       6.548   1.452  32.055  0.00  0.00    -0.276 OA
ENDBRANCH  10  11
BRANCH   7  16
ATOM     16  C   UNL     1       7.622   7.390  35.584  0.00  0.00    +0.414 C 
ATOM     17  O   UNL     1       7.169   8.100  34.687  0.00  0.00    -0.240 OA
ATOM     18  O   UNL     1       8.814   7.484  35.882  0.00  0.00    -0.240 OA
ENDBRANCH   7  16
BRANCH   9  19
ATOM     19  O   UNL     1       4.428   5.036  33.602  0.00  0.00    -0.390 OA
ATOM     20  H   UNL     1       3.856   4.570  34.216  0.00  0.00    +0.210 HD
ENDBRANCH   9  19
BRANCH   7  21
ATOM     21  O   UNL     1       6.345   6.938  37.623  0.00  0.00    -0.343 OA
ATOM     22  C   UNL     1       7.152   6.464  38.731  0.00  0.00    +0.198 C 
ENDBRANCH   7  21
ENDBRANCH   4   5
BRANCH   4  23
ATOM     23  O   UNL     1       8.762   3.150  37.181  0.00  0.00    -0.387 OA
ATOM     24  H   UNL     1       8.154   2.557  37.629  0.00  0.00    +0.210 HD
ENDBRANCH   4  23
ENDBRANCH   1   4
BRANCH   1  25
ATOM     25  C   UNL     1      10.939   2.562  35.934  0.00  0.00    +0.141 C 
BRANCH  25  28
ATOM     26  C   UNL     1      11.960   4.096  37.580  0.00  0.00    +0.401 C 
ATOM     27  O   UNL     1      11.372   3.603  38.545  0.00  0.00    -0.226 OA
ATOM     28  N   UNL     1      11.813   3.676  36.323  0.00  0.00    -0.279 N 
ATOM     29  H   UNL     1      12.332   4.151  35.598  0.00  0.00    +0.152 HD
BRANCH  26  30
ATOM     30  O   UNL     1      12.857   5.188  37.798  0.00  0.00    -0.444 OA
BRANCH  30  31
ATOM     31  C   UNL     1      14.199   4.763  37.543  0.00  0.00    +0.292 C 
BRANCH  31  33
ATOM     32  N   UNL     1      14.311   5.006  35.083  0.00  0.00    -0.131 NA
ATOM     33  C   UNL     1      14.722   5.411  36.326  0.00  0.00    +0.120 A 
ATOM     34  C   UNL     1      15.637   6.431  36.189  0.00  0.00    +0.137 A 
ATOM     35  N   UNL     1      15.748   6.589  34.841  0.00  0.00    -0.250 N 
ATOM     36  N   UNL     1      14.944   5.738  34.179  0.00  0.00    -0.065 NA
BRANCH  35  37
ATOM     37  C   UNL     1      16.627   7.478  34.113  0.00  0.00    +0.160 C 
BRANCH  37  38
ATOM     38  C   UNL     1      16.107   7.766  32.700  0.00  0.00    +0.107 C 
BRANCH  38  39
ATOM     39  N   UNL     1      16.320   9.162  32.282  0.00  0.00    -0.301 NA
ATOM     40  C   UNL     1      15.650  10.133  33.153  0.00  0.00    +0.084 C 
ATOM     41  C   UNL     1      16.340  11.432  32.788  0.00  0.00    +0.017 C 
ATOM     42  C   UNL     1      17.786  11.025  32.572  0.00  0.00    +0.017 C 
ATOM     43  C   UNL     1      17.745   9.525  32.299  0.00  0.00    +0.084 C 
ENDBRANCH  38  39
ENDBRANCH  37  38
ENDBRANCH  35  37
ENDBRANCH  31  33
ENDBRANCH  30  31
ENDBRANCH  26  30
ENDBRANCH  25  28
ENDBRANCH   1  25
TORSDOF 16
