REMARK VINA RESULT:    -6.039     13.508     17.179
REMARK INTER + INTRA:         -14.106
REMARK INTER:                 -11.466
REMARK INTRA:                  -2.640
REMARK UNBOUND:                -2.243
REMARK  Name = lig_assembled_31.pdb
REMARK  20 active torsions:
REMARK  status: ('A' for Active; 'I' for Inactive)
REMARK    1  A    between atoms: _2  and  _11
REMARK    2  A    between atoms: _3  and  _12
REMARK    3  A    between atoms: _4  and  _14
REMARK    4  A    between atoms: _6  and  _24
REMARK    5  A    between atoms: _8  and  _9
REMARK    6  A    between atoms: _8  and  _24
REMARK    7  A    between atoms: _11  and  _12
REMARK    8  A    between atoms: _14  and  _15
REMARK    9  A    between atoms: _20  and  _40
REMARK   10  A    between atoms: _22  and  _28
REMARK   11  A    between atoms: _23  and  _27
REMARK   12  A    between atoms: _27  and  _28
REMARK   13  A    between atoms: _30  and  _31
REMARK   14  A    between atoms: _32  and  _33
REMARK   15  A    between atoms: _34  and  _36
REMARK   16  A    between atoms: _36  and  _37
REMARK   17  A    between atoms: _36  and  _38
REMARK   18  A    between atoms: _38  and  _39
REMARK   19  A    between atoms: _38  and  _40
REMARK   20  A    between atoms: _41  and  _43
REMARK                            x       y       z     vdW  Elec       q    Type
REMARK                         _______ _______ _______ _____ _____    ______ ____
ROOT
ATOM      1  C   UNL     1       6.819  -0.505  32.847  0.00  0.00    +0.401 C 
ATOM      2  O   UNL     1       6.906  -1.095  33.927  0.00  0.00    -0.226 OA
ATOM      3  N   UNL     1       7.530   0.578  32.530  0.00  0.00    -0.279 N 
ATOM      4  H   UNL     1       7.396   0.986  31.616  0.00  0.00    +0.152 HD
ENDROOT
BRANCH   1   5
ATOM      5  O   UNL     1       5.911  -0.997  31.858  0.00  0.00    -0.444 OA
BRANCH   5   6
ATOM      6  C   UNL     1       6.000  -2.423  31.795  0.00  0.00    +0.292 C 
BRANCH   6   8
ATOM      7  N   UNL     1       5.767  -3.887  29.813  0.00  0.00    -0.131 NA
ATOM      8  C   UNL     1       6.408  -2.855  30.443  0.00  0.00    +0.120 A 
ATOM      9  C   UNL     1       7.401  -2.373  29.621  0.00  0.00    +0.137 A 
ATOM     10  N   UNL     1       7.318  -3.161  28.511  0.00  0.00    -0.250 N 
ATOM     11  N   UNL     1       6.332  -4.065  28.626  0.00  0.00    -0.065 NA
BRANCH  10  12
ATOM     12  C   UNL     1       8.137  -3.114  27.317  0.00  0.00    +0.164 C 
BRANCH  12  13
ATOM     13  C   UNL     1       7.413  -2.417  26.175  0.00  0.00    +0.129 C 
BRANCH  13  14
ATOM     14  N   UNL     1       6.049  -2.006  26.480  0.00  0.00    -0.298 N 
ATOM     15  H   UNL     1       5.634  -2.219  27.376  0.00  0.00    +0.150 HD
ATOM     16  C   UNL     1       5.206  -1.728  25.436  0.00  0.00    +0.300 C 
ATOM     17  O   UNL     1       5.580  -1.713  24.266  0.00  0.00    -0.253 OA
ATOM     18  N   UNL     1       3.929  -1.441  25.806  0.00  0.00    -0.292 N 
ATOM     19  H   UNL     1       3.612  -1.494  26.764  0.00  0.00    +0.151 HD
BRANCH  18  20
ATOM     20  C   UNL     1       2.965  -1.127  24.778  0.00  0.00    +0.180 C 
BRANCH  20  21
ATOM     21  C   UNL     1       2.562   0.302  24.765  0.00  0.00    +0.122 A 
ATOM     22  O   UNL     1       1.509   0.702  25.539  0.00  0.00    -0.466 OA
ATOM     23  C   UNL     1       1.362   2.042  25.339  0.00  0.00    +0.195 A 
ATOM     24  C   UNL     1       2.300   2.507  24.447  0.00  0.00    +0.041 A 
ATOM     25  C   UNL     1       3.076   1.385  24.075  0.00  0.00    +0.046 A 
ENDBRANCH  20  21
ENDBRANCH  18  20
ENDBRANCH  13  14
ENDBRANCH  12  13
ENDBRANCH  10  12
ENDBRANCH   6   8
ENDBRANCH   5   6
ENDBRANCH   1   5
BRANCH   3  26
ATOM     26  C   UNL     1       8.496   1.212  33.436  0.00  0.00    +0.141 C 
BRANCH  26  27
ATOM     27  C   UNL     1       7.872   2.363  34.218  0.00  0.00    +0.163 C 
BRANCH  27  28
ATOM     28  O   UNL     1       8.584   2.563  35.450  0.00  0.00    -0.388 OA
ATOM     29  H   UNL     1       8.276   1.932  36.105  0.00  0.00    +0.210 HD
ENDBRANCH  27  28
BRANCH  27  30
ATOM     30  C   UNL     1       7.892   3.638  33.358  0.00  0.00    +0.175 C 
BRANCH  30  31
ATOM     31  C   UNL     1       7.024   4.754  33.959  0.00  0.00    +0.176 C 
ATOM     32  O   UNL     1       7.752   5.333  35.077  0.00  0.00    -0.332 OA
ATOM     33  C   UNL     1       7.119   6.492  35.713  0.00  0.00    +0.277 C 
ATOM     34  C   UNL     1       5.675   6.147  36.152  0.00  0.00    +0.110 C 
ATOM     35  C   UNL     1       4.871   5.499  35.005  0.00  0.00    +0.143 C 
ATOM     36  C   UNL     1       5.623   4.306  34.414  0.00  0.00    +0.133 C 
BRANCH  36  37
ATOM     37  N   UNL     1       4.888   3.751  33.267  0.00  0.00    -0.308 N 
ATOM     38  H   UNL     1       4.830   4.312  32.428  0.00  0.00    +0.149 HD
ATOM     39  C   UNL     1       4.292   2.556  33.261  0.00  0.00    +0.210 C 
ATOM     40  C   UNL     1       4.376   1.737  34.563  0.00  0.00    +0.109 C 
ATOM     41  O   UNL     1       3.696   2.110  32.280  0.00  0.00    -0.276 OA
ENDBRANCH  36  37
BRANCH  33  42
ATOM     42  C   UNL     1       7.092   7.698  34.751  0.00  0.00    +0.414 C 
ATOM     43  O   UNL     1       8.143   8.199  34.355  0.00  0.00    -0.240 OA
ATOM     44  O   UNL     1       6.019   8.168  34.370  0.00  0.00    -0.240 OA
ENDBRANCH  33  42
BRANCH  35  45
ATOM     45  O   UNL     1       3.602   5.062  35.493  0.00  0.00    -0.390 OA
ATOM     46  H   UNL     1       2.906   5.395  34.922  0.00  0.00    +0.210 HD
ENDBRANCH  35  45
BRANCH  33  47
ATOM     47  O   UNL     1       7.888   6.830  36.897  0.00  0.00    -0.343 OA
ATOM     48  C   UNL     1       9.073   6.022  37.108  0.00  0.00    +0.198 C 
ENDBRANCH  33  47
ENDBRANCH  30  31
BRANCH  30  49
ATOM     49  O   UNL     1       7.457   3.340  32.017  0.00  0.00    -0.387 OA
ATOM     50  H   UNL     1       8.105   2.776  31.588  0.00  0.00    +0.210 HD
ENDBRANCH  30  49
ENDBRANCH  27  30
ENDBRANCH  26  27
ENDBRANCH   3  26
TORSDOF 18
