REMARK VINA RESULT:    -6.302     11.971     19.688
REMARK INTER + INTRA:         -12.972
REMARK INTER:                 -10.989
REMARK INTRA:                  -1.983
REMARK UNBOUND:                -2.065
REMARK  Name = lig_assembled_49.pdb
REMARK  16 active torsions:
REMARK  status: ('A' for Active; 'I' for Inactive)
REMARK    1  A    between atoms: _2  and  _9
REMARK    2  A    between atoms: _4  and  _17
REMARK    3  A    between atoms: _6  and  _7
REMARK    4  A    between atoms: _6  and  _17
REMARK    5  A    between atoms: _13  and  _33
REMARK    6  A    between atoms: _15  and  _21
REMARK    7  A    between atoms: _16  and  _20
REMARK    8  A    between atoms: _20  and  _21
REMARK    9  A    between atoms: _23  and  _24
REMARK   10  A    between atoms: _25  and  _26
REMARK   11  A    between atoms: _27  and  _29
REMARK   12  A    between atoms: _29  and  _30
REMARK   13  A    between atoms: _29  and  _31
REMARK   14  A    between atoms: _31  and  _32
REMARK   15  A    between atoms: _31  and  _33
REMARK   16  A    between atoms: _34  and  _36
REMARK                            x       y       z     vdW  Elec       q    Type
REMARK                         _______ _______ _______ _____ _____    ______ ____
ROOT
ATOM      1  C   UNL     1      -2.856   9.432  14.092  0.00  0.00    +0.175 C 
ENDROOT
BRANCH   1   2
ATOM      2  C   UNL     1      -3.176  10.594  13.139  0.00  0.00    +0.176 C 
ATOM      3  O   UNL     1      -1.932  11.014  12.514  0.00  0.00    -0.332 OA
ATOM      4  C   UNL     1      -2.059  12.052  11.486  0.00  0.00    +0.277 C 
ATOM      5  C   UNL     1      -2.803  13.286  12.053  0.00  0.00    +0.110 C 
ATOM      6  C   UNL     1      -4.117  12.886  12.756  0.00  0.00    +0.143 C 
ATOM      7  C   UNL     1      -3.870  11.798  13.802  0.00  0.00    +0.133 C 
BRANCH   7   8
ATOM      8  N   UNL     1      -5.140  11.363  14.404  0.00  0.00    -0.308 N 
ATOM      9  H   UNL     1      -5.812  10.904  13.805  0.00  0.00    +0.149 HD
ATOM     10  C   UNL     1      -5.463  11.536  15.688  0.00  0.00    +0.210 C 
ATOM     11  C   UNL     1      -4.428  12.263  16.568  0.00  0.00    +0.109 C 
ATOM     12  O   UNL     1      -6.529  11.148  16.168  0.00  0.00    -0.276 OA
ENDBRANCH   7   8
BRANCH   4  13
ATOM     13  C   UNL     1      -2.817  11.514  10.255  0.00  0.00    +0.414 C 
ATOM     14  O   UNL     1      -2.671  10.345   9.899  0.00  0.00    -0.240 OA
ATOM     15  O   UNL     1      -3.574  12.247   9.618  0.00  0.00    -0.240 OA
ENDBRANCH   4  13
BRANCH   6  16
ATOM     16  O   UNL     1      -4.691  14.028  13.392  0.00  0.00    -0.390 OA
ATOM     17  H   UNL     1      -4.504  14.813  12.871  0.00  0.00    +0.210 HD
ENDBRANCH   6  16
BRANCH   4  18
ATOM     18  O   UNL     1      -0.723  12.463  11.096  0.00  0.00    -0.343 OA
ATOM     19  C   UNL     1      -0.369  13.821  11.461  0.00  0.00    +0.198 C 
ENDBRANCH   4  18
ENDBRANCH   1   2
BRANCH   1  20
ATOM     20  O   UNL     1      -2.134   9.917  15.242  0.00  0.00    -0.387 OA
ATOM     21  H   UNL     1      -1.242  10.160  14.981  0.00  0.00    +0.210 HD
ENDBRANCH   1  20
BRANCH   1  22
ATOM     22  C   UNL     1      -2.057   8.316  13.396  0.00  0.00    +0.163 C 
BRANCH  22  23
ATOM     23  O   UNL     1      -2.313   8.306  11.982  0.00  0.00    -0.388 OA
ATOM     24  H   UNL     1      -1.514   8.052  11.514  0.00  0.00    +0.210 HD
ENDBRANCH  22  23
BRANCH  22  25
ATOM     25  C   UNL     1      -2.430   6.968  14.004  0.00  0.00    +0.141 C 
BRANCH  25  28
ATOM     26  C   UNL     1      -1.987   6.578  16.403  0.00  0.00    +0.401 C 
ATOM     27  O   UNL     1      -3.140   6.835  16.755  0.00  0.00    -0.226 OA
ATOM     28  N   UNL     1      -1.566   6.621  15.138  0.00  0.00    -0.279 N 
ATOM     29  H   UNL     1      -0.598   6.402  14.950  0.00  0.00    +0.152 HD
BRANCH  26  30
ATOM     30  O   UNL     1      -1.023   6.213  17.395  0.00  0.00    -0.444 OA
BRANCH  30  31
ATOM     31  C   UNL     1      -1.162   4.824  17.707  0.00  0.00    +0.292 C 
BRANCH  31  33
ATOM     32  N   UNL     1       0.796   3.438  18.309  0.00  0.00    -0.131 NA
ATOM     33  C   UNL     1      -0.112   4.403  18.653  0.00  0.00    +0.120 A 
ATOM     34  C   UNL     1       0.148   4.828  19.936  0.00  0.00    +0.137 A 
ATOM     35  N   UNL     1       1.221   4.080  20.320  0.00  0.00    -0.248 N 
ATOM     36  N   UNL     1       1.609   3.248  19.338  0.00  0.00    -0.065 NA
BRANCH  35  37
ATOM     37  C   UNL     1       1.898   4.095  21.595  0.00  0.00    +0.109 C 
ATOM     38  C   UNL     1       1.390   5.174  22.553  0.00  0.00    +0.027 C 
ATOM     39  C   UNL     1       1.914   4.706  23.900  0.00  0.00    +0.002 C 
ATOM     40  C   UNL     1       1.733   3.194  23.866  0.00  0.00    +0.002 C 
ATOM     41  C   UNL     1       1.787   2.788  22.391  0.00  0.00    +0.027 C 
ENDBRANCH  35  37
ENDBRANCH  31  33
ENDBRANCH  30  31
ENDBRANCH  26  30
ENDBRANCH  25  28
ENDBRANCH  22  25
ENDBRANCH   1  22
TORSDOF 14
