REMARK VINA RESULT:    -5.540     14.189     18.055
REMARK INTER + INTRA:         -12.995
REMARK INTER:                 -10.509
REMARK INTRA:                  -2.487
REMARK UNBOUND:                -2.111
REMARK  Name = lig_assembled_17.pdb
REMARK  22 active torsions:
REMARK  status: ('A' for Active; 'I' for Inactive)
REMARK    1  A    between atoms: _2  and  _10
REMARK    2  A    between atoms: _3  and  _11
REMARK    3  A    between atoms: _3  and  _12
REMARK    4  A    between atoms: _3  and  _14
REMARK    5  A    between atoms: _5  and  _19
REMARK    6  A    between atoms: _6  and  _14
REMARK    7  A    between atoms: _7  and  _8
REMARK    8  A    between atoms: _7  and  _19
REMARK    9  A    between atoms: _10  and  _11
REMARK   10  A    between atoms: _12  and  _13
REMARK   11  A    between atoms: _15  and  _35
REMARK   12  A    between atoms: _17  and  _23
REMARK   13  A    between atoms: _18  and  _22
REMARK   14  A    between atoms: _22  and  _23
REMARK   15  A    between atoms: _25  and  _26
REMARK   16  A    between atoms: _27  and  _28
REMARK   17  A    between atoms: _29  and  _31
REMARK   18  A    between atoms: _31  and  _32
REMARK   19  A    between atoms: _31  and  _33
REMARK   20  A    between atoms: _33  and  _34
REMARK   21  A    between atoms: _33  and  _35
REMARK   22  A    between atoms: _36  and  _38
REMARK                            x       y       z     vdW  Elec       q    Type
REMARK                         _______ _______ _______ _____ _____    ______ ____
ROOT
ATOM      1  C   UNL     1      17.842   1.505  23.222  0.00  0.00    +0.163 C 
ENDROOT
BRANCH   1   2
ATOM      2  O   UNL     1      17.173   1.182  21.992  0.00  0.00    -0.388 OA
ATOM      3  H   UNL     1      17.443   1.801  21.308  0.00  0.00    +0.210 HD
ENDBRANCH   1   2
BRANCH   1   4
ATOM      4  C   UNL     1      18.901   0.445  23.567  0.00  0.00    +0.175 C 
BRANCH   4   5
ATOM      5  C   UNL     1      18.279  -0.809  24.200  0.00  0.00    +0.176 C 
ATOM      6  O   UNL     1      17.644  -1.576  23.141  0.00  0.00    -0.332 OA
ATOM      7  C   UNL     1      17.083  -2.869  23.544  0.00  0.00    +0.277 C 
ATOM      8  C   UNL     1      16.095  -2.687  24.723  0.00  0.00    +0.110 C 
ATOM      9  C   UNL     1      16.716  -1.849  25.861  0.00  0.00    +0.143 C 
ATOM     10  C   UNL     1      17.271  -0.527  25.330  0.00  0.00    +0.133 C 
BRANCH  10  11
ATOM     11  N   UNL     1      17.936   0.222  26.407  0.00  0.00    -0.308 N 
ATOM     12  H   UNL     1      18.813  -0.135  26.758  0.00  0.00    +0.149 HD
ATOM     13  C   UNL     1      17.456   1.344  26.950  0.00  0.00    +0.210 C 
ATOM     14  C   UNL     1      16.105   1.849  26.410  0.00  0.00    +0.109 C 
ATOM     15  O   UNL     1      18.043   1.959  27.841  0.00  0.00    -0.276 OA
ENDBRANCH  10  11
BRANCH   7  16
ATOM     16  C   UNL     1      18.203  -3.847  23.956  0.00  0.00    +0.414 C 
ATOM     17  O   UNL     1      19.270  -3.862  23.343  0.00  0.00    -0.240 OA
ATOM     18  O   UNL     1      18.040  -4.620  24.901  0.00  0.00    -0.240 OA
ENDBRANCH   7  16
BRANCH   9  19
ATOM     19  O   UNL     1      15.726  -1.579  26.854  0.00  0.00    -0.390 OA
ATOM     20  H   UNL     1      16.153  -1.270  27.657  0.00  0.00    +0.210 HD
ENDBRANCH   9  19
BRANCH   7  21
ATOM     21  O   UNL     1      16.351  -3.413  22.415  0.00  0.00    -0.343 OA
ATOM     22  C   UNL     1      15.250  -4.289  22.763  0.00  0.00    +0.198 C 
ENDBRANCH   7  21
ENDBRANCH   4   5
BRANCH   4  23
ATOM     23  O   UNL     1      19.896   1.004  24.448  0.00  0.00    -0.387 OA
ATOM     24  H   UNL     1      19.796   1.959  24.478  0.00  0.00    +0.210 HD
ENDBRANCH   4  23
ENDBRANCH   1   4
BRANCH   1  25
ATOM     25  C   UNL     1      18.508   2.873  23.110  0.00  0.00    +0.141 C 
BRANCH  25  28
ATOM     26  C   UNL     1      19.097   4.192  25.115  0.00  0.00    +0.401 C 
ATOM     27  O   UNL     1      20.300   3.934  25.047  0.00  0.00    -0.226 OA
ATOM     28  N   UNL     1      18.186   3.734  24.255  0.00  0.00    -0.279 N 
ATOM     29  H   UNL     1      17.220   3.993  24.399  0.00  0.00    +0.152 HD
BRANCH  26  30
ATOM     30  O   UNL     1      18.624   5.029  26.174  0.00  0.00    -0.444 OA
BRANCH  30  31
ATOM     31  C   UNL     1      19.288   6.295  26.115  0.00  0.00    +0.292 C 
BRANCH  31  33
ATOM     32  N   UNL     1      19.139   8.374  27.444  0.00  0.00    -0.131 NA
ATOM     33  C   UNL     1      19.145   7.005  27.399  0.00  0.00    +0.120 A 
ATOM     34  C   UNL     1      18.991   6.510  28.675  0.00  0.00    +0.137 A 
ATOM     35  N   UNL     1      18.877   7.629  29.444  0.00  0.00    -0.250 N 
ATOM     36  N   UNL     1      18.978   8.747  28.705  0.00  0.00    -0.065 NA
BRANCH  35  37
ATOM     37  C   UNL     1      18.630   7.723  30.868  0.00  0.00    +0.160 C 
BRANCH  37  38
ATOM     38  C   UNL     1      18.279   9.165  31.262  0.00  0.00    +0.107 C 
BRANCH  38  39
ATOM     39  N   UNL     1      16.946   9.365  31.882  0.00  0.00    -0.301 NA
BRANCH  39  40
ATOM     40  C   UNL     1      16.692   8.467  33.023  0.00  0.00    +0.081 C 
ATOM     41  C   UNL     1      15.230   8.178  33.349  0.00  0.00    +0.020 C 
ENDBRANCH  39  40
BRANCH  39  42
ATOM     42  C   UNL     1      16.787  10.796  32.216  0.00  0.00    +0.081 C 
ATOM     43  C   UNL     1      17.383  11.212  33.556  0.00  0.00    +0.020 C 
ENDBRANCH  39  42
ENDBRANCH  38  39
ENDBRANCH  37  38
ENDBRANCH  35  37
ENDBRANCH  31  33
ENDBRANCH  30  31
ENDBRANCH  26  30
ENDBRANCH  25  28
ENDBRANCH   1  25
TORSDOF 18
