REMARK VINA RESULT:    -5.559     13.678     18.112
REMARK INTER + INTRA:         -12.498
REMARK INTER:                  -9.939
REMARK INTRA:                  -2.559
REMARK UNBOUND:                -1.902
REMARK  Name = lig_assembled_13.pdb
REMARK  20 active torsions:
REMARK  status: ('A' for Active; 'I' for Inactive)
REMARK    1  A    between atoms: _2  and  _9
REMARK    2  A    between atoms: _4  and  _18
REMARK    3  A    between atoms: _5  and  _11
REMARK    4  A    between atoms: _6  and  _7
REMARK    5  A    between atoms: _6  and  _18
REMARK    6  A    between atoms: _9  and  _10
REMARK    7  A    between atoms: _10  and  _12
REMARK    8  A    between atoms: _11  and  _12
REMARK    9  A    between atoms: _14  and  _34
REMARK   10  A    between atoms: _16  and  _22
REMARK   11  A    between atoms: _17  and  _21
REMARK   12  A    between atoms: _21  and  _22
REMARK   13  A    between atoms: _24  and  _25
REMARK   14  A    between atoms: _26  and  _27
REMARK   15  A    between atoms: _28  and  _30
REMARK   16  A    between atoms: _30  and  _31
REMARK   17  A    between atoms: _30  and  _32
REMARK   18  A    between atoms: _32  and  _33
REMARK   19  A    between atoms: _32  and  _34
REMARK   20  A    between atoms: _35  and  _37
REMARK                            x       y       z     vdW  Elec       q    Type
REMARK                         _______ _______ _______ _____ _____    ______ ____
ROOT
ATOM      1  C   UNL     1      18.455   5.687  24.207  0.00  0.00    +0.163 C 
ENDROOT
BRANCH   1   2
ATOM      2  O   UNL     1      17.523   5.803  23.119  0.00  0.00    -0.388 OA
ATOM      3  H   UNL     1      17.952   6.230  22.374  0.00  0.00    +0.210 HD
ENDBRANCH   1   2
BRANCH   1   4
ATOM      4  C   UNL     1      19.689   4.868  23.789  0.00  0.00    +0.175 C 
BRANCH   4   5
ATOM      5  C   UNL     1      19.436   3.356  23.879  0.00  0.00    +0.176 C 
ATOM      6  O   UNL     1      18.474   3.002  22.848  0.00  0.00    -0.332 OA
ATOM      7  C   UNL     1      18.189   1.570  22.712  0.00  0.00    +0.277 C 
ATOM      8  C   UNL     1      17.743   0.976  24.071  0.00  0.00    +0.110 C 
ATOM      9  C   UNL     1      18.719   1.354  25.205  0.00  0.00    +0.143 C 
ATOM     10  C   UNL     1      18.946   2.865  25.253  0.00  0.00    +0.133 C 
BRANCH  10  11
ATOM     11  N   UNL     1      19.943   3.204  26.281  0.00  0.00    -0.308 N 
ATOM     12  H   UNL     1      20.911   2.984  26.089  0.00  0.00    +0.149 HD
ATOM     13  C   UNL     1      19.654   3.782  27.450  0.00  0.00    +0.210 C 
ATOM     14  C   UNL     1      18.167   4.080  27.722  0.00  0.00    +0.109 C 
ATOM     15  O   UNL     1      20.512   4.067  28.285  0.00  0.00    -0.276 OA
ENDBRANCH  10  11
BRANCH   7  16
ATOM     16  C   UNL     1      19.431   0.811  22.201  0.00  0.00    +0.414 C 
ATOM     17  O   UNL     1      19.635  -0.351  22.551  0.00  0.00    -0.240 OA
ATOM     18  O   UNL     1      20.228   1.359  21.439  0.00  0.00    -0.240 OA
ENDBRANCH   7  16
BRANCH   7  19
ATOM     19  O   UNL     1      17.099   1.417  21.766  0.00  0.00    -0.343 OA
ATOM     20  C   UNL     1      16.828   2.585  20.951  0.00  0.00    +0.198 C 
ENDBRANCH   7  19
BRANCH   9  21
ATOM     21  O   UNL     1      18.192   0.917  26.459  0.00  0.00    -0.390 OA
ATOM     22  H   UNL     1      17.370   0.442  26.314  0.00  0.00    +0.210 HD
ENDBRANCH   9  21
ENDBRANCH   4   5
BRANCH   4  23
ATOM     23  O   UNL     1      20.823   5.232  24.601  0.00  0.00    -0.387 OA
ATOM     24  H   UNL     1      20.981   6.176  24.527  0.00  0.00    +0.210 HD
ENDBRANCH   4  23
ENDBRANCH   1   4
BRANCH   1  25
ATOM     25  C   UNL     1      18.894   7.073  24.667  0.00  0.00    +0.141 C 
BRANCH  25  28
ATOM     26  C   UNL     1      19.645   7.346  27.005  0.00  0.00    +0.401 C 
ATOM     27  O   UNL     1      20.843   7.246  26.731  0.00  0.00    -0.226 OA
ATOM     28  N   UNL     1      18.665   7.271  26.103  0.00  0.00    -0.279 N 
ATOM     29  H   UNL     1      17.712   7.356  26.426  0.00  0.00    +0.152 HD
BRANCH  26  30
ATOM     30  O   UNL     1      19.258   7.552  28.366  0.00  0.00    -0.444 OA
BRANCH  30  31
ATOM     31  C   UNL     1      19.157   8.954  28.628  0.00  0.00    +0.292 C 
BRANCH  31  33
ATOM     32  N   UNL     1      17.820  10.399  30.128  0.00  0.00    -0.131 NA
ATOM     33  C   UNL     1      18.414   9.192  29.879  0.00  0.00    +0.120 A 
ATOM     34  C   UNL     1      18.192   8.351  30.942  0.00  0.00    +0.137 A 
ATOM     35  N   UNL     1      17.515   9.127  31.838  0.00  0.00    -0.241 N 
ATOM     36  N   UNL     1      17.251  10.340  31.327  0.00  0.00    -0.065 NA
BRANCH  35  37
ATOM     37  C   UNL     1      17.003   8.756  33.138  0.00  0.00    +0.265 C 
BRANCH  37  38
ATOM     38  C   UNL     1      15.954   7.685  33.046  0.00  0.00    +0.329 C 
ATOM     39  O   UNL     1      14.878   7.768  32.472  0.00  0.00    -0.249 OA
BRANCH  38  40
ATOM     40  O   UNL     1      16.343   6.617  33.805  0.00  0.00    -0.464 OA
BRANCH  40  41
ATOM     41  C   UNL     1      16.458   6.883  35.211  0.00  0.00    +0.229 C 
ATOM     42  C   UNL     1      15.140   6.505  35.865  0.00  0.00    +0.048 C 
ENDBRANCH  40  41
ENDBRANCH  38  40
ENDBRANCH  37  38
ENDBRANCH  35  37
ENDBRANCH  31  33
ENDBRANCH  30  31
ENDBRANCH  26  30
ENDBRANCH  25  28
ENDBRANCH   1  25
TORSDOF 17
