REMARK VINA RESULT:    -6.535     14.683     16.864
REMARK INTER + INTRA:         -13.374
REMARK INTER:                 -10.990
REMARK INTRA:                  -2.384
REMARK UNBOUND:                -2.065
REMARK  Name = lig_assembled_49.pdb
REMARK  16 active torsions:
REMARK  status: ('A' for Active; 'I' for Inactive)
REMARK    1  A    between atoms: _2  and  _9
REMARK    2  A    between atoms: _4  and  _17
REMARK    3  A    between atoms: _6  and  _7
REMARK    4  A    between atoms: _6  and  _17
REMARK    5  A    between atoms: _13  and  _33
REMARK    6  A    between atoms: _15  and  _21
REMARK    7  A    between atoms: _16  and  _20
REMARK    8  A    between atoms: _20  and  _21
REMARK    9  A    between atoms: _23  and  _24
REMARK   10  A    between atoms: _25  and  _26
REMARK   11  A    between atoms: _27  and  _29
REMARK   12  A    between atoms: _29  and  _30
REMARK   13  A    between atoms: _29  and  _31
REMARK   14  A    between atoms: _31  and  _32
REMARK   15  A    between atoms: _31  and  _33
REMARK   16  A    between atoms: _34  and  _36
REMARK                            x       y       z     vdW  Elec       q    Type
REMARK                         _______ _______ _______ _____ _____    ______ ____
ROOT
ATOM      1  C   UNL     1      18.194   3.188  23.735  0.00  0.00    +0.175 C 
ENDROOT
BRANCH   1   2
ATOM      2  C   UNL     1      18.295   4.081  24.980  0.00  0.00    +0.176 C 
ATOM      3  O   UNL     1      19.564   4.787  24.922  0.00  0.00    -0.332 OA
ATOM      4  C   UNL     1      19.790   5.773  25.983  0.00  0.00    +0.277 C 
ATOM      5  C   UNL     1      19.619   5.118  27.376  0.00  0.00    +0.110 C 
ATOM      6  C   UNL     1      18.297   4.328  27.475  0.00  0.00    +0.143 C 
ATOM      7  C   UNL     1      18.164   3.334  26.321  0.00  0.00    +0.133 C 
BRANCH   7   8
ATOM      8  N   UNL     1      16.863   2.650  26.377  0.00  0.00    -0.308 N 
ATOM      9  H   UNL     1      16.029   3.212  26.278  0.00  0.00    +0.149 HD
ATOM     10  C   UNL     1      16.711   1.334  26.551  0.00  0.00    +0.210 C 
ATOM     11  C   UNL     1      17.999   0.508  26.725  0.00  0.00    +0.109 C 
ATOM     12  O   UNL     1      15.608   0.786  26.579  0.00  0.00    -0.276 OA
ENDBRANCH   7   8
BRANCH   4  13
ATOM     13  C   UNL     1      18.811   6.958  25.847  0.00  0.00    +0.414 C 
ATOM     14  O   UNL     1      18.739   7.808  26.734  0.00  0.00    -0.240 OA
ATOM     15  O   UNL     1      18.093   7.063  24.852  0.00  0.00    -0.240 OA
ENDBRANCH   4  13
BRANCH   6  16
ATOM     16  O   UNL     1      18.251   3.619  28.714  0.00  0.00    -0.390 OA
ATOM     17  H   UNL     1      17.354   3.321  28.880  0.00  0.00    +0.210 HD
ENDBRANCH   6  16
BRANCH   4  18
ATOM     18  O   UNL     1      21.155   6.252  25.868  0.00  0.00    -0.343 OA
ATOM     19  C   UNL     1      21.830   5.886  24.639  0.00  0.00    +0.198 C 
ENDBRANCH   4  18
ENDBRANCH   1   2
BRANCH   1  20
ATOM     20  O   UNL     1      19.480   2.611  23.432  0.00  0.00    -0.387 OA
ATOM     21  H   UNL     1      19.628   1.846  23.993  0.00  0.00    +0.210 HD
ENDBRANCH   1  20
BRANCH   1  22
ATOM     22  C   UNL     1      17.657   3.955  22.514  0.00  0.00    +0.163 C 
BRANCH  22  23
ATOM     23  O   UNL     1      16.996   5.166  22.918  0.00  0.00    -0.388 OA
ATOM     24  H   UNL     1      16.705   5.083  23.829  0.00  0.00    +0.210 HD
ENDBRANCH  22  23
BRANCH  22  25
ATOM     25  C   UNL     1      16.689   3.066  21.740  0.00  0.00    +0.141 C 
BRANCH  25  28
ATOM     26  C   UNL     1      17.941   1.251  20.626  0.00  0.00    +0.401 C 
ATOM     27  O   UNL     1      18.303   1.954  19.679  0.00  0.00    -0.226 OA
ATOM     28  N   UNL     1      17.180   1.687  21.630  0.00  0.00    -0.279 N 
ATOM     29  H   UNL     1      16.927   1.032  22.356  0.00  0.00    +0.152 HD
BRANCH  26  30
ATOM     30  O   UNL     1      18.347  -0.120  20.668  0.00  0.00    -0.444 OA
BRANCH  30  31
ATOM     31  C   UNL     1      18.948  -0.401  21.935  0.00  0.00    +0.292 C 
BRANCH  31  33
ATOM     32  N   UNL     1      18.476  -2.774  22.448  0.00  0.00    -0.131 NA
ATOM     33  C   UNL     1      18.189  -1.450  22.642  0.00  0.00    +0.120 A 
ATOM     34  C   UNL     1      17.147  -1.341  23.536  0.00  0.00    +0.137 A 
ATOM     35  N   UNL     1      16.841  -2.634  23.843  0.00  0.00    -0.248 N 
ATOM     36  N   UNL     1      17.644  -3.491  23.190  0.00  0.00    -0.065 NA
BRANCH  35  37
ATOM     37  C   UNL     1      15.799  -3.110  24.721  0.00  0.00    +0.109 C 
ATOM     38  C   UNL     1      15.677  -4.634  24.767  0.00  0.00    +0.027 C 
ATOM     39  C   UNL     1      14.869  -4.871  26.032  0.00  0.00    +0.002 C 
ATOM     40  C   UNL     1      15.420  -3.854  27.023  0.00  0.00    +0.002 C 
ATOM     41  C   UNL     1      15.960  -2.690  26.188  0.00  0.00    +0.027 C 
ENDBRANCH  35  37
ENDBRANCH  31  33
ENDBRANCH  30  31
ENDBRANCH  26  30
ENDBRANCH  25  28
ENDBRANCH  22  25
ENDBRANCH   1  22
TORSDOF 14
