REMARK VINA RESULT:    -6.061      0.000      0.000
REMARK INTER + INTRA:         -14.260
REMARK INTER:                 -12.510
REMARK INTRA:                  -1.751
REMARK UNBOUND:                -3.239
REMARK  Name = lig_assembled_88.pdb
REMARK  18 active torsions:
REMARK  status: ('A' for Active; 'I' for Inactive)
REMARK    1  A    between atoms: _2  and  _9
REMARK    2  A    between atoms: _4  and  _20
REMARK    3  A    between atoms: _5  and  _15
REMARK    4  A    between atoms: _6  and  _7
REMARK    5  A    between atoms: _6  and  _20
REMARK    6  A    between atoms: _9  and  _10
REMARK    7  A    between atoms: _16  and  _36
REMARK    8  A    between atoms: _18  and  _24
REMARK    9  A    between atoms: _19  and  _23
REMARK   10  A    between atoms: _23  and  _24
REMARK   11  A    between atoms: _26  and  _27
REMARK   12  A    between atoms: _28  and  _29
REMARK   13  A    between atoms: _30  and  _32
REMARK   14  A    between atoms: _32  and  _33
REMARK   15  A    between atoms: _32  and  _34
REMARK   16  A    between atoms: _34  and  _35
REMARK   17  A    between atoms: _34  and  _36
REMARK   18  A    between atoms: _37  and  _39
REMARK                            x       y       z     vdW  Elec       q    Type
REMARK                         _______ _______ _______ _____ _____    ______ ____
ROOT
ATOM      1  C   UNL     1       2.801   3.861  32.611  0.00  0.00    +0.163 C 
ENDROOT
BRANCH   1   2
ATOM      2  O   UNL     1       2.062   3.978  33.837  0.00  0.00    -0.388 OA
ATOM      3  H   UNL     1       1.358   3.325  33.852  0.00  0.00    +0.210 HD
ENDBRANCH   1   2
BRANCH   1   4
ATOM      4  C   UNL     1       4.165   3.193  32.852  0.00  0.00    +0.175 C 
BRANCH   4   5
ATOM      5  C   UNL     1       4.894   3.789  34.066  0.00  0.00    +0.176 C 
ATOM      6  O   UNL     1       4.982   5.227  33.873  0.00  0.00    -0.332 OA
ATOM      7  C   UNL     1       5.558   5.983  34.989  0.00  0.00    +0.277 C 
ATOM      8  C   UNL     1       6.950   5.419  35.363  0.00  0.00    +0.110 C 
ATOM      9  C   UNL     1       6.913   3.887  35.548  0.00  0.00    +0.143 C 
ATOM     10  C   UNL     1       6.293   3.202  34.330  0.00  0.00    +0.133 C 
BRANCH  10  11
ATOM     11  N   UNL     1       6.184   1.752  34.554  0.00  0.00    -0.308 N 
ATOM     12  H   UNL     1       5.498   1.428  35.222  0.00  0.00    +0.149 HD
ATOM     13  C   UNL     1       6.931   0.836  33.933  0.00  0.00    +0.210 C 
ATOM     14  C   UNL     1       7.985   1.363  32.940  0.00  0.00    +0.109 C 
ATOM     15  O   UNL     1       6.808  -0.373  34.130  0.00  0.00    -0.276 OA
ENDBRANCH  10  11
BRANCH   7  16
ATOM     16  C   UNL     1       4.631   5.929  36.222  0.00  0.00    +0.414 C 
ATOM     17  O   UNL     1       5.056   6.247  37.332  0.00  0.00    -0.240 OA
ATOM     18  O   UNL     1       3.460   5.566  36.107  0.00  0.00    -0.240 OA
ENDBRANCH   7  16
BRANCH   7  19
ATOM     19  O   UNL     1       5.722   7.360  34.562  0.00  0.00    -0.343 OA
ATOM     20  C   UNL     1       7.096   7.784  34.376  0.00  0.00    +0.198 C 
ENDBRANCH   7  19
BRANCH   9  21
ATOM     21  O   UNL     1       8.239   3.393  35.741  0.00  0.00    -0.390 OA
ATOM     22  H   UNL     1       8.224   2.676  36.379  0.00  0.00    +0.210 HD
ENDBRANCH   9  21
ENDBRANCH   4   5
BRANCH   4  23
ATOM     23  O   UNL     1       4.989   3.306  31.674  0.00  0.00    -0.387 OA
ATOM     24  H   UNL     1       4.989   4.216  31.369  0.00  0.00    +0.210 HD
ENDBRANCH   4  23
ENDBRANCH   1   4
BRANCH   1  25
ATOM     25  C   UNL     1       2.005   3.043  31.599  0.00  0.00    +0.141 C 
BRANCH  25  28
ATOM     26  C   UNL     1       2.164   3.016  29.133  0.00  0.00    +0.401 C 
ATOM     27  O   UNL     1       2.380   1.804  29.066  0.00  0.00    -0.226 OA
ATOM     28  N   UNL     1       1.984   3.679  30.276  0.00  0.00    -0.279 N 
ATOM     29  H   UNL     1       1.823   4.676  30.229  0.00  0.00    +0.152 HD
BRANCH  26  30
ATOM     30  O   UNL     1       2.105   3.779  27.925  0.00  0.00    -0.444 OA
BRANCH  30  31
ATOM     31  C   UNL     1       1.015   3.319  27.122  0.00  0.00    +0.292 C 
BRANCH  31  33
ATOM     32  N   UNL     1       1.989   2.685  24.936  0.00  0.00    -0.131 NA
ATOM     33  C   UNL     1       1.278   3.578  25.694  0.00  0.00    +0.120 A 
ATOM     34  C   UNL     1       0.928   4.656  24.912  0.00  0.00    +0.137 A 
ATOM     35  N   UNL     1       1.519   4.392  23.710  0.00  0.00    -0.247 N 
ATOM     36  N   UNL     1       2.112   3.184  23.713  0.00  0.00    -0.065 NA
BRANCH  35  37
ATOM     37  C   UNL     1       1.622   5.264  22.550  0.00  0.00    +0.184 C 
BRANCH  37  38
ATOM     38  C   UNL     1       1.166   4.603  21.264  0.00  0.00    +0.017 A 
ATOM     39  C   UNL     1       2.035   3.843  20.457  0.00  0.00    +0.024 A 
ATOM     40  C   UNL     1       1.580   3.248  19.277  0.00  0.00    +0.019 A 
ATOM     41 BR   UNL     1       2.788   2.276  18.193  0.00  0.00    -0.050 Br
ATOM     42  C   UNL     1       0.250   3.364  18.887  0.00  0.00    +0.034 A 
ATOM     43  C   UNL     1      -0.632   4.072  19.699  0.00  0.00    +0.061 A 
ATOM     44 BR   UNL     1      -2.452   4.197  19.183  0.00  0.00    -0.046 Br
ATOM     45  C   UNL     1      -0.179   4.681  20.878  0.00  0.00    +0.136 A 
BRANCH  45  46
ATOM     46  O   UNL     1      -1.041   5.368  21.692  0.00  0.00    -0.505 OA
ATOM     47  H   UNL     1      -1.338   6.160  21.204  0.00  0.00    +0.292 HD
ENDBRANCH  45  46
ENDBRANCH  37  38
ENDBRANCH  35  37
ENDBRANCH  31  33
ENDBRANCH  30  31
ENDBRANCH  26  30
ENDBRANCH  25  28
ENDBRANCH   1  25
TORSDOF 16
