REMARK VINA RESULT:    -6.303      1.316      1.800
REMARK INTER + INTRA:         -13.630
REMARK INTER:                 -12.191
REMARK INTRA:                  -1.439
REMARK UNBOUND:                -2.722
REMARK  Name = lig_assembled_3.pdb
REMARK  16 active torsions:
REMARK  status: ('A' for Active; 'I' for Inactive)
REMARK    1  A    between atoms: _2  and  _9
REMARK    2  A    between atoms: _4  and  _18
REMARK    3  A    between atoms: _6  and  _7
REMARK    4  A    between atoms: _6  and  _18
REMARK    5  A    between atoms: _14  and  _34
REMARK    6  A    between atoms: _16  and  _22
REMARK    7  A    between atoms: _17  and  _21
REMARK    8  A    between atoms: _21  and  _22
REMARK    9  A    between atoms: _24  and  _25
REMARK   10  A    between atoms: _26  and  _27
REMARK   11  A    between atoms: _28  and  _30
REMARK   12  A    between atoms: _30  and  _31
REMARK   13  A    between atoms: _30  and  _32
REMARK   14  A    between atoms: _32  and  _33
REMARK   15  A    between atoms: _32  and  _34
REMARK   16  A    between atoms: _35  and  _37
REMARK                            x       y       z     vdW  Elec       q    Type
REMARK                         _______ _______ _______ _____ _____    ______ ____
ROOT
ATOM      1  C   UNL     1       5.800   1.881  32.940  0.00  0.00    +0.163 C 
ENDROOT
BRANCH   1   2
ATOM      2  O   UNL     1       5.887   1.070  31.757  0.00  0.00    -0.388 OA
ATOM      3  H   UNL     1       6.170   0.184  31.995  0.00  0.00    +0.210 HD
ENDBRANCH   1   2
BRANCH   1   4
ATOM      4  C   UNL     1       4.528   2.721  32.905  0.00  0.00    +0.141 C 
BRANCH   4   7
ATOM      5  C   UNL     1       2.960   2.873  31.001  0.00  0.00    +0.401 C 
ATOM      6  O   UNL     1       2.037   2.310  31.594  0.00  0.00    -0.226 OA
ATOM      7  N   UNL     1       4.161   3.100  31.535  0.00  0.00    -0.279 N 
ATOM      8  H   UNL     1       4.857   3.560  30.965  0.00  0.00    +0.152 HD
BRANCH   5   9
ATOM      9  O   UNL     1       2.755   3.312  29.656  0.00  0.00    -0.444 OA
BRANCH   9  10
ATOM     10  C   UNL     1       1.722   2.530  29.050  0.00  0.00    +0.292 C 
BRANCH  10  12
ATOM     11  N   UNL     1       0.313   3.937  27.582  0.00  0.00    -0.131 NA
ATOM     12  C   UNL     1       1.368   3.084  27.729  0.00  0.00    +0.121 A 
ATOM     13  C   UNL     1       1.963   2.889  26.504  0.00  0.00    +0.143 A 
ATOM     14  N   UNL     1       1.246   3.674  25.629  0.00  0.00    -0.220 N 
ATOM     15  N   UNL     1       0.242   4.287  26.305  0.00  0.00    -0.060 NA
BRANCH  14  16
ATOM     16  C   UNL     1       1.462   3.885  24.243  0.00  0.00    +0.067 A 
ATOM     17  C   UNL     1       1.664   5.176  23.734  0.00  0.00    +0.028 A 
ATOM     18  C   UNL     1       1.844   5.366  22.362  0.00  0.00    +0.002 A 
ATOM     19  C   UNL     1       1.827   4.276  21.494  0.00  0.00    +0.000 A 
ATOM     20  C   UNL     1       1.636   2.989  21.994  0.00  0.00    +0.002 A 
ATOM     21  C   UNL     1       1.455   2.790  23.365  0.00  0.00    +0.028 A 
ENDBRANCH  14  16
ENDBRANCH  10  12
ENDBRANCH   9  10
ENDBRANCH   5   9
ENDBRANCH   4   7
ENDBRANCH   1   4
BRANCH   1  22
ATOM     22  C   UNL     1       7.023   2.806  33.064  0.00  0.00    +0.175 C 
BRANCH  22  23
ATOM     23  C   UNL     1       6.943   3.706  34.306  0.00  0.00    +0.176 C 
ATOM     24  O   UNL     1       6.758   5.076  33.854  0.00  0.00    -0.332 OA
ATOM     25  C   UNL     1       6.553   6.070  34.911  0.00  0.00    +0.277 C 
ATOM     26  C   UNL     1       7.708   6.011  35.940  0.00  0.00    +0.110 C 
ATOM     27  C   UNL     1       7.964   4.569  36.427  0.00  0.00    +0.143 C 
ATOM     28  C   UNL     1       8.160   3.618  35.245  0.00  0.00    +0.133 C 
BRANCH  28  29
ATOM     29  N   UNL     1       8.316   2.234  35.719  0.00  0.00    -0.308 N 
ATOM     30  H   UNL     1       7.531   1.805  36.189  0.00  0.00    +0.149 HD
ATOM     31  C   UNL     1       9.427   1.507  35.568  0.00  0.00    +0.210 C 
ATOM     32  C   UNL     1      10.614   2.199  34.870  0.00  0.00    +0.109 C 
ATOM     33  O   UNL     1       9.524   0.344  35.961  0.00  0.00    -0.276 OA
ENDBRANCH  28  29
BRANCH  25  34
ATOM     34  C   UNL     1       5.209   5.835  35.631  0.00  0.00    +0.414 C 
ATOM     35  O   UNL     1       5.106   6.048  36.838  0.00  0.00    -0.240 OA
ATOM     36  O   UNL     1       4.228   5.433  35.004  0.00  0.00    -0.240 OA
ENDBRANCH  25  34
BRANCH  27  37
ATOM     37  O   UNL     1       9.128   4.539  37.253  0.00  0.00    -0.390 OA
ATOM     38  H   UNL     1       8.886   4.258  38.139  0.00  0.00    +0.210 HD
ENDBRANCH  27  37
BRANCH  25  39
ATOM     39  O   UNL     1       6.555   7.385  34.297  0.00  0.00    -0.343 OA
ATOM     40  C   UNL     1       7.712   8.203  34.605  0.00  0.00    +0.198 C 
ENDBRANCH  25  39
ENDBRANCH  22  23
BRANCH  22  41
ATOM     41  O   UNL     1       7.161   3.610  31.876  0.00  0.00    -0.387 OA
ATOM     42  H   UNL     1       6.947   3.080  31.104  0.00  0.00    +0.210 HD
ENDBRANCH  22  41
ENDBRANCH   1  22
TORSDOF 14
