REMARK VINA RESULT:    -6.319     13.109     16.580
REMARK INTER + INTRA:         -12.573
REMARK INTER:                 -10.762
REMARK INTRA:                  -1.811
REMARK UNBOUND:                -1.636
REMARK  Name = lig_assembled_52.pdb
REMARK  16 active torsions:
REMARK  status: ('A' for Active; 'I' for Inactive)
REMARK    1  A    between atoms: _2  and  _10
REMARK    2  A    between atoms: _5  and  _18
REMARK    3  A    between atoms: _7  and  _8
REMARK    4  A    between atoms: _7  and  _18
REMARK    5  A    between atoms: _14  and  _34
REMARK    6  A    between atoms: _16  and  _22
REMARK    7  A    between atoms: _17  and  _21
REMARK    8  A    between atoms: _21  and  _22
REMARK    9  A    between atoms: _24  and  _25
REMARK   10  A    between atoms: _26  and  _27
REMARK   11  A    between atoms: _28  and  _30
REMARK   12  A    between atoms: _30  and  _31
REMARK   13  A    between atoms: _30  and  _32
REMARK   14  A    between atoms: _32  and  _33
REMARK   15  A    between atoms: _32  and  _34
REMARK   16  A    between atoms: _35  and  _37
REMARK                            x       y       z     vdW  Elec       q    Type
REMARK                         _______ _______ _______ _____ _____    ______ ____
ROOT
ATOM      1  C   UNL     1      18.520   5.774  23.895  0.00  0.00    +0.163 C 
ENDROOT
BRANCH   1   2
ATOM      2  O   UNL     1      17.500   5.814  22.884  0.00  0.00    -0.388 OA
ATOM      3  H   UNL     1      17.609   5.069  22.288  0.00  0.00    +0.210 HD
ENDBRANCH   1   2
BRANCH   1   4
ATOM      4  C   UNL     1      19.551   6.869  23.638  0.00  0.00    +0.141 C 
BRANCH   4   7
ATOM      5  C   UNL     1      20.840   7.744  25.556  0.00  0.00    +0.401 C 
ATOM      6  O   UNL     1      21.818   7.023  25.349  0.00  0.00    -0.226 OA
ATOM      7  N   UNL     1      19.735   7.734  24.810  0.00  0.00    -0.279 N 
ATOM      8  H   UNL     1      18.981   8.356  25.066  0.00  0.00    +0.152 HD
BRANCH   5   9
ATOM      9  O   UNL     1      20.868   8.652  26.661  0.00  0.00    -0.444 OA
BRANCH   9  10
ATOM     10  C   UNL     1      19.851   9.643  26.491  0.00  0.00    +0.292 C 
BRANCH  10  12
ATOM     11  N   UNL     1      18.115  10.765  27.848  0.00  0.00    -0.131 NA
ATOM     12  C   UNL     1      19.100   9.826  27.747  0.00  0.00    +0.121 A 
ATOM     13  C   UNL     1      19.211   9.163  28.947  0.00  0.00    +0.143 A 
ATOM     14  N   UNL     1      18.250   9.724  29.755  0.00  0.00    -0.218 N 
ATOM     15  N   UNL     1      17.606  10.700  29.071  0.00  0.00    -0.060 NA
BRANCH  14  16
ATOM     16  C   UNL     1      17.908   9.390  31.083  0.00  0.00    +0.085 A 
ATOM     17  C   UNL     1      17.592   8.082  31.459  0.00  0.00    +0.031 A 
ATOM     18  C   UNL     1      17.242   7.819  32.782  0.00  0.00    +0.022 A 
ATOM     19  C   UNL     1      17.223   8.872  33.682  0.00  0.00    +0.111 A 
ATOM     20  N   UNL     1      17.531  10.144  33.351  0.00  0.00    -0.261 NA
ATOM     21  C   UNL     1      17.868  10.379  32.059  0.00  0.00    +0.138 A 
ENDBRANCH  14  16
ENDBRANCH  10  12
ENDBRANCH   9  10
ENDBRANCH   5   9
ENDBRANCH   4   7
ENDBRANCH   1   4
BRANCH   1  22
ATOM     22  C   UNL     1      19.220   4.404  23.917  0.00  0.00    +0.175 C 
BRANCH  22  23
ATOM     23  C   UNL     1      18.445   3.373  24.750  0.00  0.00    +0.176 C 
ATOM     24  O   UNL     1      19.308   2.937  25.836  0.00  0.00    -0.332 OA
ATOM     25  C   UNL     1      18.695   2.023  26.805  0.00  0.00    +0.277 C 
ATOM     26  C   UNL     1      18.098   0.790  26.083  0.00  0.00    +0.110 C 
ATOM     27  C   UNL     1      17.198   1.204  24.900  0.00  0.00    +0.143 C 
ATOM     28  C   UNL     1      17.933   2.156  23.957  0.00  0.00    +0.133 C 
BRANCH  28  29
ATOM     29  N   UNL     1      17.038   2.612  22.882  0.00  0.00    -0.308 N 
ATOM     30  H   UNL     1      16.269   3.217  23.134  0.00  0.00    +0.149 HD
ATOM     31  C   UNL     1      17.174   2.277  21.597  0.00  0.00    +0.210 C 
ATOM     32  C   UNL     1      18.340   1.332  21.250  0.00  0.00    +0.109 C 
ATOM     33  O   UNL     1      16.417   2.685  20.715  0.00  0.00    -0.276 OA
ENDBRANCH  28  29
BRANCH  25  34
ATOM     34  C   UNL     1      17.588   2.738  27.606  0.00  0.00    +0.414 C 
ATOM     35  O   UNL     1      16.410   2.635  27.265  0.00  0.00    -0.240 OA
ATOM     36  O   UNL     1      17.871   3.417  28.594  0.00  0.00    -0.240 OA
ENDBRANCH  25  34
BRANCH  27  37
ATOM     37  O   UNL     1      16.792   0.043  24.174  0.00  0.00    -0.390 OA
ATOM     38  H   UNL     1      15.916   0.183  23.808  0.00  0.00    +0.210 HD
ENDBRANCH  27  37
BRANCH  25  39
ATOM     39  O   UNL     1      19.734   1.565  27.709  0.00  0.00    -0.343 OA
ATOM     40  C   UNL     1      21.026   1.337  27.092  0.00  0.00    +0.198 C 
ENDBRANCH  25  39
ENDBRANCH  22  23
BRANCH  22  41
ATOM     41  O   UNL     1      20.564   4.541  24.419  0.00  0.00    -0.387 OA
ATOM     42  H   UNL     1      20.916   5.396  24.163  0.00  0.00    +0.210 HD
ENDBRANCH  22  41
ENDBRANCH   1  22
TORSDOF 14
