REMARK VINA RESULT:    -5.891     15.150     18.782
REMARK INTER + INTRA:         -14.843
REMARK INTER:                 -11.574
REMARK INTRA:                  -3.269
REMARK UNBOUND:                -3.269
REMARK  Name = lig_assembled_84.pdb
REMARK  21 active torsions:
REMARK  status: ('A' for Active; 'I' for Inactive)
REMARK    1  A    between atoms: _2  and  _11
REMARK    2  A    between atoms: _3  and  _14
REMARK    3  A    between atoms: _4  and  _17
REMARK    4  A    between atoms: _6  and  _28
REMARK    5  A    between atoms: _8  and  _9
REMARK    6  A    between atoms: _8  and  _28
REMARK    7  A    between atoms: _11  and  _12
REMARK    8  A    between atoms: _12  and  _13
REMARK    9  A    between atoms: _12  and  _14
REMARK   10  A    between atoms: _24  and  _44
REMARK   11  A    between atoms: _26  and  _32
REMARK   12  A    between atoms: _27  and  _31
REMARK   13  A    between atoms: _31  and  _32
REMARK   14  A    between atoms: _34  and  _35
REMARK   15  A    between atoms: _36  and  _37
REMARK   16  A    between atoms: _38  and  _40
REMARK   17  A    between atoms: _40  and  _41
REMARK   18  A    between atoms: _40  and  _42
REMARK   19  A    between atoms: _42  and  _43
REMARK   20  A    between atoms: _42  and  _44
REMARK   21  A    between atoms: _45  and  _47
REMARK                            x       y       z     vdW  Elec       q    Type
REMARK                         _______ _______ _______ _____ _____    ______ ____
ROOT
ATOM      1  C   UNL     1      18.682   5.944  24.002  0.00  0.00    +0.401 C 
ATOM      2  O   UNL     1      18.107   6.549  23.094  0.00  0.00    -0.226 OA
ATOM      3  N   UNL     1      18.636   4.621  24.163  0.00  0.00    -0.279 N 
ATOM      4  H   UNL     1      19.150   4.216  24.933  0.00  0.00    +0.152 HD
ENDROOT
BRANCH   1   5
ATOM      5  O   UNL     1      19.456   6.685  24.949  0.00  0.00    -0.444 OA
BRANCH   5   6
ATOM      6  C   UNL     1      18.583   7.320  25.887  0.00  0.00    +0.292 C 
BRANCH   6   8
ATOM      7  N   UNL     1      20.556   8.738  26.381  0.00  0.00    -0.131 NA
ATOM      8  C   UNL     1      19.199   8.546  26.428  0.00  0.00    +0.120 A 
ATOM      9  C   UNL     1      18.616   9.622  27.059  0.00  0.00    +0.137 A 
ATOM     10  N   UNL     1      19.673  10.398  27.431  0.00  0.00    -0.251 N 
ATOM     11  N   UNL     1      20.835   9.876  27.002  0.00  0.00    -0.065 NA
BRANCH  10  12
ATOM     12  C   UNL     1      19.659  11.557  28.302  0.00  0.00    +0.149 C 
BRANCH  12  13
ATOM     13  C   UNL     1      20.434  11.372  29.617  0.00  0.00    +0.021 C 
ATOM     14  C   UNL     1      21.158  12.663  30.024  0.00  0.00    +0.010 C 
BRANCH  13  15
ATOM     15  C   UNL     1      19.492  10.944  30.768  0.00  0.00    +0.089 C 
BRANCH  15  16
ATOM     16  N   UNL     1      19.488   9.510  31.088  0.00  0.00    -0.299 NA
ATOM     17  C   UNL     1      20.649   8.842  30.442  0.00  0.00    +0.103 C 
ATOM     18  C   UNL     1      20.733   7.349  30.822  0.00  0.00    +0.120 C 
ATOM     19  N   UNL     1      19.491   6.670  30.433  0.00  0.00    -0.327 N 
ATOM     20  C   UNL     1      18.270   7.286  30.973  0.00  0.00    +0.120 C 
ATOM     21  C   UNL     1      18.253   8.809  30.654  0.00  0.00    +0.103 C 
BRANCH  19  22
ATOM     22  C   UNL     1      19.479   5.523  29.673  0.00  0.00    +0.030 A 
ATOM     23  C   UNL     1      20.214   5.431  28.477  0.00  0.00    +0.024 A 
ATOM     24  C   UNL     1      20.193   4.282  27.678  0.00  0.00    +0.022 A 
ATOM     25  C   UNL     1      19.436   3.190  28.069  0.00  0.00    +0.041 A 
ATOM     26 CL   UNL     1      19.401   1.775  27.089  0.00  0.00    -0.084 Cl
ATOM     27  C   UNL     1      18.698   3.239  29.246  0.00  0.00    +0.022 A 
ATOM     28  C   UNL     1      18.722   4.399  30.034  0.00  0.00    +0.024 A 
ENDBRANCH  19  22
ENDBRANCH  15  16
ENDBRANCH  13  15
ENDBRANCH  12  13
ENDBRANCH  10  12
ENDBRANCH   6   8
ENDBRANCH   5   6
ENDBRANCH   1   5
BRANCH   3  29
ATOM     29  C   UNL     1      17.880   3.720  23.284  0.00  0.00    +0.141 C 
BRANCH  29  30
ATOM     30  C   UNL     1      17.654   2.356  23.927  0.00  0.00    +0.163 C 
BRANCH  30  31
ATOM     31  O   UNL     1      16.640   2.452  24.941  0.00  0.00    -0.388 OA
ATOM     32  H   UNL     1      15.831   2.042  24.625  0.00  0.00    +0.210 HD
ENDBRANCH  30  31
BRANCH  30  33
ATOM     33  C   UNL     1      17.256   1.337  22.846  0.00  0.00    +0.175 C 
BRANCH  33  34
ATOM     34  C   UNL     1      17.693  -0.090  23.207  0.00  0.00    +0.176 C 
ATOM     35  O   UNL     1      16.862  -0.546  24.310  0.00  0.00    -0.332 OA
ATOM     36  C   UNL     1      17.067  -1.938  24.724  0.00  0.00    +0.277 C 
ATOM     37  C   UNL     1      18.559  -2.191  25.053  0.00  0.00    +0.110 C 
ATOM     38  C   UNL     1      19.483  -1.693  23.922  0.00  0.00    +0.143 C 
ATOM     39  C   UNL     1      19.182  -0.236  23.569  0.00  0.00    +0.133 C 
BRANCH  39  40
ATOM     40  N   UNL     1      20.009   0.200  22.432  0.00  0.00    -0.308 N 
ATOM     41  H   UNL     1      19.823  -0.211  21.528  0.00  0.00    +0.149 HD
ATOM     42  C   UNL     1      20.989   1.103  22.517  0.00  0.00    +0.210 C 
ATOM     43  C   UNL     1      21.266   1.692  23.913  0.00  0.00    +0.109 C 
ATOM     44  O   UNL     1      21.656   1.460  21.545  0.00  0.00    -0.276 OA
ENDBRANCH  39  40
BRANCH  36  45
ATOM     45  C   UNL     1      16.610  -2.911  23.618  0.00  0.00    +0.414 C 
ATOM     46  O   UNL     1      15.419  -2.996  23.320  0.00  0.00    -0.240 OA
ATOM     47  O   UNL     1      17.432  -3.609  23.023  0.00  0.00    -0.240 OA
ENDBRANCH  36  45
BRANCH  36  48
ATOM     48  O   UNL     1      16.289  -2.167  25.927  0.00  0.00    -0.343 OA
ATOM     49  C   UNL     1      16.779  -3.232  26.780  0.00  0.00    +0.198 C 
ENDBRANCH  36  48
BRANCH  38  50
ATOM     50  O   UNL     1      20.847  -1.807  24.329  0.00  0.00    -0.390 OA
ATOM     51  H   UNL     1      21.050  -2.726  24.517  0.00  0.00    +0.210 HD
ENDBRANCH  38  50
ENDBRANCH  33  34
BRANCH  33  52
ATOM     52  O   UNL     1      17.814   1.720  21.573  0.00  0.00    -0.387 OA
ATOM     53  H   UNL     1      18.719   1.406  21.513  0.00  0.00    +0.210 HD
ENDBRANCH  33  52
ENDBRANCH  30  33
ENDBRANCH  29  30
ENDBRANCH   3  29
TORSDOF 18
