REMARK VINA RESULT:    -7.112     10.813     18.650
REMARK INTER + INTRA:         -15.208
REMARK INTER:                 -13.120
REMARK INTRA:                  -2.088
REMARK UNBOUND:                -2.067
REMARK  Name = lig_assembled_79.pdb
REMARK  20 active torsions:
REMARK  status: ('A' for Active; 'I' for Inactive)
REMARK    1  A    between atoms: _2  and  _10
REMARK    2  A    between atoms: _5  and  _26
REMARK    3  A    between atoms: _7  and  _8
REMARK    4  A    between atoms: _7  and  _26
REMARK    5  A    between atoms: _10  and  _11
REMARK    6  A    between atoms: _10  and  _12
REMARK    7  A    between atoms: _10  and  _13
REMARK    8  A    between atoms: _13  and  _14
REMARK    9  A    between atoms: _22  and  _42
REMARK   10  A    between atoms: _24  and  _30
REMARK   11  A    between atoms: _25  and  _29
REMARK   12  A    between atoms: _29  and  _30
REMARK   13  A    between atoms: _32  and  _33
REMARK   14  A    between atoms: _34  and  _35
REMARK   15  A    between atoms: _36  and  _38
REMARK   16  A    between atoms: _38  and  _39
REMARK   17  A    between atoms: _38  and  _40
REMARK   18  A    between atoms: _40  and  _41
REMARK   19  A    between atoms: _40  and  _42
REMARK   20  A    between atoms: _43  and  _45
REMARK                            x       y       z     vdW  Elec       q    Type
REMARK                         _______ _______ _______ _____ _____    ______ ____
ROOT
ATOM      1  C   UNL     1       0.363   4.025  31.783  0.00  0.00    +0.401 C 
ATOM      2  O   UNL     1      -0.630   3.770  32.468  0.00  0.00    -0.226 OA
ATOM      3  N   UNL     1       1.617   3.787  32.170  0.00  0.00    -0.279 N 
ATOM      4  H   UNL     1       2.366   4.023  31.534  0.00  0.00    +0.152 HD
ENDROOT
BRANCH   3   5
ATOM      5  C   UNL     1       1.971   3.202  33.469  0.00  0.00    +0.141 C 
BRANCH   5   6
ATOM      6  C   UNL     1       3.461   3.336  33.767  0.00  0.00    +0.163 C 
BRANCH   6   7
ATOM      7  O   UNL     1       3.987   4.509  33.124  0.00  0.00    -0.388 OA
ATOM      8  H   UNL     1       3.947   4.397  32.171  0.00  0.00    +0.210 HD
ENDBRANCH   6   7
BRANCH   6   9
ATOM      9  C   UNL     1       3.677   3.400  35.288  0.00  0.00    +0.175 C 
BRANCH   9  10
ATOM     10  C   UNL     1       4.373   4.699  35.720  0.00  0.00    +0.176 C 
ATOM     11  O   UNL     1       5.763   4.623  35.299  0.00  0.00    -0.332 OA
ATOM     12  C   UNL     1       6.564   5.828  35.534  0.00  0.00    +0.277 C 
ATOM     13  C   UNL     1       6.490   6.244  37.024  0.00  0.00    +0.110 C 
ATOM     14  C   UNL     1       5.032   6.308  37.526  0.00  0.00    +0.143 C 
ATOM     15  C   UNL     1       4.291   5.004  37.227  0.00  0.00    +0.133 C 
BRANCH  15  16
ATOM     16  N   UNL     1       2.881   5.109  37.631  0.00  0.00    -0.308 N 
ATOM     17  H   UNL     1       2.314   5.818  37.187  0.00  0.00    +0.149 HD
ATOM     18  C   UNL     1       2.300   4.328  38.547  0.00  0.00    +0.210 C 
ATOM     19  C   UNL     1       3.197   3.275  39.224  0.00  0.00    +0.109 C 
ATOM     20  O   UNL     1       1.112   4.429  38.855  0.00  0.00    -0.276 OA
ENDBRANCH  15  16
BRANCH  12  21
ATOM     21  C   UNL     1       6.073   6.992  34.648  0.00  0.00    +0.414 C 
ATOM     22  O   UNL     1       5.089   6.848  33.924  0.00  0.00    -0.240 OA
ATOM     23  O   UNL     1       6.660   8.075  34.658  0.00  0.00    -0.240 OA
ENDBRANCH  12  21
BRANCH  14  24
ATOM     24  O   UNL     1       5.017   6.546  38.934  0.00  0.00    -0.390 OA
ATOM     25  H   UNL     1       4.493   7.328  39.122  0.00  0.00    +0.210 HD
ENDBRANCH  14  24
BRANCH  12  26
ATOM     26  O   UNL     1       7.945   5.519  35.213  0.00  0.00    -0.343 OA
ATOM     27  C   UNL     1       8.376   4.186  35.584  0.00  0.00    +0.198 C 
ENDBRANCH  12  26
ENDBRANCH   9  10
BRANCH   9  28
ATOM     28  O   UNL     1       4.439   2.258  35.729  0.00  0.00    -0.387 OA
ATOM     29  H   UNL     1       4.123   1.470  35.282  0.00  0.00    +0.210 HD
ENDBRANCH   9  28
ENDBRANCH   6   9
ENDBRANCH   5   6
ENDBRANCH   3   5
BRANCH   1  30
ATOM     30  O   UNL     1       0.184   4.609  30.490  0.00  0.00    -0.444 OA
BRANCH  30  31
ATOM     31  C   UNL     1      -0.429   3.657  29.617  0.00  0.00    +0.292 C 
BRANCH  31  33
ATOM     32  N   UNL     1       1.621   3.817  28.253  0.00  0.00    -0.131 NA
ATOM     33  C   UNL     1       0.270   3.635  28.319  0.00  0.00    +0.120 A 
ATOM     34  C   UNL     1      -0.224   3.458  27.046  0.00  0.00    +0.138 A 
ATOM     35  N   UNL     1       0.885   3.449  26.245  0.00  0.00    -0.238 N 
ATOM     36  N   UNL     1       1.983   3.748  26.983  0.00  0.00    -0.064 NA
BRANCH  35  37
ATOM     37  C   UNL     1       1.016   3.370  24.761  0.00  0.00    +0.122 C 
ATOM     38  C   UNL     1       0.158   2.165  24.308  0.00  0.00    +0.044 C 
ATOM     39  C   UNL     1       2.528   3.218  24.504  0.00  0.00    +0.044 C 
BRANCH  37  40
ATOM     40  C   UNL     1       0.481   4.618  24.029  0.00  0.00    +0.192 C 
ATOM     41  O   UNL     1       0.464   5.714  24.597  0.00  0.00    -0.289 OA
BRANCH  40  42
ATOM     42  C   UNL     1      -0.053   4.566  22.637  0.00  0.00    +0.045 A 
ATOM     43  C   UNL     1      -1.394   4.847  22.399  0.00  0.00    +0.095 A 
ATOM     44  N   UNL     1      -1.664   4.713  21.071  0.00  0.00    -0.360 N 
ATOM     45  H   UNL     1      -2.568   4.852  20.641  0.00  0.00    +0.165 HD
ATOM     46  C   UNL     1      -0.528   4.347  20.397  0.00  0.00    +0.047 A 
ATOM     47  C   UNL     1      -0.362   4.093  19.028  0.00  0.00    +0.026 A 
ATOM     48  C   UNL     1       0.904   3.726  18.573  0.00  0.00    +0.002 A 
ATOM     49  C   UNL     1       1.965   3.620  19.459  0.00  0.00    +0.001 A 
ATOM     50  C   UNL     1       1.779   3.878  20.822  0.00  0.00    +0.011 A 
ATOM     51  C   UNL     1       0.510   4.250  21.335  0.00  0.00    +0.010 A 
ENDBRANCH  40  42
ENDBRANCH  37  40
ENDBRANCH  35  37
ENDBRANCH  31  33
ENDBRANCH  30  31
ENDBRANCH   1  30
TORSDOF 16
