REMARK VINA RESULT:    -5.824      4.335      5.158
REMARK INTER + INTRA:         -13.109
REMARK INTER:                 -11.284
REMARK INTRA:                  -1.825
REMARK UNBOUND:                -1.667
REMARK  Name = lig_assembled_43.pdb
REMARK  20 active torsions:
REMARK  status: ('A' for Active; 'I' for Inactive)
REMARK    1  A    between atoms: _2  and  _9
REMARK    2  A    between atoms: _4  and  _18
REMARK    3  A    between atoms: _6  and  _7
REMARK    4  A    between atoms: _6  and  _18
REMARK    5  A    between atoms: _9  and  _10
REMARK    6  A    between atoms: _10  and  _11
REMARK    7  A    between atoms: _11  and  _12
REMARK    8  A    between atoms: _12  and  _13
REMARK    9  A    between atoms: _14  and  _34
REMARK   10  A    between atoms: _16  and  _22
REMARK   11  A    between atoms: _17  and  _21
REMARK   12  A    between atoms: _21  and  _22
REMARK   13  A    between atoms: _24  and  _25
REMARK   14  A    between atoms: _26  and  _27
REMARK   15  A    between atoms: _28  and  _30
REMARK   16  A    between atoms: _30  and  _31
REMARK   17  A    between atoms: _30  and  _32
REMARK   18  A    between atoms: _32  and  _33
REMARK   19  A    between atoms: _32  and  _34
REMARK   20  A    between atoms: _35  and  _37
REMARK                            x       y       z     vdW  Elec       q    Type
REMARK                         _______ _______ _______ _____ _____    ______ ____
ROOT
ATOM      1  C   UNL     1       7.621   2.573  34.440  0.00  0.00    +0.163 C 
ENDROOT
BRANCH   1   2
ATOM      2  O   UNL     1       8.161   2.508  35.770  0.00  0.00    -0.388 OA
ATOM      3  H   UNL     1       7.444   2.524  36.408  0.00  0.00    +0.210 HD
ENDBRANCH   1   2
BRANCH   1   4
ATOM      4  C   UNL     1       7.883   3.949  33.806  0.00  0.00    +0.175 C 
BRANCH   4   5
ATOM      5  C   UNL     1       7.250   5.089  34.617  0.00  0.00    +0.176 C 
ATOM      6  O   UNL     1       7.986   5.213  35.865  0.00  0.00    -0.332 OA
ATOM      7  C   UNL     1       7.587   6.328  36.729  0.00  0.00    +0.277 C 
ATOM      8  C   UNL     1       6.067   6.268  37.021  0.00  0.00    +0.110 C 
ATOM      9  C   UNL     1       5.244   6.105  35.726  0.00  0.00    +0.143 C 
ATOM     10  C   UNL     1       5.746   4.918  34.903  0.00  0.00    +0.133 C 
BRANCH  10  11
ATOM     11  N   UNL     1       5.012   4.826  33.631  0.00  0.00    -0.308 N 
ATOM     12  H   UNL     1       5.184   5.537  32.934  0.00  0.00    +0.149 HD
ATOM     13  C   UNL     1       4.132   3.865  33.338  0.00  0.00    +0.210 C 
ATOM     14  C   UNL     1       3.872   2.811  34.432  0.00  0.00    +0.109 C 
ATOM     15  O   UNL     1       3.542   3.804  32.259  0.00  0.00    -0.276 OA
ENDBRANCH  10  11
BRANCH   7  16
ATOM     16  C   UNL     1       7.933   7.680  36.072  0.00  0.00    +0.414 C 
ATOM     17  O   UNL     1       8.063   7.761  34.851  0.00  0.00    -0.240 OA
ATOM     18  O   UNL     1       8.081   8.689  36.762  0.00  0.00    -0.240 OA
ENDBRANCH   7  16
BRANCH   9  19
ATOM     19  O   UNL     1       3.868   5.903  36.052  0.00  0.00    -0.390 OA
ATOM     20  H   UNL     1       3.563   5.082  35.659  0.00  0.00    +0.210 HD
ENDBRANCH   9  19
BRANCH   7  21
ATOM     21  O   UNL     1       8.300   6.199  37.986  0.00  0.00    -0.343 OA
ATOM     22  C   UNL     1       7.576   5.503  39.032  0.00  0.00    +0.198 C 
ENDBRANCH   7  21
ENDBRANCH   4   5
BRANCH   4  23
ATOM     23  O   UNL     1       7.394   3.973  32.450  0.00  0.00    -0.387 OA
ATOM     24  H   UNL     1       6.525   3.566  32.416  0.00  0.00    +0.210 HD
ENDBRANCH   4  23
ENDBRANCH   1   4
BRANCH   1  25
ATOM     25  C   UNL     1       8.244   1.485  33.571  0.00  0.00    +0.141 C 
BRANCH  25  28
ATOM     26  C   UNL     1       6.292   0.445  32.470  0.00  0.00    +0.401 C 
ATOM     27  O   UNL     1       6.019   1.444  31.800  0.00  0.00    -0.226 OA
ATOM     28  N   UNL     1       7.311   0.378  33.327  0.00  0.00    -0.279 N 
ATOM     29  H   UNL     1       7.449  -0.483  33.838  0.00  0.00    +0.152 HD
BRANCH  26  30
ATOM     30  O   UNL     1       5.478  -0.724  32.338  0.00  0.00    -0.444 OA
BRANCH  30  31
ATOM     31  C   UNL     1       6.314  -1.874  32.189  0.00  0.00    +0.292 C 
BRANCH  31  33
ATOM     32  N   UNL     1       7.606  -2.968  30.382  0.00  0.00    -0.131 NA
ATOM     33  C   UNL     1       6.598  -2.121  30.763  0.00  0.00    +0.120 A 
ATOM     34  C   UNL     1       5.989  -1.612  29.638  0.00  0.00    +0.137 A 
ATOM     35  N   UNL     1       6.676  -2.183  28.609  0.00  0.00    -0.251 N 
ATOM     36  N   UNL     1       7.644  -2.997  29.057  0.00  0.00    -0.065 NA
BRANCH  35  37
ATOM     37  C   UNL     1       6.489  -1.976  27.189  0.00  0.00    +0.145 C 
BRANCH  37  38
ATOM     38  C   UNL     1       7.341  -2.938  26.367  0.00  0.00    +0.024 C 
BRANCH  38  39
ATOM     39  C   UNL     1       7.655  -2.383  24.976  0.00  0.00    +0.006 C 
BRANCH  39  40
ATOM     40  C   UNL     1       6.410  -1.740  24.360  0.00  0.00    +0.026 C 
BRANCH  40  41
ATOM     41  C   UNL     1       5.465  -2.764  23.805  0.00  0.00    -0.034 C 
ATOM     42  C   UNL     1       5.846  -3.792  23.037  0.00  0.00    +0.004 C 
ENDBRANCH  40  41
ENDBRANCH  39  40
ENDBRANCH  38  39
ENDBRANCH  37  38
ENDBRANCH  35  37
ENDBRANCH  31  33
ENDBRANCH  30  31
ENDBRANCH  26  30
ENDBRANCH  25  28
ENDBRANCH   1  25
TORSDOF 18
