REMARK VINA RESULT:    -5.750     15.450     16.818
REMARK INTER + INTRA:         -13.696
REMARK INTER:                 -11.945
REMARK INTRA:                  -1.750
REMARK UNBOUND:                -3.239
REMARK  Name = lig_assembled_88.pdb
REMARK  18 active torsions:
REMARK  status: ('A' for Active; 'I' for Inactive)
REMARK    1  A    between atoms: _2  and  _9
REMARK    2  A    between atoms: _4  and  _20
REMARK    3  A    between atoms: _5  and  _15
REMARK    4  A    between atoms: _6  and  _7
REMARK    5  A    between atoms: _6  and  _20
REMARK    6  A    between atoms: _9  and  _10
REMARK    7  A    between atoms: _16  and  _36
REMARK    8  A    between atoms: _18  and  _24
REMARK    9  A    between atoms: _19  and  _23
REMARK   10  A    between atoms: _23  and  _24
REMARK   11  A    between atoms: _26  and  _27
REMARK   12  A    between atoms: _28  and  _29
REMARK   13  A    between atoms: _30  and  _32
REMARK   14  A    between atoms: _32  and  _33
REMARK   15  A    between atoms: _32  and  _34
REMARK   16  A    between atoms: _34  and  _35
REMARK   17  A    between atoms: _34  and  _36
REMARK   18  A    between atoms: _37  and  _39
REMARK                            x       y       z     vdW  Elec       q    Type
REMARK                         _______ _______ _______ _____ _____    ______ ____
ROOT
ATOM      1  C   UNL     1      18.581   5.930  25.757  0.00  0.00    +0.163 C 
ENDROOT
BRANCH   1   2
ATOM      2  O   UNL     1      18.095   4.802  26.503  0.00  0.00    -0.388 OA
ATOM      3  H   UNL     1      18.612   4.702  27.306  0.00  0.00    +0.210 HD
ENDBRANCH   1   2
BRANCH   1   4
ATOM      4  C   UNL     1      19.765   6.597  26.477  0.00  0.00    +0.175 C 
BRANCH   4   5
ATOM      5  C   UNL     1      19.303   7.552  27.588  0.00  0.00    +0.176 C 
ATOM      6  O   UNL     1      20.069   8.782  27.468  0.00  0.00    -0.332 OA
ATOM      7  C   UNL     1      19.687   9.858  28.387  0.00  0.00    +0.277 C 
ATOM      8  C   UNL     1      19.726   9.358  29.852  0.00  0.00    +0.110 C 
ATOM      9  C   UNL     1      18.951   8.035  30.022  0.00  0.00    +0.143 C 
ATOM     10  C   UNL     1      19.426   6.987  29.015  0.00  0.00    +0.133 C 
BRANCH  10  11
ATOM     11  N   UNL     1      18.621   5.760  29.130  0.00  0.00    -0.308 N 
ATOM     12  H   UNL     1      17.632   5.825  28.932  0.00  0.00    +0.149 HD
ATOM     13  C   UNL     1      19.112   4.568  29.478  0.00  0.00    +0.210 C 
ATOM     14  C   UNL     1      20.617   4.509  29.798  0.00  0.00    +0.109 C 
ATOM     15  O   UNL     1      18.417   3.554  29.551  0.00  0.00    -0.276 OA
ENDBRANCH  10  11
BRANCH   7  16
ATOM     16  C   UNL     1      18.274  10.383  28.058  0.00  0.00    +0.414 C 
ATOM     17  O   UNL     1      17.889  10.440  26.891  0.00  0.00    -0.240 OA
ATOM     18  O   UNL     1      17.519  10.749  28.960  0.00  0.00    -0.240 OA
ENDBRANCH   7  16
BRANCH   7  19
ATOM     19  O   UNL     1      20.652  10.933  28.245  0.00  0.00    -0.343 OA
ATOM     20  C   UNL     1      20.943  11.660  29.465  0.00  0.00    +0.198 C 
ENDBRANCH   7  19
BRANCH   9  21
ATOM     21  O   UNL     1      19.139   7.534  31.347  0.00  0.00    -0.390 OA
ATOM     22  H   UNL     1      19.787   6.826  31.332  0.00  0.00    +0.210 HD
ENDBRANCH   9  21
ENDBRANCH   4   5
BRANCH   4  23
ATOM     23  O   UNL     1      20.590   7.302  25.528  0.00  0.00    -0.387 OA
ATOM     24  H   UNL     1      21.383   6.790  25.351  0.00  0.00    +0.210 HD
ENDBRANCH   4  23
ENDBRANCH   1   4
BRANCH   1  25
ATOM     25  C   UNL     1      19.016   5.486  24.364  0.00  0.00    +0.141 C 
BRANCH  25  28
ATOM     26  C   UNL     1      17.190   4.689  22.902  0.00  0.00    +0.401 C 
ATOM     27  O   UNL     1      16.959   5.803  22.425  0.00  0.00    -0.226 OA
ATOM     28  N   UNL     1      18.129   4.451  23.818  0.00  0.00    -0.279 N 
ATOM     29  H   UNL     1      18.237   3.504  24.155  0.00  0.00    +0.152 HD
BRANCH  26  30
ATOM     30  O   UNL     1      16.414   3.572  22.463  0.00  0.00    -0.444 OA
BRANCH  30  31
ATOM     31  C   UNL     1      16.839   3.179  21.155  0.00  0.00    +0.292 C 
BRANCH  31  33
ATOM     32  N   UNL     1      17.747   1.133  20.097  0.00  0.00    -0.131 NA
ATOM     33  C   UNL     1      17.585   1.908  21.215  0.00  0.00    +0.120 A 
ATOM     34  C   UNL     1      18.192   1.288  22.285  0.00  0.00    +0.137 A 
ATOM     35  N   UNL     1      18.637   0.107  21.767  0.00  0.00    -0.247 N 
ATOM     36  N   UNL     1      18.413   0.039  20.442  0.00  0.00    -0.065 NA
BRANCH  35  37
ATOM     37  C   UNL     1      19.215  -1.024  22.478  0.00  0.00    +0.184 C 
BRANCH  37  38
ATOM     38  C   UNL     1      18.211  -1.762  23.341  0.00  0.00    +0.017 A 
ATOM     39  C   UNL     1      17.330  -2.728  22.817  0.00  0.00    +0.024 A 
ATOM     40  C   UNL     1      16.417  -3.389  23.643  0.00  0.00    +0.019 A 
ATOM     41 BR   UNL     1      15.216  -4.644  22.895  0.00  0.00    -0.050 Br
ATOM     42  C   UNL     1      16.378  -3.133  25.010  0.00  0.00    +0.034 A 
ATOM     43  C   UNL     1      17.275  -2.215  25.551  0.00  0.00    +0.061 A 
ATOM     44 BR   UNL     1      17.243  -1.897  27.419  0.00  0.00    -0.046 Br
ATOM     45  C   UNL     1      18.185  -1.541  24.725  0.00  0.00    +0.136 A 
BRANCH  45  46
ATOM     46  O   UNL     1      19.082  -0.647  25.249  0.00  0.00    -0.505 OA
ATOM     47  H   UNL     1      19.969  -0.900  24.930  0.00  0.00    +0.292 HD
ENDBRANCH  45  46
ENDBRANCH  37  38
ENDBRANCH  35  37
ENDBRANCH  31  33
ENDBRANCH  30  31
ENDBRANCH  26  30
ENDBRANCH  25  28
ENDBRANCH   1  25
TORSDOF 16
