REMARK VINA RESULT:    -5.491      2.134      3.456
REMARK INTER + INTRA:         -12.225
REMARK INTER:                 -10.778
REMARK INTRA:                  -1.447
REMARK UNBOUND:                -2.722
REMARK  Name = lig_assembled_3.pdb
REMARK  16 active torsions:
REMARK  status: ('A' for Active; 'I' for Inactive)
REMARK    1  A    between atoms: _2  and  _9
REMARK    2  A    between atoms: _4  and  _18
REMARK    3  A    between atoms: _6  and  _7
REMARK    4  A    between atoms: _6  and  _18
REMARK    5  A    between atoms: _14  and  _34
REMARK    6  A    between atoms: _16  and  _22
REMARK    7  A    between atoms: _17  and  _21
REMARK    8  A    between atoms: _21  and  _22
REMARK    9  A    between atoms: _24  and  _25
REMARK   10  A    between atoms: _26  and  _27
REMARK   11  A    between atoms: _28  and  _30
REMARK   12  A    between atoms: _30  and  _31
REMARK   13  A    between atoms: _30  and  _32
REMARK   14  A    between atoms: _32  and  _33
REMARK   15  A    between atoms: _32  and  _34
REMARK   16  A    between atoms: _35  and  _37
REMARK                            x       y       z     vdW  Elec       q    Type
REMARK                         _______ _______ _______ _____ _____    ______ ____
ROOT
ATOM      1  C   UNL     1       3.686   2.457  33.198  0.00  0.00    +0.163 C 
ENDROOT
BRANCH   1   2
ATOM      2  O   UNL     1       4.127   1.279  33.893  0.00  0.00    -0.388 OA
ATOM      3  H   UNL     1       4.887   0.906  33.441  0.00  0.00    +0.210 HD
ENDBRANCH   1   2
BRANCH   1   4
ATOM      4  C   UNL     1       4.027   2.346  31.716  0.00  0.00    +0.141 C 
BRANCH   4   7
ATOM      5  C   UNL     1       2.307   2.688  29.974  0.00  0.00    +0.401 C 
ATOM      6  O   UNL     1       2.191   1.487  29.720  0.00  0.00    -0.226 OA
ATOM      7  N   UNL     1       3.146   3.179  30.888  0.00  0.00    -0.279 N 
ATOM      8  H   UNL     1       3.177   4.180  31.018  0.00  0.00    +0.152 HD
BRANCH   5   9
ATOM      9  O   UNL     1       1.508   3.631  29.255  0.00  0.00    -0.444 OA
BRANCH   9  10
ATOM     10  C   UNL     1       0.778   2.953  28.229  0.00  0.00    +0.292 C 
BRANCH  10  12
ATOM     11  N   UNL     1       2.506   3.962  26.775  0.00  0.00    -0.131 NA
ATOM     12  C   UNL     1       1.321   3.296  26.901  0.00  0.00    +0.121 A 
ATOM     13  C   UNL     1       0.814   3.039  25.649  0.00  0.00    +0.143 A 
ATOM     14  N   UNL     1       1.746   3.548  24.773  0.00  0.00    -0.220 N 
ATOM     15  N   UNL     1       2.755   4.117  25.481  0.00  0.00    -0.060 NA
BRANCH  14  16
ATOM     16  C   UNL     1       1.747   3.512  23.355  0.00  0.00    +0.067 A 
ATOM     17  C   UNL     1       1.818   2.293  22.666  0.00  0.00    +0.028 A 
ATOM     18  C   UNL     1       1.849   2.280  21.269  0.00  0.00    +0.002 A 
ATOM     19  C   UNL     1       1.806   3.476  20.556  0.00  0.00    +0.000 A 
ATOM     20  C   UNL     1       1.726   4.691  21.234  0.00  0.00    +0.002 A 
ATOM     21  C   UNL     1       1.696   4.712  22.631  0.00  0.00    +0.028 A 
ENDBRANCH  14  16
ENDBRANCH  10  12
ENDBRANCH   9  10
ENDBRANCH   5   9
ENDBRANCH   4   7
ENDBRANCH   1   4
BRANCH   1  22
ATOM     22  C   UNL     1       4.342   3.719  33.784  0.00  0.00    +0.175 C 
BRANCH  22  23
ATOM     23  C   UNL     1       3.884   3.994  35.223  0.00  0.00    +0.176 C 
ATOM     24  O   UNL     1       2.441   4.176  35.206  0.00  0.00    -0.332 OA
ATOM     25  C   UNL     1       1.808   4.346  36.517  0.00  0.00    +0.277 C 
ATOM     26  C   UNL     1       2.473   5.510  37.293  0.00  0.00    +0.110 C 
ATOM     27  C   UNL     1       4.010   5.376  37.311  0.00  0.00    +0.143 C 
ATOM     28  C   UNL     1       4.563   5.201  35.896  0.00  0.00    +0.133 C 
BRANCH  28  29
ATOM     29  N   UNL     1       6.018   4.989  35.934  0.00  0.00    -0.308 N 
ATOM     30  H   UNL     1       6.364   4.179  36.430  0.00  0.00    +0.149 HD
ATOM     31  C   UNL     1       6.912   5.795  35.356  0.00  0.00    +0.210 C 
ATOM     32  C   UNL     1       6.355   7.034  34.630  0.00  0.00    +0.109 C 
ATOM     33  O   UNL     1       8.125   5.584  35.392  0.00  0.00    -0.276 OA
ENDBRANCH  28  29
BRANCH  25  34
ATOM     34  C   UNL     1       1.910   3.049  37.346  0.00  0.00    +0.414 C 
ATOM     35  O   UNL     1       2.193   1.984  36.798  0.00  0.00    -0.240 OA
ATOM     36  O   UNL     1       1.709   3.067  38.561  0.00  0.00    -0.240 OA
ENDBRANCH  25  34
BRANCH  27  37
ATOM     37  O   UNL     1       4.588   6.541  37.901  0.00  0.00    -0.390 OA
ATOM     38  H   UNL     1       4.210   7.326  37.498  0.00  0.00    +0.210 HD
ENDBRANCH  27  37
BRANCH  25  39
ATOM     39  O   UNL     1       0.412   4.679  36.301  0.00  0.00    -0.343 OA
ATOM     40  C   UNL     1      -0.263   3.872  35.304  0.00  0.00    +0.198 C 
ENDBRANCH  25  39
ENDBRANCH  22  23
BRANCH  22  41
ATOM     41  O   UNL     1       4.062   4.858  32.946  0.00  0.00    -0.387 OA
ATOM     42  H   UNL     1       4.369   5.658  33.380  0.00  0.00    +0.210 HD
ENDBRANCH  22  41
ENDBRANCH   1  22
TORSDOF 14
