REMARK VINA RESULT:    -6.479      4.094     10.290
REMARK INTER + INTRA:         -13.525
REMARK INTER:                 -11.903
REMARK INTRA:                  -1.623
REMARK UNBOUND:                -1.933
REMARK  Name = lig_assembled_39.pdb
REMARK  17 active torsions:
REMARK  status: ('A' for Active; 'I' for Inactive)
REMARK    1  A    between atoms: _2  and  _9
REMARK    2  A    between atoms: _4  and  _19
REMARK    3  A    between atoms: _6  and  _7
REMARK    4  A    between atoms: _6  and  _19
REMARK    5  A    between atoms: _9  and  _10
REMARK    6  A    between atoms: _15  and  _35
REMARK    7  A    between atoms: _17  and  _23
REMARK    8  A    between atoms: _18  and  _22
REMARK    9  A    between atoms: _22  and  _23
REMARK   10  A    between atoms: _25  and  _26
REMARK   11  A    between atoms: _27  and  _28
REMARK   12  A    between atoms: _29  and  _31
REMARK   13  A    between atoms: _31  and  _32
REMARK   14  A    between atoms: _31  and  _33
REMARK   15  A    between atoms: _33  and  _34
REMARK   16  A    between atoms: _33  and  _35
REMARK   17  A    between atoms: _36  and  _38
REMARK                            x       y       z     vdW  Elec       q    Type
REMARK                         _______ _______ _______ _____ _____    ______ ____
ROOT
ATOM      1  C   UNL     1      17.464   2.152  26.208  0.00  0.00    +0.163 C 
ENDROOT
BRANCH   1   2
ATOM      2  O   UNL     1      16.482   2.821  27.014  0.00  0.00    -0.388 OA
ATOM      3  H   UNL     1      16.788   2.864  27.924  0.00  0.00    +0.210 HD
ENDBRANCH   1   2
BRANCH   1   4
ATOM      4  C   UNL     1      18.586   3.119  25.842  0.00  0.00    +0.141 C 
BRANCH   4   7
ATOM      5  C   UNL     1      19.075   5.475  26.401  0.00  0.00    +0.401 C 
ATOM      6  O   UNL     1      20.286   5.290  26.537  0.00  0.00    -0.226 OA
ATOM      7  N   UNL     1      18.205   4.516  26.084  0.00  0.00    -0.279 N 
ATOM      8  H   UNL     1      17.228   4.764  26.005  0.00  0.00    +0.152 HD
BRANCH   5   9
ATOM      9  O   UNL     1      18.547   6.790  26.596  0.00  0.00    -0.444 OA
BRANCH   9  10
ATOM     10  C   UNL     1      19.616   7.697  26.876  0.00  0.00    +0.292 C 
BRANCH  10  12
ATOM     11  N   UNL     1      18.625   9.507  28.244  0.00  0.00    -0.131 NA
ATOM     12  C   UNL     1      19.392   8.374  28.167  0.00  0.00    +0.120 A 
ATOM     13  C   UNL     1      19.833   8.041  29.428  0.00  0.00    +0.137 A 
ATOM     14  N   UNL     1      19.232   8.961  30.236  0.00  0.00    -0.247 N 
ATOM     15  N   UNL     1      18.558   9.877  29.515  0.00  0.00    -0.065 NA
BRANCH  14  16
ATOM     16  C   UNL     1      19.199   8.989  31.691  0.00  0.00    +0.181 C 
BRANCH  16  17
ATOM     17  C   UNL     1      17.793   8.931  32.260  0.00  0.00    -0.012 A 
ATOM     18  C   UNL     1      17.006   7.768  32.135  0.00  0.00    +0.006 A 
ATOM     19  C   UNL     1      15.709   7.703  32.649  0.00  0.00    +0.000 A 
ATOM     20  C   UNL     1      15.156   8.808  33.281  0.00  0.00    +0.001 A 
ATOM     21  C   UNL     1      15.893   9.986  33.381  0.00  0.00    +0.015 A 
ATOM     22  C   UNL     1      17.196  10.053  32.866  0.00  0.00    +0.023 A 
ATOM     23 BR   UNL     1      18.083  11.730  33.009  0.00  0.00    -0.050 Br
ENDBRANCH  16  17
ENDBRANCH  14  16
ENDBRANCH  10  12
ENDBRANCH   9  10
ENDBRANCH   5   9
ENDBRANCH   4   7
ENDBRANCH   1   4
BRANCH   1  24
ATOM     24  C   UNL     1      16.831   1.590  24.923  0.00  0.00    +0.175 C 
BRANCH  24  25
ATOM     25  C   UNL     1      17.853   0.839  24.056  0.00  0.00    +0.176 C 
ATOM     26  O   UNL     1      17.903   1.492  22.758  0.00  0.00    -0.332 OA
ATOM     27  C   UNL     1      18.908   0.973  21.825  0.00  0.00    +0.277 C 
ATOM     28  C   UNL     1      18.734  -0.554  21.637  0.00  0.00    +0.110 C 
ATOM     29  C   UNL     1      18.644  -1.288  22.991  0.00  0.00    +0.143 C 
ATOM     30  C   UNL     1      17.570  -0.665  23.883  0.00  0.00    +0.133 C 
BRANCH  30  31
ATOM     31  N   UNL     1      17.553  -1.317  25.202  0.00  0.00    -0.308 N 
ATOM     32  H   UNL     1      18.313  -1.116  25.837  0.00  0.00    +0.149 HD
ATOM     33  C   UNL     1      16.599  -2.156  25.615  0.00  0.00    +0.210 C 
ATOM     34  C   UNL     1      15.469  -2.462  24.614  0.00  0.00    +0.109 C 
ATOM     35  O   UNL     1      16.604  -2.676  26.731  0.00  0.00    -0.276 OA
ENDBRANCH  30  31
BRANCH  27  36
ATOM     36  C   UNL     1      20.333   1.271  22.336  0.00  0.00    +0.414 C 
ATOM     37  O   UNL     1      21.212   0.414  22.256  0.00  0.00    -0.240 OA
ATOM     38  O   UNL     1      20.603   2.367  22.829  0.00  0.00    -0.240 OA
ENDBRANCH  27  36
BRANCH  27  39
ATOM     39  O   UNL     1      18.705   1.619  20.542  0.00  0.00    -0.343 OA
ATOM     40  C   UNL     1      17.322   1.711  20.115  0.00  0.00    +0.198 C 
ENDBRANCH  27  39
BRANCH  29  41
ATOM     41  O   UNL     1      18.334  -2.665  22.773  0.00  0.00    -0.390 OA
ATOM     42  H   UNL     1      18.271  -3.117  23.617  0.00  0.00    +0.210 HD
ENDBRANCH  29  41
ENDBRANCH  24  25
BRANCH  24  43
ATOM     43  O   UNL     1      16.221   2.652  24.164  0.00  0.00    -0.387 OA
ATOM     44  H   UNL     1      16.267   3.471  24.664  0.00  0.00    +0.210 HD
ENDBRANCH  24  43
ENDBRANCH   1  24
TORSDOF 15
