REMARK VINA RESULT:    -6.503     10.694     13.584
REMARK INTER + INTRA:         -13.650
REMARK INTER:                 -11.750
REMARK INTRA:                  -1.899
REMARK UNBOUND:                -1.444
REMARK  Name = lig_assembled_16.pdb
REMARK  19 active torsions:
REMARK  status: ('A' for Active; 'I' for Inactive)
REMARK    1  A    between atoms: _2  and  _9
REMARK    2  A    between atoms: _4  and  _22
REMARK    3  A    between atoms: _6  and  _7
REMARK    4  A    between atoms: _6  and  _22
REMARK    5  A    between atoms: _9  and  _10
REMARK    6  A    between atoms: _13  and  _14
REMARK    7  A    between atoms: _14  and  _16
REMARK    8  A    between atoms: _18  and  _38
REMARK    9  A    between atoms: _20  and  _26
REMARK   10  A    between atoms: _21  and  _25
REMARK   11  A    between atoms: _25  and  _26
REMARK   12  A    between atoms: _28  and  _29
REMARK   13  A    between atoms: _30  and  _31
REMARK   14  A    between atoms: _32  and  _34
REMARK   15  A    between atoms: _34  and  _35
REMARK   16  A    between atoms: _34  and  _36
REMARK   17  A    between atoms: _36  and  _37
REMARK   18  A    between atoms: _36  and  _38
REMARK   19  A    between atoms: _39  and  _41
REMARK                            x       y       z     vdW  Elec       q    Type
REMARK                         _______ _______ _______ _____ _____    ______ ____
ROOT
ATOM      1  C   UNL     1      18.064   1.825  22.432  0.00  0.00    +0.163 C 
ENDROOT
BRANCH   1   2
ATOM      2  O   UNL     1      19.441   2.236  22.389  0.00  0.00    -0.388 OA
ATOM      3  H   UNL     1      19.735   2.273  21.475  0.00  0.00    +0.210 HD
ENDBRANCH   1   2
BRANCH   1   4
ATOM      4  C   UNL     1      17.910   0.496  23.192  0.00  0.00    +0.175 C 
BRANCH   4   5
ATOM      5  C   UNL     1      17.687   0.713  24.696  0.00  0.00    +0.176 C 
ATOM      6  O   UNL     1      18.897   1.302  25.247  0.00  0.00    -0.332 OA
ATOM      7  C   UNL     1      18.830   1.679  26.662  0.00  0.00    +0.277 C 
ATOM      8  C   UNL     1      18.398   0.468  27.525  0.00  0.00    +0.110 C 
ATOM      9  C   UNL     1      17.133  -0.211  26.960  0.00  0.00    +0.143 C 
ATOM     10  C   UNL     1      17.311  -0.558  25.481  0.00  0.00    +0.133 C 
BRANCH  10  11
ATOM     11  N   UNL     1      16.069  -1.125  24.932  0.00  0.00    -0.308 N 
ATOM     12  H   UNL     1      15.226  -0.571  25.001  0.00  0.00    +0.149 HD
ATOM     13  C   UNL     1      15.982  -2.323  24.348  0.00  0.00    +0.210 C 
ATOM     14  C   UNL     1      17.278  -3.153  24.281  0.00  0.00    +0.109 C 
ATOM     15  O   UNL     1      14.931  -2.766  23.883  0.00  0.00    -0.276 OA
ENDBRANCH  10  11
BRANCH   7  16
ATOM     16  C   UNL     1      17.839   2.842  26.872  0.00  0.00    +0.414 C 
ATOM     17  O   UNL     1      16.773   2.650  27.456  0.00  0.00    -0.240 OA
ATOM     18  O   UNL     1      18.105   3.972  26.459  0.00  0.00    -0.240 OA
ENDBRANCH   7  16
BRANCH   7  19
ATOM     19  O   UNL     1      20.158   2.088  27.081  0.00  0.00    -0.343 OA
ATOM     20  C   UNL     1      20.347   2.179  28.515  0.00  0.00    +0.198 C 
ENDBRANCH   7  19
BRANCH   9  21
ATOM     21  O   UNL     1      16.859  -1.406  27.693  0.00  0.00    -0.390 OA
ATOM     22  H   UNL     1      15.909  -1.525  27.768  0.00  0.00    +0.210 HD
ENDBRANCH   9  21
ENDBRANCH   4   5
BRANCH   4  23
ATOM     23  O   UNL     1      19.067  -0.336  22.976  0.00  0.00    -0.387 OA
ATOM     24  H   UNL     1      19.133  -0.983  23.682  0.00  0.00    +0.210 HD
ENDBRANCH   4  23
ENDBRANCH   1   4
BRANCH   1  25
ATOM     25  C   UNL     1      17.220   2.900  23.110  0.00  0.00    +0.141 C 
BRANCH  25  28
ATOM     26  C   UNL     1      17.573   5.331  22.840  0.00  0.00    +0.401 C 
ATOM     27  O   UNL     1      16.538   5.504  22.192  0.00  0.00    -0.226 OA
ATOM     28  N   UNL     1      17.973   4.146  23.303  0.00  0.00    -0.279 N 
ATOM     29  H   UNL     1      18.843   4.103  23.815  0.00  0.00    +0.152 HD
BRANCH  26  30
ATOM     30  O   UNL     1      18.414   6.453  23.119  0.00  0.00    -0.444 OA
BRANCH  30  31
ATOM     31  C   UNL     1      19.419   6.074  24.063  0.00  0.00    +0.292 C 
BRANCH  31  33
ATOM     32  N   UNL     1      21.154   7.825  23.809  0.00  0.00    -0.131 NA
ATOM     33  C   UNL     1      20.142   7.264  24.546  0.00  0.00    +0.120 A 
ATOM     34  C   UNL     1      19.957   8.002  25.693  0.00  0.00    +0.137 A 
ATOM     35  N   UNL     1      20.820   9.047  25.548  0.00  0.00    -0.247 N 
ATOM     36  N   UNL     1      21.575   8.911  24.443  0.00  0.00    -0.065 NA
BRANCH  35  37
ATOM     37  C   UNL     1      20.961  10.211  26.400  0.00  0.00    +0.180 C 
BRANCH  37  38
ATOM     38  C   UNL     1      20.067  10.115  27.615  0.00  0.00    -0.026 A 
ATOM     39  C   UNL     1      20.462   9.373  28.738  0.00  0.00    +0.006 A 
ATOM     40  C   UNL     1      19.647   9.319  29.873  0.00  0.00    +0.015 A 
ATOM     41  C   UNL     1      18.424   9.993  29.898  0.00  0.00    +0.059 A 
ATOM     42  C   UNL     1      18.008  10.720  28.772  0.00  0.00    +0.015 A 
ATOM     43  C   UNL     1      18.822  10.767  27.636  0.00  0.00    +0.006 A 
BRANCH  41  44
ATOM     44  C   UNL     1      17.633   9.962  31.156  0.00  0.00    +0.337 C 
ATOM     45  O   UNL     1      17.610   8.990  31.893  0.00  0.00    -0.245 OA
BRANCH  44  46
ATOM     46  O   UNL     1      16.921  11.081  31.388  0.00  0.00    -0.477 OA
ATOM     47  H   UNL     1      16.131  11.195  30.829  0.00  0.00    +0.295 HD
ENDBRANCH  44  46
ENDBRANCH  41  44
ENDBRANCH  37  38
ENDBRANCH  35  37
ENDBRANCH  31  33
ENDBRANCH  30  31
ENDBRANCH  26  30
ENDBRANCH  25  28
ENDBRANCH   1  25
TORSDOF 17
