REMARK VINA RESULT:    -5.898      4.695      5.915
REMARK INTER + INTRA:         -12.621
REMARK INTER:                 -10.528
REMARK INTRA:                  -2.093
REMARK UNBOUND:                -2.413
REMARK  Name = lig_assembled_8.pdb
REMARK  16 active torsions:
REMARK  status: ('A' for Active; 'I' for Inactive)
REMARK    1  A    between atoms: _2  and  _9
REMARK    2  A    between atoms: _4  and  _18
REMARK    3  A    between atoms: _6  and  _7
REMARK    4  A    between atoms: _6  and  _18
REMARK    5  A    between atoms: _14  and  _34
REMARK    6  A    between atoms: _16  and  _22
REMARK    7  A    between atoms: _17  and  _21
REMARK    8  A    between atoms: _21  and  _22
REMARK    9  A    between atoms: _24  and  _25
REMARK   10  A    between atoms: _26  and  _27
REMARK   11  A    between atoms: _28  and  _30
REMARK   12  A    between atoms: _30  and  _31
REMARK   13  A    between atoms: _30  and  _32
REMARK   14  A    between atoms: _32  and  _33
REMARK   15  A    between atoms: _32  and  _34
REMARK   16  A    between atoms: _35  and  _37
REMARK                            x       y       z     vdW  Elec       q    Type
REMARK                         _______ _______ _______ _____ _____    ______ ____
ROOT
ATOM      1  C   UNL     1       5.301   2.974  32.551  0.00  0.00    +0.163 C 
ENDROOT
BRANCH   1   2
ATOM      2  O   UNL     1       4.334   3.809  33.209  0.00  0.00    -0.388 OA
ATOM      3  H   UNL     1       3.993   3.355  33.984  0.00  0.00    +0.210 HD
ENDBRANCH   1   2
BRANCH   1   4
ATOM      4  C   UNL     1       4.937   1.505  32.741  0.00  0.00    +0.141 C 
BRANCH   4   7
ATOM      5  C   UNL     1       6.722  -0.162  33.117  0.00  0.00    +0.401 C 
ATOM      6  O   UNL     1       6.556  -0.202  34.339  0.00  0.00    -0.226 OA
ATOM      7  N   UNL     1       6.013   0.612  32.294  0.00  0.00    -0.279 N 
ATOM      8  H   UNL     1       6.229   0.583  31.308  0.00  0.00    +0.152 HD
BRANCH   5   9
ATOM      9  O   UNL     1       7.731  -0.984  32.526  0.00  0.00    -0.444 OA
BRANCH   9  10
ATOM     10  C   UNL     1       7.210  -2.297  32.306  0.00  0.00    +0.292 C 
BRANCH  10  12
ATOM     11  N   UNL     1       7.736  -3.834  30.448  0.00  0.00    -0.131 NA
ATOM     12  C   UNL     1       7.260  -2.633  30.871  0.00  0.00    +0.121 A 
ATOM     13  C   UNL     1       6.874  -1.896  29.776  0.00  0.00    +0.143 A 
ATOM     14  N   UNL     1       7.115  -2.708  28.680  0.00  0.00    -0.219 N 
ATOM     15  N   UNL     1       7.649  -3.866  29.126  0.00  0.00    -0.060 NA
BRANCH  14  16
ATOM     16  C   UNL     1       6.849  -2.431  27.303  0.00  0.00    +0.081 A 
ATOM     17  C   UNL     1       7.911  -2.569  26.381  0.00  0.00    +0.029 A 
ATOM     18  C   UNL     1       7.739  -2.297  25.021  0.00  0.00    +0.002 A 
ATOM     19  C   UNL     1       6.505  -1.880  24.548  0.00  0.00    +0.001 A 
ATOM     20  C   UNL     1       5.441  -1.744  25.435  0.00  0.00    +0.017 A 
ATOM     21  C   UNL     1       5.596  -2.017  26.808  0.00  0.00    +0.043 A 
ATOM     22 BR   UNL     1       4.000  -1.764  27.818  0.00  0.00    -0.048 Br
ENDBRANCH  14  16
ENDBRANCH  10  12
ENDBRANCH   9  10
ENDBRANCH   5   9
ENDBRANCH   4   7
ENDBRANCH   1   4
BRANCH   1  23
ATOM     23  C   UNL     1       6.714   3.229  33.101  0.00  0.00    +0.175 C 
BRANCH  23  24
ATOM     24  C   UNL     1       6.686   3.960  34.451  0.00  0.00    +0.176 C 
ATOM     25  O   UNL     1       6.466   5.373  34.190  0.00  0.00    -0.332 OA
ATOM     26  C   UNL     1       6.303   6.220  35.376  0.00  0.00    +0.277 C 
ATOM     27  C   UNL     1       7.507   6.045  36.335  0.00  0.00    +0.110 C 
ATOM     28  C   UNL     1       7.799   4.556  36.617  0.00  0.00    +0.143 C 
ATOM     29  C   UNL     1       7.947   3.770  35.314  0.00  0.00    +0.133 C 
BRANCH  29  30
ATOM     30  N   UNL     1       8.139   2.338  35.596  0.00  0.00    -0.308 N 
ATOM     31  H   UNL     1       7.358   1.824  35.979  0.00  0.00    +0.149 HD
ATOM     32  C   UNL     1       9.277   1.674  35.377  0.00  0.00    +0.210 C 
ATOM     33  C   UNL     1      10.455   2.491  34.816  0.00  0.00    +0.109 C 
ATOM     34  O   UNL     1       9.404   0.471  35.609  0.00  0.00    -0.276 OA
ENDBRANCH  29  30
BRANCH  26  35
ATOM     35  C   UNL     1       4.997   5.872  36.121  0.00  0.00    +0.414 C 
ATOM     36  O   UNL     1       4.017   5.466  35.498  0.00  0.00    -0.240 OA
ATOM     37  O   UNL     1       4.923   5.999  37.344  0.00  0.00    -0.240 OA
ENDBRANCH  26  35
BRANCH  28  38
ATOM     38  O   UNL     1       9.002   4.437  37.377  0.00  0.00    -0.390 OA
ATOM     39  H   UNL     1       9.531   5.231  37.268  0.00  0.00    +0.210 HD
ENDBRANCH  28  38
BRANCH  26  40
ATOM     40  O   UNL     1       6.263   7.602  34.939  0.00  0.00    -0.343 OA
ATOM     41  C   UNL     1       7.521   8.124  34.442  0.00  0.00    +0.198 C 
ENDBRANCH  26  40
ENDBRANCH  23  24
BRANCH  23  42
ATOM     42  O   UNL     1       7.491   3.980  32.146  0.00  0.00    -0.387 OA
ATOM     43  H   UNL     1       7.323   4.918  32.264  0.00  0.00    +0.210 HD
ENDBRANCH  23  42
ENDBRANCH   1  23
TORSDOF 14
