REMARK VINA RESULT:    -4.685     12.201     15.171
REMARK INTER + INTRA:         -13.108
REMARK INTER:                 -10.993
REMARK INTRA:                  -2.115
REMARK UNBOUND:                -4.177
REMARK  Name = lig_assembled_50.pdb
REMARK  20 active torsions:
REMARK  status: ('A' for Active; 'I' for Inactive)
REMARK    1  A    between atoms: _2  and  _9
REMARK    2  A    between atoms: _4  and  _17
REMARK    3  A    between atoms: _5  and  _10
REMARK    4  A    between atoms: _5  and  _11
REMARK    5  A    between atoms: _6  and  _7
REMARK    6  A    between atoms: _6  and  _17
REMARK    7  A    between atoms: _9  and  _10
REMARK    8  A    between atoms: _10  and  _12
REMARK    9  A    between atoms: _13  and  _33
REMARK   10  A    between atoms: _15  and  _21
REMARK   11  A    between atoms: _16  and  _20
REMARK   12  A    between atoms: _20  and  _21
REMARK   13  A    between atoms: _23  and  _24
REMARK   14  A    between atoms: _25  and  _26
REMARK   15  A    between atoms: _27  and  _29
REMARK   16  A    between atoms: _29  and  _30
REMARK   17  A    between atoms: _29  and  _31
REMARK   18  A    between atoms: _31  and  _32
REMARK   19  A    between atoms: _31  and  _33
REMARK   20  A    between atoms: _34  and  _36
REMARK                            x       y       z     vdW  Elec       q    Type
REMARK                         _______ _______ _______ _____ _____    ______ ____
ROOT
ATOM      1  C   UNL     1       7.922   2.404  34.212  0.00  0.00    +0.163 C 
ENDROOT
BRANCH   1   2
ATOM      2  O   UNL     1       8.536   2.694  35.479  0.00  0.00    -0.388 OA
ATOM      3  H   UNL     1       8.196   2.091  36.145  0.00  0.00    +0.210 HD
ENDBRANCH   1   2
BRANCH   1   4
ATOM      4  C   UNL     1       7.879   3.659  33.322  0.00  0.00    +0.175 C 
BRANCH   4   5
ATOM      5  C   UNL     1       7.012   4.770  33.932  0.00  0.00    +0.176 C 
ATOM      6  O   UNL     1       7.750   5.357  35.039  0.00  0.00    -0.332 OA
ATOM      7  C   UNL     1       7.118   6.513  35.680  0.00  0.00    +0.277 C 
ATOM      8  C   UNL     1       5.682   6.160  36.138  0.00  0.00    +0.110 C 
ATOM      9  C   UNL     1       4.867   5.504  35.003  0.00  0.00    +0.143 C 
ATOM     10  C   UNL     1       5.619   4.314  34.406  0.00  0.00    +0.133 C 
BRANCH  10  11
ATOM     11  N   UNL     1       4.873   3.751  33.269  0.00  0.00    -0.308 N 
ATOM     12  H   UNL     1       4.791   4.314  32.434  0.00  0.00    +0.149 HD
ATOM     13  C   UNL     1       4.297   2.546  33.269  0.00  0.00    +0.210 C 
ATOM     14  C   UNL     1       4.418   1.724  34.566  0.00  0.00    +0.109 C 
ATOM     15  O   UNL     1       3.691   2.095  32.297  0.00  0.00    -0.276 OA
ENDBRANCH  10  11
BRANCH   7  16
ATOM     16  C   UNL     1       7.070   7.716  34.715  0.00  0.00    +0.414 C 
ATOM     17  O   UNL     1       8.113   8.224  34.306  0.00  0.00    -0.240 OA
ATOM     18  O   UNL     1       5.990   8.177  34.345  0.00  0.00    -0.240 OA
ENDBRANCH   7  16
BRANCH   9  19
ATOM     19  O   UNL     1       3.608   5.059  35.509  0.00  0.00    -0.390 OA
ATOM     20  H   UNL     1       3.467   4.143  35.258  0.00  0.00    +0.210 HD
ENDBRANCH   9  19
BRANCH   7  21
ATOM     21  O   UNL     1       7.900   6.859  36.853  0.00  0.00    -0.343 OA
ATOM     22  C   UNL     1       7.125   7.113  38.052  0.00  0.00    +0.198 C 
ENDBRANCH   7  21
ENDBRANCH   4   5
BRANCH   4  23
ATOM     23  O   UNL     1       7.397   3.318  32.007  0.00  0.00    -0.387 OA
ATOM     24  H   UNL     1       6.517   3.683  31.883  0.00  0.00    +0.210 HD
ENDBRANCH   4  23
ENDBRANCH   1   4
BRANCH   1  25
ATOM     25  C   UNL     1       8.695   1.300  33.498  0.00  0.00    +0.141 C 
BRANCH  25  28
ATOM     26  C   UNL     1       7.273  -0.721  33.512  0.00  0.00    +0.401 C 
ATOM     27  O   UNL     1       7.495  -0.984  34.697  0.00  0.00    -0.226 OA
ATOM     28  N   UNL     1       7.797   0.323  32.869  0.00  0.00    -0.279 N 
ATOM     29  H   UNL     1       7.564   0.449  31.894  0.00  0.00    +0.152 HD
BRANCH  26  30
ATOM     30  O   UNL     1       6.409  -1.578  32.761  0.00  0.00    -0.444 OA
BRANCH  30  31
ATOM     31  C   UNL     1       5.703  -0.807  31.785  0.00  0.00    +0.292 C 
BRANCH  31  33
ATOM     32  N   UNL     1       5.165  -1.092  29.382  0.00  0.00    -0.131 NA
ATOM     33  C   UNL     1       6.043  -1.266  30.423  0.00  0.00    +0.120 A 
ATOM     34  C   UNL     1       7.183  -1.883  29.952  0.00  0.00    +0.137 A 
ATOM     35  N   UNL     1       6.933  -2.063  28.629  0.00  0.00    -0.249 N 
ATOM     36  N   UNL     1       5.727  -1.572  28.284  0.00  0.00    -0.065 NA
BRANCH  35  37
ATOM     37  C   UNL     1       7.772  -2.693  27.634  0.00  0.00    +0.178 C 
BRANCH  37  38
ATOM     38  C   UNL     1       7.384  -2.362  26.189  0.00  0.00    +0.161 C 
BRANCH  38  39
ATOM     39  O   UNL     1       8.521  -2.160  25.345  0.00  0.00    -0.388 OA
ATOM     40  H   UNL     1       9.219  -1.712  25.866  0.00  0.00    +0.210 HD
ENDBRANCH  38  39
BRANCH  38  41
ATOM     41  C   UNL     1       6.445  -3.395  25.553  0.00  0.00    +0.189 C 
BRANCH  41  42
ATOM     42  O   UNL     1       5.152  -2.842  25.308  0.00  0.00    -0.392 OA
ATOM     43  H   UNL     1       5.165  -2.418  24.429  0.00  0.00    +0.210 HD
ENDBRANCH  41  42
ENDBRANCH  38  41
ENDBRANCH  37  38
ENDBRANCH  35  37
ENDBRANCH  31  33
ENDBRANCH  30  31
ENDBRANCH  26  30
ENDBRANCH  25  28
ENDBRANCH   1  25
TORSDOF 18
