REMARK VINA RESULT:    -6.131      3.888      5.802
REMARK INTER + INTRA:         -13.180
REMARK INTER:                 -11.510
REMARK INTRA:                  -1.670
REMARK UNBOUND:                -2.568
REMARK  Name = lig_assembled_27.pdb
REMARK  16 active torsions:
REMARK  status: ('A' for Active; 'I' for Inactive)
REMARK    1  A    between atoms: _2  and  _9
REMARK    2  A    between atoms: _4  and  _18
REMARK    3  A    between atoms: _6  and  _7
REMARK    4  A    between atoms: _6  and  _18
REMARK    5  A    between atoms: _14  and  _34
REMARK    6  A    between atoms: _16  and  _22
REMARK    7  A    between atoms: _17  and  _21
REMARK    8  A    between atoms: _21  and  _22
REMARK    9  A    between atoms: _24  and  _25
REMARK   10  A    between atoms: _26  and  _27
REMARK   11  A    between atoms: _28  and  _30
REMARK   12  A    between atoms: _30  and  _31
REMARK   13  A    between atoms: _30  and  _32
REMARK   14  A    between atoms: _32  and  _33
REMARK   15  A    between atoms: _32  and  _34
REMARK   16  A    between atoms: _35  and  _37
REMARK                            x       y       z     vdW  Elec       q    Type
REMARK                         _______ _______ _______ _____ _____    ______ ____
ROOT
ATOM      1  C   UNL     1       6.286   2.864  33.592  0.00  0.00    +0.163 C 
ENDROOT
BRANCH   1   2
ATOM      2  O   UNL     1       6.312   1.788  34.545  0.00  0.00    -0.388 OA
ATOM      3  H   UNL     1       7.204   1.684  34.886  0.00  0.00    +0.210 HD
ENDBRANCH   1   2
BRANCH   1   4
ATOM      4  C   UNL     1       5.638   2.396  32.294  0.00  0.00    +0.141 C 
BRANCH   4   7
ATOM      5  C   UNL     1       3.358   3.340  32.420  0.00  0.00    +0.401 C 
ATOM      6  O   UNL     1       3.007   2.614  33.353  0.00  0.00    -0.226 OA
ATOM      7  N   UNL     1       4.567   3.301  31.859  0.00  0.00    -0.279 N 
ATOM      8  H   UNL     1       4.757   3.930  31.091  0.00  0.00    +0.152 HD
BRANCH   5   9
ATOM      9  O   UNL     1       2.426   4.285  31.888  0.00  0.00    -0.444 OA
BRANCH   9  10
ATOM     10  C   UNL     1       1.205   3.619  31.558  0.00  0.00    +0.292 C 
BRANCH  10  12
ATOM     11  N   UNL     1      -0.110   4.205  29.545  0.00  0.00    -0.131 NA
ATOM     12  C   UNL     1       0.994   3.623  30.099  0.00  0.00    +0.121 A 
ATOM     13  C   UNL     1       1.779   3.104  29.096  0.00  0.00    +0.143 A 
ATOM     14  N   UNL     1       1.113   3.403  27.929  0.00  0.00    -0.220 N 
ATOM     15  N   UNL     1      -0.032   4.066  28.228  0.00  0.00    -0.060 NA
BRANCH  14  16
ATOM     16  C   UNL     1       1.484   3.107  26.593  0.00  0.00    +0.068 A 
ATOM     17  C   UNL     1       1.880   1.804  26.252  0.00  0.00    +0.028 A 
ATOM     18  C   UNL     1       2.251   1.502  24.940  0.00  0.00    +0.003 A 
ATOM     19  C   UNL     1       2.230   2.494  23.961  0.00  0.00    +0.020 A 
ATOM     20  C   UNL     1       1.835   3.786  24.297  0.00  0.00    +0.043 A 
ATOM     21 CL   UNL     1       1.807   5.012  23.088  0.00  0.00    -0.083 Cl
ATOM     22  C   UNL     1       1.461   4.102  25.605  0.00  0.00    +0.047 A 
ENDBRANCH  14  16
ENDBRANCH  10  12
ENDBRANCH   9  10
ENDBRANCH   5   9
ENDBRANCH   4   7
ENDBRANCH   1   4
BRANCH   1  23
ATOM     23  C   UNL     1       7.707   3.376  33.301  0.00  0.00    +0.175 C 
BRANCH  23  24
ATOM     24  C   UNL     1       8.509   3.620  34.589  0.00  0.00    +0.176 C 
ATOM     25  O   UNL     1       8.879   2.324  35.136  0.00  0.00    -0.332 OA
ATOM     26  C   UNL     1       9.745   2.360  36.319  0.00  0.00    +0.277 C 
ATOM     27  C   UNL     1       9.110   3.235  37.428  0.00  0.00    +0.110 C 
ATOM     28  C   UNL     1       8.671   4.612  36.886  0.00  0.00    +0.143 C 
ATOM     29  C   UNL     1       7.777   4.457  35.655  0.00  0.00    +0.133 C 
BRANCH  29  30
ATOM     30  N   UNL     1       7.437   5.775  35.096  0.00  0.00    -0.308 N 
ATOM     31  H   UNL     1       8.171   6.297  34.638  0.00  0.00    +0.149 HD
ATOM     32  C   UNL     1       6.221   6.326  35.154  0.00  0.00    +0.210 C 
ATOM     33  C   UNL     1       5.131   5.516  35.881  0.00  0.00    +0.109 C 
ATOM     34  O   UNL     1       5.961   7.425  34.664  0.00  0.00    -0.276 OA
ENDBRANCH  29  30
BRANCH  26  35
ATOM     35  C   UNL     1      11.139   2.914  35.960  0.00  0.00    +0.414 C 
ATOM     36  O   UNL     1      11.831   3.458  36.820  0.00  0.00    -0.240 OA
ATOM     37  O   UNL     1      11.572   2.817  34.811  0.00  0.00    -0.240 OA
ENDBRANCH  26  35
BRANCH  28  38
ATOM     38  O   UNL     1       7.958   5.323  37.898  0.00  0.00    -0.390 OA
ATOM     39  H   UNL     1       7.100   5.588  37.560  0.00  0.00    +0.210 HD
ENDBRANCH  28  38
BRANCH  26  40
ATOM     40  O   UNL     1       9.873   1.005  36.823  0.00  0.00    -0.343 OA
ATOM     41  C   UNL     1       9.870  -0.029  35.806  0.00  0.00    +0.198 C 
ENDBRANCH  26  40
ENDBRANCH  23  24
BRANCH  23  42
ATOM     42  O   UNL     1       7.649   4.584  32.517  0.00  0.00    -0.387 OA
ATOM     43  H   UNL     1       7.934   5.328  33.053  0.00  0.00    +0.210 HD
ENDBRANCH  23  42
ENDBRANCH   1  23
TORSDOF 14
