REMARK VINA RESULT:    -5.433      2.453      9.374
REMARK INTER + INTRA:         -13.844
REMARK INTER:                 -11.156
REMARK INTRA:                  -2.687
REMARK UNBOUND:                -2.852
REMARK  Name = lig_assembled_11.pdb
REMARK  22 active torsions:
REMARK  status: ('A' for Active; 'I' for Inactive)
REMARK    1  A    between atoms: _2  and  _9
REMARK    2  A    between atoms: _4  and  _21
REMARK    3  A    between atoms: _5  and  _9
REMARK    4  A    between atoms: _5  and  _13
REMARK    5  A    between atoms: _6  and  _7
REMARK    6  A    between atoms: _6  and  _21
REMARK    7  A    between atoms: _9  and  _10
REMARK    8  A    between atoms: _10  and  _11
REMARK    9  A    between atoms: _11  and  _12
REMARK   10  A    between atoms: _12  and  _15
REMARK   11  A    between atoms: _17  and  _37
REMARK   12  A    between atoms: _19  and  _25
REMARK   13  A    between atoms: _20  and  _24
REMARK   14  A    between atoms: _24  and  _25
REMARK   15  A    between atoms: _27  and  _28
REMARK   16  A    between atoms: _29  and  _30
REMARK   17  A    between atoms: _31  and  _33
REMARK   18  A    between atoms: _33  and  _34
REMARK   19  A    between atoms: _33  and  _35
REMARK   20  A    between atoms: _35  and  _36
REMARK   21  A    between atoms: _35  and  _37
REMARK   22  A    between atoms: _38  and  _40
REMARK                            x       y       z     vdW  Elec       q    Type
REMARK                         _______ _______ _______ _____ _____    ______ ____
ROOT
ATOM      1  C   UNL     1      16.537   0.944  26.359  0.00  0.00    +0.163 C 
ENDROOT
BRANCH   1   2
ATOM      2  O   UNL     1      16.006   2.050  25.610  0.00  0.00    -0.388 OA
ATOM      3  H   UNL     1      15.241   1.758  25.108  0.00  0.00    +0.210 HD
ENDBRANCH   1   2
BRANCH   1   4
ATOM      4  C   UNL     1      16.691  -0.300  25.468  0.00  0.00    +0.175 C 
BRANCH   4   5
ATOM      5  C   UNL     1      17.682  -0.069  24.318  0.00  0.00    +0.176 C 
ATOM      6  O   UNL     1      17.105   0.920  23.422  0.00  0.00    -0.332 OA
ATOM      7  C   UNL     1      17.963   1.348  22.313  0.00  0.00    +0.277 C 
ATOM      8  C   UNL     1      18.445   0.123  21.498  0.00  0.00    +0.110 C 
ATOM      9  C   UNL     1      19.038  -0.971  22.411  0.00  0.00    +0.143 C 
ATOM     10  C   UNL     1      18.064  -1.338  23.532  0.00  0.00    +0.133 C 
BRANCH  10  11
ATOM     11  N   UNL     1      18.674  -2.316  24.445  0.00  0.00    -0.308 N 
ATOM     12  H   UNL     1      19.488  -2.028  24.970  0.00  0.00    +0.149 HD
ATOM     13  C   UNL     1      18.223  -3.561  24.626  0.00  0.00    +0.210 C 
ATOM     14  C   UNL     1      16.997  -3.978  23.792  0.00  0.00    +0.109 C 
ATOM     15  O   UNL     1      18.746  -4.355  25.409  0.00  0.00    -0.276 OA
ENDBRANCH  10  11
BRANCH   7  16
ATOM     16  C   UNL     1      19.184   2.132  22.836  0.00  0.00    +0.414 C 
ATOM     17  O   UNL     1      20.302   1.926  22.365  0.00  0.00    -0.240 OA
ATOM     18  O   UNL     1      19.052   2.970  23.729  0.00  0.00    -0.240 OA
ENDBRANCH   7  16
BRANCH   7  19
ATOM     19  O   UNL     1      17.175   2.197  21.439  0.00  0.00    -0.343 OA
ATOM     20  C   UNL     1      17.051   1.724  20.074  0.00  0.00    +0.198 C 
ENDBRANCH   7  19
BRANCH   9  21
ATOM     21  O   UNL     1      19.328  -2.137  21.640  0.00  0.00    -0.390 OA
ATOM     22  H   UNL     1      20.272  -2.182  21.470  0.00  0.00    +0.210 HD
ENDBRANCH   9  21
ENDBRANCH   4   5
BRANCH   4  23
ATOM     23  O   UNL     1      15.408  -0.699  24.946  0.00  0.00    -0.387 OA
ATOM     24  H   UNL     1      15.333  -0.417  24.031  0.00  0.00    +0.210 HD
ENDBRANCH   4  23
ENDBRANCH   1   4
BRANCH   1  25
ATOM     25  C   UNL     1      17.893   1.319  26.949  0.00  0.00    +0.141 C 
BRANCH  25  28
ATOM     26  C   UNL     1      18.615   2.858  28.742  0.00  0.00    +0.401 C 
ATOM     27  O   UNL     1      19.458   2.082  29.199  0.00  0.00    -0.226 OA
ATOM     28  N   UNL     1      17.835   2.581  27.697  0.00  0.00    -0.279 N 
ATOM     29  H   UNL     1      17.166   3.279  27.402  0.00  0.00    +0.152 HD
BRANCH  26  30
ATOM     30  O   UNL     1      18.443   4.137  29.358  0.00  0.00    -0.444 OA
BRANCH  30  31
ATOM     31  C   UNL     1      19.662   4.879  29.267  0.00  0.00    +0.292 C 
BRANCH  31  33
ATOM     32  N   UNL     1      19.105   7.121  28.378  0.00  0.00    -0.131 NA
ATOM     33  C   UNL     1      19.588   5.859  28.168  0.00  0.00    +0.120 A 
ATOM     34  C   UNL     1      19.953   5.734  26.847  0.00  0.00    +0.138 A 
ATOM     35  N   UNL     1      19.629   6.938  26.291  0.00  0.00    -0.238 N 
ATOM     36  N   UNL     1      19.147   7.778  27.227  0.00  0.00    -0.065 NA
BRANCH  35  37
ATOM     37  C   UNL     1      19.857   7.450  24.944  0.00  0.00    +0.217 C 
BRANCH  37  38
ATOM     38  C   UNL     1      19.445   6.485  23.843  0.00  0.00    +0.330 C 
ATOM     39  O   UNL     1      18.376   6.489  23.251  0.00  0.00    -0.249 OA
BRANCH  38  40
ATOM     40  O   UNL     1      20.387   5.557  23.541  0.00  0.00    -0.479 OA
ATOM     41  H   UNL     1      20.864   5.663  22.695  0.00  0.00    +0.295 HD
ENDBRANCH  38  40
ENDBRANCH  37  38
BRANCH  37  42
ATOM     42  C   UNL     1      21.293   7.975  24.765  0.00  0.00    +0.049 C 
BRANCH  42  43
ATOM     43  C   UNL     1      21.394   9.422  24.266  0.00  0.00    +0.123 C 
BRANCH  43  44
ATOM     44  C   UNL     1      21.226  10.401  25.406  0.00  0.00    +0.305 C 
ATOM     45  O   UNL     1      22.143  10.911  26.027  0.00  0.00    -0.251 OA
BRANCH  44  46
ATOM     46  O   UNL     1      19.928  10.646  25.693  0.00  0.00    -0.481 OA
ATOM     47  H   UNL     1      19.779  11.090  26.549  0.00  0.00    +0.295 HD
ENDBRANCH  44  46
ENDBRANCH  43  44
ENDBRANCH  42  43
ENDBRANCH  37  42
ENDBRANCH  35  37
ENDBRANCH  31  33
ENDBRANCH  30  31
ENDBRANCH  26  30
ENDBRANCH  25  28
ENDBRANCH   1  25
TORSDOF 20
