REMARK VINA RESULT:    -5.923     20.471     24.681
REMARK INTER + INTRA:         -14.086
REMARK INTER:                 -11.040
REMARK INTRA:                  -3.046
REMARK UNBOUND:                -2.450
REMARK  Name = lig_assembled_10.pdb
REMARK  21 active torsions:
REMARK  status: ('A' for Active; 'I' for Inactive)
REMARK    1  A    between atoms: _2  and  _9
REMARK    2  A    between atoms: _4  and  _20
REMARK    3  A    between atoms: _5  and  _9
REMARK    4  A    between atoms: _5  and  _12
REMARK    5  A    between atoms: _6  and  _7
REMARK    6  A    between atoms: _6  and  _20
REMARK    7  A    between atoms: _9  and  _10
REMARK    8  A    between atoms: _10  and  _11
REMARK    9  A    between atoms: _11  and  _14
REMARK   10  A    between atoms: _16  and  _36
REMARK   11  A    between atoms: _18  and  _24
REMARK   12  A    between atoms: _19  and  _23
REMARK   13  A    between atoms: _23  and  _24
REMARK   14  A    between atoms: _26  and  _27
REMARK   15  A    between atoms: _28  and  _29
REMARK   16  A    between atoms: _30  and  _32
REMARK   17  A    between atoms: _32  and  _33
REMARK   18  A    between atoms: _32  and  _34
REMARK   19  A    between atoms: _34  and  _35
REMARK   20  A    between atoms: _34  and  _36
REMARK   21  A    between atoms: _37  and  _39
REMARK                            x       y       z     vdW  Elec       q    Type
REMARK                         _______ _______ _______ _____ _____    ______ ____
ROOT
ATOM      1  C   UNL     1      11.120  26.895  21.299  0.00  0.00    +0.163 C 
ENDROOT
BRANCH   1   2
ATOM      2  O   UNL     1      10.017  27.604  21.887  0.00  0.00    -0.388 OA
ATOM      3  H   UNL     1       9.678  28.247  21.259  0.00  0.00    +0.210 HD
ENDBRANCH   1   2
BRANCH   1   4
ATOM      4  C   UNL     1      10.921  25.374  21.417  0.00  0.00    +0.175 C 
BRANCH   4   5
ATOM      5  C   UNL     1      10.126  24.991  22.675  0.00  0.00    +0.176 C 
ATOM      6  O   UNL     1       8.729  25.313  22.436  0.00  0.00    -0.332 OA
ATOM      7  C   UNL     1       7.797  24.916  23.496  0.00  0.00    +0.277 C 
ATOM      8  C   UNL     1       8.244  25.502  24.857  0.00  0.00    +0.110 C 
ATOM      9  C   UNL     1       9.733  25.213  25.141  0.00  0.00    +0.143 C 
ATOM     10  C   UNL     1      10.611  25.662  23.973  0.00  0.00    +0.133 C 
BRANCH  10  11
ATOM     11  N   UNL     1      12.017  25.303  24.217  0.00  0.00    -0.308 N 
ATOM     12  H   UNL     1      12.271  24.326  24.160  0.00  0.00    +0.149 HD
ATOM     13  C   UNL     1      12.980  26.182  24.508  0.00  0.00    +0.210 C 
ATOM     14  C   UNL     1      12.556  27.659  24.613  0.00  0.00    +0.109 C 
ATOM     15  O   UNL     1      14.152  25.853  24.693  0.00  0.00    -0.276 OA
ENDBRANCH  10  11
BRANCH   7  16
ATOM     16  C   UNL     1       7.710  23.379  23.600  0.00  0.00    +0.414 C 
ATOM     17  O   UNL     1       7.082  22.735  22.760  0.00  0.00    -0.240 OA
ATOM     18  O   UNL     1       8.267  22.783  24.524  0.00  0.00    -0.240 OA
ENDBRANCH   7  16
BRANCH   7  19
ATOM     19  O   UNL     1       6.491  25.458  23.171  0.00  0.00    -0.343 OA
ATOM     20  C   UNL     1       6.499  26.537  22.203  0.00  0.00    +0.198 C 
ENDBRANCH   7  19
BRANCH   9  21
ATOM     21  O   UNL     1      10.140  25.897  26.326  0.00  0.00    -0.390 OA
ATOM     22  H   UNL     1      10.603  25.287  26.906  0.00  0.00    +0.210 HD
ENDBRANCH   9  21
ENDBRANCH   4   5
BRANCH   4  23
ATOM     23  O   UNL     1      12.197  24.704  21.413  0.00  0.00    -0.387 OA
ATOM     24  H   UNL     1      12.844  25.245  21.872  0.00  0.00    +0.210 HD
ENDBRANCH   4  23
ENDBRANCH   1   4
BRANCH   1  25
ATOM     25  C   UNL     1      11.263  27.277  19.830  0.00  0.00    +0.141 C 
BRANCH  25  28
ATOM     26  C   UNL     1      12.096  26.083  17.834  0.00  0.00    +0.401 C 
ATOM     27  O   UNL     1      11.190  26.483  17.100  0.00  0.00    -0.226 OA
ATOM     28  N   UNL     1      12.205  26.399  19.125  0.00  0.00    -0.279 N 
ATOM     29  H   UNL     1      12.979  26.013  19.647  0.00  0.00    +0.152 HD
BRANCH  26  30
ATOM     30  O   UNL     1      13.101  25.222  17.291  0.00  0.00    -0.444 OA
BRANCH  30  31
ATOM     31  C   UNL     1      12.718  23.858  17.487  0.00  0.00    +0.292 C 
BRANCH  31  33
ATOM     32  N   UNL     1      13.229  22.073  19.127  0.00  0.00    -0.131 NA
ATOM     33  C   UNL     1      13.604  23.217  18.478  0.00  0.00    +0.120 A 
ATOM     34  C   UNL     1      14.860  23.586  18.905  0.00  0.00    +0.138 A 
ATOM     35  N   UNL     1      15.215  22.607  19.781  0.00  0.00    -0.237 N 
ATOM     36  N   UNL     1      14.218  21.711  19.929  0.00  0.00    -0.065 NA
BRANCH  35  37
ATOM     37  C   UNL     1      16.443  22.400  20.533  0.00  0.00    +0.227 C 
BRANCH  37  38
ATOM     38  C   UNL     1      16.500  21.095  21.297  0.00  0.00    +0.330 C 
ATOM     39  O   UNL     1      17.397  20.280  21.114  0.00  0.00    -0.249 OA
BRANCH  38  40
ATOM     40  O   UNL     1      15.546  20.877  22.226  0.00  0.00    -0.479 OA
ATOM     41  H   UNL     1      14.624  20.731  21.892  0.00  0.00    +0.295 HD
ENDBRANCH  38  40
ENDBRANCH  37  38
BRANCH  37  42
ATOM     42  C   UNL     1      16.865  23.599  21.393  0.00  0.00    +0.158 C 
BRANCH  42  43
ATOM     43  C   UNL     1      15.693  24.246  22.075  0.00  0.00    +0.307 C 
ATOM     44  O   UNL     1      15.180  25.292  21.698  0.00  0.00    -0.251 OA
BRANCH  43  45
ATOM     45  O   UNL     1      15.201  23.527  23.101  0.00  0.00    -0.481 OA
ATOM     46  H   UNL     1      15.489  23.816  23.989  0.00  0.00    +0.295 HD
ENDBRANCH  43  45
ENDBRANCH  42  43
ENDBRANCH  37  42
ENDBRANCH  35  37
ENDBRANCH  31  33
ENDBRANCH  30  31
ENDBRANCH  26  30
ENDBRANCH  25  28
ENDBRANCH   1  25
TORSDOF 19
