REMARK VINA RESULT:    -6.019     12.154     13.931
REMARK INTER + INTRA:         -12.985
REMARK INTER:                 -10.668
REMARK INTRA:                  -2.317
REMARK UNBOUND:                -2.568
REMARK  Name = lig_assembled_27.pdb
REMARK  16 active torsions:
REMARK  status: ('A' for Active; 'I' for Inactive)
REMARK    1  A    between atoms: _2  and  _9
REMARK    2  A    between atoms: _4  and  _18
REMARK    3  A    between atoms: _6  and  _7
REMARK    4  A    between atoms: _6  and  _18
REMARK    5  A    between atoms: _14  and  _34
REMARK    6  A    between atoms: _16  and  _22
REMARK    7  A    between atoms: _17  and  _21
REMARK    8  A    between atoms: _21  and  _22
REMARK    9  A    between atoms: _24  and  _25
REMARK   10  A    between atoms: _26  and  _27
REMARK   11  A    between atoms: _28  and  _30
REMARK   12  A    between atoms: _30  and  _31
REMARK   13  A    between atoms: _30  and  _32
REMARK   14  A    between atoms: _32  and  _33
REMARK   15  A    between atoms: _32  and  _34
REMARK   16  A    between atoms: _35  and  _37
REMARK                            x       y       z     vdW  Elec       q    Type
REMARK                         _______ _______ _______ _____ _____    ______ ____
ROOT
ATOM      1  C   UNL     1      18.529  10.186  29.907  0.00  0.00    +0.163 C 
ENDROOT
BRANCH   1   2
ATOM      2  O   UNL     1      17.211  10.537  30.360  0.00  0.00    -0.388 OA
ATOM      3  H   UNL     1      17.088  10.225  31.259  0.00  0.00    +0.210 HD
ENDBRANCH   1   2
BRANCH   1   4
ATOM      4  C   UNL     1      18.686  10.543  28.432  0.00  0.00    +0.141 C 
BRANCH   4   7
ATOM      5  C   UNL     1      19.854   9.476  26.534  0.00  0.00    +0.401 C 
ATOM      6  O   UNL     1      20.274  10.540  26.073  0.00  0.00    -0.226 OA
ATOM      7  N   UNL     1      19.099   9.385  27.630  0.00  0.00    -0.279 N 
ATOM      8  H   UNL     1      18.794   8.468  27.924  0.00  0.00    +0.152 HD
BRANCH   5   9
ATOM      9  O   UNL     1      20.178   8.253  25.867  0.00  0.00    -0.444 OA
BRANCH   9  10
ATOM     10  C   UNL     1      19.277   7.226  26.288  0.00  0.00    +0.292 C 
BRANCH  10  12
ATOM     11  N   UNL     1      18.260   7.086  24.036  0.00  0.00    -0.131 NA
ATOM     12  C   UNL     1      18.794   6.459  25.125  0.00  0.00    +0.121 A 
ATOM     13  C   UNL     1      18.782   5.101  24.911  0.00  0.00    +0.143 A 
ATOM     14  N   UNL     1      18.234   4.941  23.659  0.00  0.00    -0.220 N 
ATOM     15  N   UNL     1      17.921   6.158  23.151  0.00  0.00    -0.060 NA
BRANCH  14  16
ATOM     16  C   UNL     1      17.997   3.742  22.938  0.00  0.00    +0.068 A 
ATOM     17  C   UNL     1      17.023   3.719  21.927  0.00  0.00    +0.028 A 
ATOM     18  C   UNL     1      16.778   2.543  21.213  0.00  0.00    +0.003 A 
ATOM     19  C   UNL     1      17.500   1.386  21.503  0.00  0.00    +0.020 A 
ATOM     20  C   UNL     1      18.467   1.409  22.504  0.00  0.00    +0.043 A 
ATOM     21 CL   UNL     1      19.360  -0.020  22.860  0.00  0.00    -0.083 Cl
ATOM     22  C   UNL     1      18.722   2.577  23.224  0.00  0.00    +0.047 A 
ENDBRANCH  14  16
ENDBRANCH  10  12
ENDBRANCH   9  10
ENDBRANCH   5   9
ENDBRANCH   4   7
ENDBRANCH   1   4
BRANCH   1  23
ATOM     23  C   UNL     1      18.797   8.684  30.103  0.00  0.00    +0.175 C 
BRANCH  23  24
ATOM     24  C   UNL     1      17.996   8.103  31.277  0.00  0.00    +0.176 C 
ATOM     25  O   UNL     1      18.067   9.049  32.379  0.00  0.00    -0.332 OA
ATOM     26  C   UNL     1      17.268   8.709  33.560  0.00  0.00    +0.277 C 
ATOM     27  C   UNL     1      17.625   7.290  34.065  0.00  0.00    +0.110 C 
ATOM     28  C   UNL     1      17.593   6.254  32.922  0.00  0.00    +0.143 C 
ATOM     29  C   UNL     1      18.456   6.709  31.744  0.00  0.00    +0.133 C 
BRANCH  29  30
ATOM     30  N   UNL     1      18.349   5.757  30.628  0.00  0.00    -0.308 N 
ATOM     31  H   UNL     1      17.464   5.696  30.144  0.00  0.00    +0.149 HD
ATOM     32  C   UNL     1      19.344   4.968  30.213  0.00  0.00    +0.210 C 
ATOM     33  C   UNL     1      20.671   5.066  30.989  0.00  0.00    +0.109 C 
ATOM     34  O   UNL     1      19.230   4.190  29.266  0.00  0.00    -0.276 OA
ENDBRANCH  29  30
BRANCH  26  35
ATOM     35  C   UNL     1      15.760   8.778  33.238  0.00  0.00    +0.414 C 
ATOM     36  O   UNL     1      15.006   7.880  33.610  0.00  0.00    -0.240 OA
ATOM     37  O   UNL     1      15.299   9.730  32.607  0.00  0.00    -0.240 OA
ENDBRANCH  26  35
BRANCH  28  38
ATOM     38  O   UNL     1      18.074   4.996  33.398  0.00  0.00    -0.390 OA
ATOM     39  H   UNL     1      18.022   4.975  34.356  0.00  0.00    +0.210 HD
ENDBRANCH  28  38
BRANCH  26  40
ATOM     40  O   UNL     1      17.587   9.661  34.607  0.00  0.00    -0.343 OA
ATOM     41  C   UNL     1      17.121   9.294  35.931  0.00  0.00    +0.198 C 
ENDBRANCH  26  40
ENDBRANCH  23  24
BRANCH  23  42
ATOM     42  O   UNL     1      20.206   8.453  30.300  0.00  0.00    -0.387 OA
ATOM     43  H   UNL     1      20.710   9.045  29.737  0.00  0.00    +0.210 HD
ENDBRANCH  23  42
ENDBRANCH   1  23
TORSDOF 14
