REMARK VINA RESULT:    -5.556      9.434     13.696
REMARK INTER + INTRA:         -13.342
REMARK INTER:                 -11.238
REMARK INTRA:                  -2.104
REMARK UNBOUND:                -3.239
REMARK  Name = lig_assembled_88.pdb
REMARK  18 active torsions:
REMARK  status: ('A' for Active; 'I' for Inactive)
REMARK    1  A    between atoms: _2  and  _9
REMARK    2  A    between atoms: _4  and  _20
REMARK    3  A    between atoms: _5  and  _15
REMARK    4  A    between atoms: _6  and  _7
REMARK    5  A    between atoms: _6  and  _20
REMARK    6  A    between atoms: _9  and  _10
REMARK    7  A    between atoms: _16  and  _36
REMARK    8  A    between atoms: _18  and  _24
REMARK    9  A    between atoms: _19  and  _23
REMARK   10  A    between atoms: _23  and  _24
REMARK   11  A    between atoms: _26  and  _27
REMARK   12  A    between atoms: _28  and  _29
REMARK   13  A    between atoms: _30  and  _32
REMARK   14  A    between atoms: _32  and  _33
REMARK   15  A    between atoms: _32  and  _34
REMARK   16  A    between atoms: _34  and  _35
REMARK   17  A    between atoms: _34  and  _36
REMARK   18  A    between atoms: _37  and  _39
REMARK                            x       y       z     vdW  Elec       q    Type
REMARK                         _______ _______ _______ _____ _____    ______ ____
ROOT
ATOM      1  C   UNL     1      10.219   4.255  37.400  0.00  0.00    +0.163 C 
ENDROOT
BRANCH   1   2
ATOM      2  O   UNL     1      10.271   5.665  37.125  0.00  0.00    -0.388 OA
ATOM      3  H   UNL     1      11.169   5.982  37.249  0.00  0.00    +0.210 HD
ENDBRANCH   1   2
BRANCH   1   4
ATOM      4  C   UNL     1       9.407   3.515  36.323  0.00  0.00    +0.175 C 
BRANCH   4   5
ATOM      5  C   UNL     1       8.369   4.427  35.653  0.00  0.00    +0.176 C 
ATOM      6  O   UNL     1       7.673   5.157  36.700  0.00  0.00    -0.332 OA
ATOM      7  C   UNL     1       6.710   6.162  36.239  0.00  0.00    +0.277 C 
ATOM      8  C   UNL     1       5.681   5.524  35.274  0.00  0.00    +0.110 C 
ATOM      9  C   UNL     1       6.374   4.710  34.161  0.00  0.00    +0.143 C 
ATOM     10  C   UNL     1       7.356   3.697  34.752  0.00  0.00    +0.133 C 
BRANCH  10  11
ATOM     11  N   UNL     1       8.073   2.988  33.680  0.00  0.00    -0.308 N 
ATOM     12  H   UNL     1       8.714   3.521  33.109  0.00  0.00    +0.149 HD
ATOM     13  C   UNL     1       7.932   1.687  33.412  0.00  0.00    +0.210 C 
ATOM     14  C   UNL     1       6.928   0.909  34.283  0.00  0.00    +0.109 C 
ATOM     15  O   UNL     1       8.557   1.117  32.517  0.00  0.00    -0.276 OA
ENDBRANCH  10  11
BRANCH   7  16
ATOM     16  C   UNL     1       7.432   7.325  35.528  0.00  0.00    +0.414 C 
ATOM     17  O   UNL     1       6.854   7.974  34.656  0.00  0.00    -0.240 OA
ATOM     18  O   UNL     1       8.591   7.616  35.825  0.00  0.00    -0.240 OA
ENDBRANCH   7  16
BRANCH   7  19
ATOM     19  O   UNL     1       5.998   6.666  37.399  0.00  0.00    -0.343 OA
ATOM     20  C   UNL     1       4.668   6.120  37.585  0.00  0.00    +0.198 C 
ENDBRANCH   7  19
BRANCH   9  21
ATOM     21  O   UNL     1       5.393   4.018  33.388  0.00  0.00    -0.390 OA
ATOM     22  H   UNL     1       4.793   3.551  33.975  0.00  0.00    +0.210 HD
ENDBRANCH   9  21
ENDBRANCH   4   5
BRANCH   4  23
ATOM     23  O   UNL     1       8.758   2.362  36.896  0.00  0.00    -0.387 OA
ATOM     24  H   UNL     1       8.873   1.607  36.314  0.00  0.00    +0.210 HD
ENDBRANCH   4  23
ENDBRANCH   1   4
BRANCH   1  25
ATOM     25  C   UNL     1      11.631   3.682  37.456  0.00  0.00    +0.141 C 
BRANCH  25  28
ATOM     26  C   UNL     1      13.497   4.798  36.280  0.00  0.00    +0.401 C 
ATOM     27  O   UNL     1      13.956   5.314  37.302  0.00  0.00    -0.226 OA
ATOM     28  N   UNL     1      12.410   4.025  36.260  0.00  0.00    -0.279 N 
ATOM     29  H   UNL     1      12.105   3.655  35.370  0.00  0.00    +0.152 HD
BRANCH  26  30
ATOM     30  O   UNL     1      14.150   5.031  35.030  0.00  0.00    -0.444 OA
BRANCH  30  31
ATOM     31  C   UNL     1      15.485   5.486  35.267  0.00  0.00    +0.292 C 
BRANCH  31  33
ATOM     32  N   UNL     1      15.239   6.716  33.131  0.00  0.00    -0.131 NA
ATOM     33  C   UNL     1      15.813   6.612  34.371  0.00  0.00    +0.120 A 
ATOM     34  C   UNL     1      16.681   7.666  34.556  0.00  0.00    +0.137 A 
ATOM     35  N   UNL     1      16.645   8.330  33.365  0.00  0.00    -0.247 N 
ATOM     36  N   UNL     1      15.740   7.786  32.530  0.00  0.00    -0.065 NA
BRANCH  35  37
ATOM     37  C   UNL     1      17.485   9.435  32.928  0.00  0.00    +0.184 C 
BRANCH  37  38
ATOM     38  C   UNL     1      18.212   9.154  31.629  0.00  0.00    +0.017 A 
ATOM     39  C   UNL     1      19.093   8.066  31.475  0.00  0.00    +0.024 A 
ATOM     40  C   UNL     1      19.748   7.838  30.262  0.00  0.00    +0.019 A 
ATOM     41 BR   UNL     1      20.961   6.396  30.110  0.00  0.00    -0.050 Br
ATOM     42  C   UNL     1      19.520   8.662  29.164  0.00  0.00    +0.034 A 
ATOM     43  C   UNL     1      18.616   9.714  29.286  0.00  0.00    +0.061 A 
ATOM     44 BR   UNL     1      18.281  10.811  27.777  0.00  0.00    -0.046 Br
ATOM     45  C   UNL     1      17.966   9.954  30.504  0.00  0.00    +0.136 A 
BRANCH  45  46
ATOM     46  O   UNL     1      17.063  10.977  30.630  0.00  0.00    -0.505 OA
ATOM     47  H   UNL     1      16.344  10.666  31.213  0.00  0.00    +0.292 HD
ENDBRANCH  45  46
ENDBRANCH  37  38
ENDBRANCH  35  37
ENDBRANCH  31  33
ENDBRANCH  30  31
ENDBRANCH  26  30
ENDBRANCH  25  28
ENDBRANCH   1  25
TORSDOF 16
