REMARK VINA RESULT:    -6.347      1.768      2.755
REMARK INTER + INTRA:         -13.356
REMARK INTER:                 -10.858
REMARK INTRA:                  -2.498
REMARK UNBOUND:                -1.444
REMARK  Name = lig_assembled_16.pdb
REMARK  19 active torsions:
REMARK  status: ('A' for Active; 'I' for Inactive)
REMARK    1  A    between atoms: _2  and  _9
REMARK    2  A    between atoms: _4  and  _22
REMARK    3  A    between atoms: _6  and  _7
REMARK    4  A    between atoms: _6  and  _22
REMARK    5  A    between atoms: _9  and  _10
REMARK    6  A    between atoms: _13  and  _14
REMARK    7  A    between atoms: _14  and  _16
REMARK    8  A    between atoms: _18  and  _38
REMARK    9  A    between atoms: _20  and  _26
REMARK   10  A    between atoms: _21  and  _25
REMARK   11  A    between atoms: _25  and  _26
REMARK   12  A    between atoms: _28  and  _29
REMARK   13  A    between atoms: _30  and  _31
REMARK   14  A    between atoms: _32  and  _34
REMARK   15  A    between atoms: _34  and  _35
REMARK   16  A    between atoms: _34  and  _36
REMARK   17  A    between atoms: _36  and  _37
REMARK   18  A    between atoms: _36  and  _38
REMARK   19  A    between atoms: _39  and  _41
REMARK                            x       y       z     vdW  Elec       q    Type
REMARK                         _______ _______ _______ _____ _____    ______ ____
ROOT
ATOM      1  C   UNL     1       9.789   4.051  37.621  0.00  0.00    +0.163 C 
ENDROOT
BRANCH   1   2
ATOM      2  O   UNL     1      10.135   5.423  37.368  0.00  0.00    -0.388 OA
ATOM      3  H   UNL     1       9.710   5.986  38.020  0.00  0.00    +0.210 HD
ENDBRANCH   1   2
BRANCH   1   4
ATOM      4  C   UNL     1       9.100   3.424  36.397  0.00  0.00    +0.175 C 
BRANCH   4   5
ATOM      5  C   UNL     1       8.176   4.419  35.681  0.00  0.00    +0.176 C 
ATOM      6  O   UNL     1       7.474   5.189  36.696  0.00  0.00    -0.332 OA
ATOM      7  C   UNL     1       6.619   6.269  36.195  0.00  0.00    +0.277 C 
ATOM      8  C   UNL     1       5.605   5.721  35.161  0.00  0.00    +0.110 C 
ATOM      9  C   UNL     1       6.301   4.869  34.078  0.00  0.00    +0.143 C 
ATOM     10  C   UNL     1       7.166   3.778  34.710  0.00  0.00    +0.133 C 
BRANCH  10  11
ATOM     11  N   UNL     1       7.891   3.029  33.671  0.00  0.00    -0.308 N 
ATOM     12  H   UNL     1       8.613   3.514  33.158  0.00  0.00    +0.149 HD
ATOM     13  C   UNL     1       7.657   1.751  33.364  0.00  0.00    +0.210 C 
ATOM     14  C   UNL     1       6.533   1.048  34.147  0.00  0.00    +0.109 C 
ATOM     15  O   UNL     1       8.290   1.145  32.499  0.00  0.00    -0.276 OA
ENDBRANCH  10  11
BRANCH   7  16
ATOM     16  C   UNL     1       7.468   7.382  35.545  0.00  0.00    +0.414 C 
ATOM     17  O   UNL     1       6.972   8.126  34.700  0.00  0.00    -0.240 OA
ATOM     18  O   UNL     1       8.647   7.536  35.867  0.00  0.00    -0.240 OA
ENDBRANCH   7  16
BRANCH   7  19
ATOM     19  O   UNL     1       5.878   6.813  37.318  0.00  0.00    -0.343 OA
ATOM     20  C   UNL     1       4.677   6.081  37.671  0.00  0.00    +0.198 C 
ENDBRANCH   7  19
BRANCH   9  21
ATOM     21  O   UNL     1       5.318   4.262  33.238  0.00  0.00    -0.390 OA
ATOM     22  H   UNL     1       5.694   3.487  32.814  0.00  0.00    +0.210 HD
ENDBRANCH   9  21
ENDBRANCH   4   5
BRANCH   4  23
ATOM     23  O   UNL     1       8.357   2.253  36.792  0.00  0.00    -0.387 OA
ATOM     24  H   UNL     1       7.423   2.467  36.841  0.00  0.00    +0.210 HD
ENDBRANCH   4  23
ENDBRANCH   1   4
BRANCH   1  25
ATOM     25  C   UNL     1      11.043   3.253  37.964  0.00  0.00    +0.141 C 
BRANCH  25  28
ATOM     26  C   UNL     1      12.090   1.203  37.067  0.00  0.00    +0.401 C 
ATOM     27  O   UNL     1      12.457   0.794  38.171  0.00  0.00    -0.226 OA
ATOM     28  N   UNL     1      11.429   2.345  36.877  0.00  0.00    -0.279 N 
ATOM     29  H   UNL     1      11.179   2.601  35.932  0.00  0.00    +0.152 HD
BRANCH  26  30
ATOM     30  O   UNL     1      12.385   0.424  35.904  0.00  0.00    -0.444 OA
BRANCH  30  31
ATOM     31  C   UNL     1      13.761   0.590  35.554  0.00  0.00    +0.292 C 
BRANCH  31  33
ATOM     32  N   UNL     1      13.382   2.739  34.382  0.00  0.00    -0.131 NA
ATOM     33  C   UNL     1      14.062   2.014  35.327  0.00  0.00    +0.120 A 
ATOM     34  C   UNL     1      14.967   2.837  35.960  0.00  0.00    +0.137 A 
ATOM     35  N   UNL     1      14.719   4.065  35.423  0.00  0.00    -0.247 N 
ATOM     36  N   UNL     1      13.805   3.995  34.439  0.00  0.00    -0.065 NA
BRANCH  35  37
ATOM     37  C   UNL     1      15.291   5.338  35.811  0.00  0.00    +0.180 C 
BRANCH  37  38
ATOM     38  C   UNL     1      15.844   6.080  34.614  0.00  0.00    -0.026 A 
ATOM     39  C   UNL     1      15.303   7.314  34.225  0.00  0.00    +0.006 A 
ATOM     40  C   UNL     1      15.843   8.012  33.141  0.00  0.00    +0.015 A 
ATOM     41  C   UNL     1      16.919   7.484  32.425  0.00  0.00    +0.059 A 
ATOM     42  C   UNL     1      17.454   6.240  32.791  0.00  0.00    +0.015 A 
ATOM     43  C   UNL     1      16.908   5.540  33.872  0.00  0.00    +0.006 A 
BRANCH  41  44
ATOM     44  C   UNL     1      17.501   8.302  31.328  0.00  0.00    +0.337 C 
ATOM     45  O   UNL     1      17.356   9.512  31.264  0.00  0.00    -0.245 OA
BRANCH  44  46
ATOM     46  O   UNL     1      18.167   7.589  30.401  0.00  0.00    -0.477 OA
ATOM     47  H   UNL     1      19.118   7.465  30.575  0.00  0.00    +0.295 HD
ENDBRANCH  44  46
ENDBRANCH  41  44
ENDBRANCH  37  38
ENDBRANCH  35  37
ENDBRANCH  31  33
ENDBRANCH  30  31
ENDBRANCH  26  30
ENDBRANCH  25  28
ENDBRANCH   1  25
TORSDOF 17
