REMARK VINA RESULT:    -5.725     24.842     27.891
REMARK INTER + INTRA:         -13.696
REMARK INTER:                 -11.648
REMARK INTRA:                  -2.048
REMARK UNBOUND:                -2.450
REMARK  Name = lig_assembled_10.pdb
REMARK  21 active torsions:
REMARK  status: ('A' for Active; 'I' for Inactive)
REMARK    1  A    between atoms: _2  and  _9
REMARK    2  A    between atoms: _4  and  _20
REMARK    3  A    between atoms: _5  and  _9
REMARK    4  A    between atoms: _5  and  _12
REMARK    5  A    between atoms: _6  and  _7
REMARK    6  A    between atoms: _6  and  _20
REMARK    7  A    between atoms: _9  and  _10
REMARK    8  A    between atoms: _10  and  _11
REMARK    9  A    between atoms: _11  and  _14
REMARK   10  A    between atoms: _16  and  _36
REMARK   11  A    between atoms: _18  and  _24
REMARK   12  A    between atoms: _19  and  _23
REMARK   13  A    between atoms: _23  and  _24
REMARK   14  A    between atoms: _26  and  _27
REMARK   15  A    between atoms: _28  and  _29
REMARK   16  A    between atoms: _30  and  _32
REMARK   17  A    between atoms: _32  and  _33
REMARK   18  A    between atoms: _32  and  _34
REMARK   19  A    between atoms: _34  and  _35
REMARK   20  A    between atoms: _34  and  _36
REMARK   21  A    between atoms: _37  and  _39
REMARK                            x       y       z     vdW  Elec       q    Type
REMARK                         _______ _______ _______ _____ _____    ______ ____
ROOT
ATOM      1  C   UNL     1      -1.294  18.838  12.329  0.00  0.00    +0.163 C 
ENDROOT
BRANCH   1   2
ATOM      2  O   UNL     1       0.133  18.893  12.497  0.00  0.00    -0.388 OA
ATOM      3  H   UNL     1       0.547  19.086  11.652  0.00  0.00    +0.210 HD
ENDBRANCH   1   2
BRANCH   1   4
ATOM      4  C   UNL     1      -1.825  17.420  12.600  0.00  0.00    +0.175 C 
BRANCH   4   5
ATOM      5  C   UNL     1      -0.825  16.337  12.170  0.00  0.00    +0.176 C 
ATOM      6  O   UNL     1      -0.279  16.720  10.878  0.00  0.00    -0.332 OA
ATOM      7  C   UNL     1       0.779  15.851  10.354  0.00  0.00    +0.277 C 
ATOM      8  C   UNL     1       0.296  14.381  10.302  0.00  0.00    +0.110 C 
ATOM      9  C   UNL     1      -0.322  13.937  11.645  0.00  0.00    +0.143 C 
ATOM     10  C   UNL     1      -1.408  14.913  12.098  0.00  0.00    +0.133 C 
BRANCH  10  11
ATOM     11  N   UNL     1      -1.928  14.528  13.419  0.00  0.00    -0.308 N 
ATOM     12  H   UNL     1      -1.304  14.597  14.210  0.00  0.00    +0.149 HD
ATOM     13  C   UNL     1      -3.172  14.093  13.641  0.00  0.00    +0.210 C 
ATOM     14  C   UNL     1      -4.091  13.974  12.411  0.00  0.00    +0.109 C 
ATOM     15  O   UNL     1      -3.585  13.791  14.761  0.00  0.00    -0.276 OA
ENDBRANCH  10  11
BRANCH   7  16
ATOM     16  C   UNL     1       2.048  15.947  11.226  0.00  0.00    +0.414 C 
ATOM     17  O   UNL     1       2.007  16.505  12.322  0.00  0.00    -0.240 OA
ATOM     18  O   UNL     1       3.112  15.465  10.835  0.00  0.00    -0.240 OA
ENDBRANCH   7  16
BRANCH   7  19
ATOM     19  O   UNL     1       1.084  16.280   9.001  0.00  0.00    -0.343 OA
ATOM     20  C   UNL     1      -0.067  16.666   8.208  0.00  0.00    +0.198 C 
ENDBRANCH   7  19
BRANCH   9  21
ATOM     21  O   UNL     1      -0.888  12.633  11.507  0.00  0.00    -0.390 OA
ATOM     22  H   UNL     1      -0.634  12.262  10.659  0.00  0.00    +0.210 HD
ENDBRANCH   9  21
ENDBRANCH   4   5
BRANCH   4  23
ATOM     23  O   UNL     1      -3.086  17.226  11.930  0.00  0.00    -0.387 OA
ATOM     24  H   UNL     1      -3.342  18.038  11.486  0.00  0.00    +0.210 HD
ENDBRANCH   4  23
ENDBRANCH   1   4
BRANCH   1  25
ATOM     25  C   UNL     1      -1.969  19.824  13.277  0.00  0.00    +0.141 C 
BRANCH  25  28
ATOM     26  C   UNL     1      -1.534  20.875  15.471  0.00  0.00    +0.401 C 
ATOM     27  O   UNL     1      -2.634  21.428  15.530  0.00  0.00    -0.226 OA
ATOM     28  N   UNL     1      -1.137  20.112  14.452  0.00  0.00    -0.279 N 
ATOM     29  H   UNL     1      -0.211  19.709  14.490  0.00  0.00    +0.152 HD
BRANCH  26  30
ATOM     30  O   UNL     1      -0.609  21.052  16.547  0.00  0.00    -0.444 OA
BRANCH  30  31
ATOM     31  C   UNL     1      -1.112  22.039  17.451  0.00  0.00    +0.292 C 
BRANCH  31  33
ATOM     32  N   UNL     1      -1.938  22.170  19.783  0.00  0.00    -0.131 NA
ATOM     33  C   UNL     1      -1.439  21.423  18.751  0.00  0.00    +0.120 A 
ATOM     34  C   UNL     1      -1.332  20.111  19.154  0.00  0.00    +0.138 A 
ATOM     35  N   UNL     1      -1.821  20.112  20.425  0.00  0.00    -0.237 N 
ATOM     36  N   UNL     1      -2.161  21.359  20.806  0.00  0.00    -0.065 NA
BRANCH  35  37
ATOM     37  C   UNL     1      -2.018  19.025  21.371  0.00  0.00    +0.227 C 
BRANCH  37  38
ATOM     38  C   UNL     1      -2.821  19.398  22.599  0.00  0.00    +0.330 C 
ATOM     39  O   UNL     1      -4.022  19.168  22.677  0.00  0.00    -0.249 OA
BRANCH  38  40
ATOM     40  O   UNL     1      -2.155  19.958  23.630  0.00  0.00    -0.479 OA
ATOM     41  H   UNL     1      -1.339  19.487  23.942  0.00  0.00    +0.295 HD
ENDBRANCH  38  40
ENDBRANCH  37  38
BRANCH  37  42
ATOM     42  C   UNL     1      -0.738  18.256  21.723  0.00  0.00    +0.158 C 
BRANCH  42  43
ATOM     43  C   UNL     1      -0.641  16.950  20.985  0.00  0.00    +0.307 C 
ATOM     44  O   UNL     1      -0.040  16.810  19.927  0.00  0.00    -0.251 OA
BRANCH  43  45
ATOM     45  O   UNL     1      -1.212  15.918  21.636  0.00  0.00    -0.481 OA
ATOM     46  H   UNL     1      -1.897  15.436  21.133  0.00  0.00    +0.295 HD
ENDBRANCH  43  45
ENDBRANCH  42  43
ENDBRANCH  37  42
ENDBRANCH  35  37
ENDBRANCH  31  33
ENDBRANCH  30  31
ENDBRANCH  26  30
ENDBRANCH  25  28
ENDBRANCH   1  25
TORSDOF 19
