REMARK VINA RESULT:    -5.598     18.356     20.418
REMARK INTER + INTRA:         -13.311
REMARK INTER:                 -11.259
REMARK INTRA:                  -2.052
REMARK UNBOUND:                -2.640
REMARK  Name = lig_assembled_29.pdb
REMARK  21 active torsions:
REMARK  status: ('A' for Active; 'I' for Inactive)
REMARK    1  A    between atoms: _2  and  _9
REMARK    2  A    between atoms: _4  and  _23
REMARK    3  A    between atoms: _6  and  _7
REMARK    4  A    between atoms: _6  and  _23
REMARK    5  A    between atoms: _9  and  _10
REMARK    6  A    between atoms: _12  and  _18
REMARK    7  A    between atoms: _13  and  _18
REMARK    8  A    between atoms: _14  and  _17
REMARK    9  A    between atoms: _15  and  _17
REMARK   10  A    between atoms: _19  and  _39
REMARK   11  A    between atoms: _21  and  _27
REMARK   12  A    between atoms: _22  and  _26
REMARK   13  A    between atoms: _26  and  _27
REMARK   14  A    between atoms: _29  and  _30
REMARK   15  A    between atoms: _31  and  _32
REMARK   16  A    between atoms: _33  and  _35
REMARK   17  A    between atoms: _35  and  _36
REMARK   18  A    between atoms: _35  and  _37
REMARK   19  A    between atoms: _37  and  _38
REMARK   20  A    between atoms: _37  and  _39
REMARK   21  A    between atoms: _40  and  _42
REMARK                            x       y       z     vdW  Elec       q    Type
REMARK                         _______ _______ _______ _____ _____    ______ ____
ROOT
ATOM      1  C   UNL     1      18.650  10.531  29.578  0.00  0.00    +0.163 C 
ENDROOT
BRANCH   1   2
ATOM      2  O   UNL     1      17.258  10.800  29.813  0.00  0.00    -0.388 OA
ATOM      3  H   UNL     1      16.790   9.972  29.947  0.00  0.00    +0.210 HD
ENDBRANCH   1   2
BRANCH   1   4
ATOM      4  C   UNL     1      18.946   9.026  29.689  0.00  0.00    +0.175 C 
BRANCH   4   5
ATOM      5  C   UNL     1      18.161   8.365  30.832  0.00  0.00    +0.176 C 
ATOM      6  O   UNL     1      18.238   9.239  31.991  0.00  0.00    -0.332 OA
ATOM      7  C   UNL     1      17.453   8.818  33.155  0.00  0.00    +0.277 C 
ATOM      8  C   UNL     1      17.825   7.372  33.565  0.00  0.00    +0.110 C 
ATOM      9  C   UNL     1      17.788   6.411  32.358  0.00  0.00    +0.143 C 
ATOM     10  C   UNL     1      18.635   6.947  31.204  0.00  0.00    +0.133 C 
BRANCH  10  11
ATOM     11  N   UNL     1      18.523   6.068  30.030  0.00  0.00    -0.308 N 
ATOM     12  H   UNL     1      17.632   6.026  29.555  0.00  0.00    +0.149 HD
ATOM     13  C   UNL     1      19.521   5.320  29.551  0.00  0.00    +0.210 C 
ATOM     14  C   UNL     1      20.858   5.386  30.312  0.00  0.00    +0.109 C 
ATOM     15  O   UNL     1      19.402   4.603  28.557  0.00  0.00    -0.276 OA
ENDBRANCH  10  11
BRANCH   7  16
ATOM     16  C   UNL     1      15.942   8.896  32.853  0.00  0.00    +0.414 C 
ATOM     17  O   UNL     1      15.347   9.970  32.938  0.00  0.00    -0.240 OA
ATOM     18  O   UNL     1      15.318   7.886  32.525  0.00  0.00    -0.240 OA
ENDBRANCH   7  16
BRANCH   7  19
ATOM     19  O   UNL     1      17.776   9.704  34.258  0.00  0.00    -0.343 OA
ATOM     20  C   UNL     1      19.194   9.875  34.510  0.00  0.00    +0.198 C 
ENDBRANCH   7  19
BRANCH   9  21
ATOM     21  O   UNL     1      18.282   5.129  32.748  0.00  0.00    -0.390 OA
ATOM     22  H   UNL     1      19.242   5.142  32.748  0.00  0.00    +0.210 HD
ENDBRANCH   9  21
ENDBRANCH   4   5
BRANCH   4  23
ATOM     23  O   UNL     1      20.360   8.809  29.867  0.00  0.00    -0.387 OA
ATOM     24  H   UNL     1      20.607   7.969  29.474  0.00  0.00    +0.210 HD
ENDBRANCH   4  23
ENDBRANCH   1   4
BRANCH   1  25
ATOM     25  C   UNL     1      19.051  11.029  28.194  0.00  0.00    +0.141 C 
BRANCH  25  28
ATOM     26  C   UNL     1      20.294   9.958  26.347  0.00  0.00    +0.401 C 
ATOM     27  O   UNL     1      21.030  10.928  26.154  0.00  0.00    -0.226 OA
ATOM     28  N   UNL     1      19.338   9.920  27.275  0.00  0.00    -0.279 N 
ATOM     29  H   UNL     1      18.779   9.082  27.351  0.00  0.00    +0.152 HD
BRANCH  26  30
ATOM     30  O   UNL     1      20.455   8.792  25.535  0.00  0.00    -0.444 OA
BRANCH  30  31
ATOM     31  C   UNL     1      19.689   7.717  26.085  0.00  0.00    +0.292 C 
BRANCH  31  33
ATOM     32  N   UNL     1      20.161   5.666  24.773  0.00  0.00    -0.131 NA
ATOM     33  C   UNL     1      19.349   6.737  25.037  0.00  0.00    +0.120 A 
ATOM     34  C   UNL     1      18.248   6.680  24.212  0.00  0.00    +0.137 A 
ATOM     35  N   UNL     1      18.405   5.503  23.538  0.00  0.00    -0.247 N 
ATOM     36  N   UNL     1      19.578   4.920  23.843  0.00  0.00    -0.065 NA
BRANCH  35  37
ATOM     37  C   UNL     1      17.469   4.855  22.638  0.00  0.00    +0.180 C 
BRANCH  37  38
ATOM     38  C   UNL     1      17.535   3.352  22.786  0.00  0.00    -0.022 A 
ATOM     39  C   UNL     1      17.356   2.757  24.047  0.00  0.00    +0.054 A 
ATOM     40  C   UNL     1      17.335   1.362  24.186  0.00  0.00    +0.162 A 
ATOM     41  C   UNL     1      17.506   0.548  23.048  0.00  0.00    +0.162 A 
ATOM     42  C   UNL     1      17.684   1.141  21.796  0.00  0.00    +0.050 A 
ATOM     43  C   UNL     1      17.701   2.532  21.666  0.00  0.00    +0.009 A 
BRANCH  40  44
ATOM     44  O   UNL     1      17.145   0.705  25.377  0.00  0.00    -0.491 OA
ATOM     45  C   UNL     1      15.904   0.887  26.044  0.00  0.00    +0.277 C 
ENDBRANCH  40  44
BRANCH  41  46
ATOM     46  O   UNL     1      17.480  -0.809  23.266  0.00  0.00    -0.491 OA
ATOM     47  C   UNL     1      18.276  -1.628  22.422  0.00  0.00    +0.277 C 
ENDBRANCH  41  46
ENDBRANCH  37  38
ENDBRANCH  35  37
ENDBRANCH  31  33
ENDBRANCH  30  31
ENDBRANCH  26  30
ENDBRANCH  25  28
ENDBRANCH   1  25
TORSDOF 17
