REMARK VINA RESULT:    -7.122      0.000      0.000
REMARK INTER + INTRA:         -15.114
REMARK INTER:                 -13.322
REMARK INTRA:                  -1.792
REMARK UNBOUND:                -1.955
REMARK  Name = lig_assembled_78.pdb
REMARK  18 active torsions:
REMARK  status: ('A' for Active; 'I' for Inactive)
REMARK    1  A    between atoms: _2  and  _9
REMARK    2  A    between atoms: _4  and  _21
REMARK    3  A    between atoms: _6  and  _7
REMARK    4  A    between atoms: _6  and  _21
REMARK    5  A    between atoms: _9  and  _41
REMARK    6  A    between atoms: _10  and  _41
REMARK    7  A    between atoms: _17  and  _37
REMARK    8  A    between atoms: _19  and  _25
REMARK    9  A    between atoms: _20  and  _24
REMARK   10  A    between atoms: _24  and  _25
REMARK   11  A    between atoms: _27  and  _28
REMARK   12  A    between atoms: _29  and  _30
REMARK   13  A    between atoms: _31  and  _33
REMARK   14  A    between atoms: _33  and  _34
REMARK   15  A    between atoms: _33  and  _35
REMARK   16  A    between atoms: _35  and  _36
REMARK   17  A    between atoms: _35  and  _37
REMARK   18  A    between atoms: _38  and  _40
REMARK                            x       y       z     vdW  Elec       q    Type
REMARK                         _______ _______ _______ _____ _____    ______ ____
ROOT
ATOM      1  C   UNL     1       6.018   3.165  34.040  0.00  0.00    +0.163 C 
ENDROOT
BRANCH   1   2
ATOM      2  O   UNL     1       5.677   1.785  33.833  0.00  0.00    -0.388 OA
ATOM      3  H   UNL     1       5.931   1.273  34.605  0.00  0.00    +0.210 HD
ENDBRANCH   1   2
BRANCH   1   4
ATOM      4  C   UNL     1       7.455   3.454  33.574  0.00  0.00    +0.175 C 
BRANCH   4   5
ATOM      5  C   UNL     1       8.406   3.706  34.753  0.00  0.00    +0.176 C 
ATOM      6  O   UNL     1       8.704   2.422  35.370  0.00  0.00    -0.332 OA
ATOM      7  C   UNL     1       9.687   2.454  36.456  0.00  0.00    +0.277 C 
ATOM      8  C   UNL     1       9.259   3.470  37.544  0.00  0.00    +0.110 C 
ATOM      9  C   UNL     1       8.901   4.841  36.933  0.00  0.00    +0.143 C 
ATOM     10  C   UNL     1       7.874   4.691  35.811  0.00  0.00    +0.133 C 
BRANCH  10  11
ATOM     11  N   UNL     1       7.606   5.992  35.179  0.00  0.00    -0.308 N 
ATOM     12  H   UNL     1       8.319   6.380  34.577  0.00  0.00    +0.149 HD
ATOM     13  C   UNL     1       6.483   6.695  35.348  0.00  0.00    +0.210 C 
ATOM     14  C   UNL     1       5.426   6.089  36.292  0.00  0.00    +0.109 C 
ATOM     15  O   UNL     1       6.280   7.776  34.795  0.00  0.00    -0.276 OA
ENDBRANCH  10  11
BRANCH   7  16
ATOM     16  C   UNL     1      11.083   2.831  35.920  0.00  0.00    +0.414 C 
ATOM     17  O   UNL     1      11.908   3.368  36.659  0.00  0.00    -0.240 OA
ATOM     18  O   UNL     1      11.385   2.599  34.749  0.00  0.00    -0.240 OA
ENDBRANCH   7  16
BRANCH   7  19
ATOM     19  O   UNL     1       9.735   1.134  37.057  0.00  0.00    -0.343 OA
ATOM     20  C   UNL     1       8.457   0.453  37.141  0.00  0.00    +0.198 C 
ENDBRANCH   7  19
BRANCH   9  21
ATOM     21  O   UNL     1       8.370   5.696  37.946  0.00  0.00    -0.390 OA
ATOM     22  H   UNL     1       8.992   5.755  38.675  0.00  0.00    +0.210 HD
ENDBRANCH   9  21
ENDBRANCH   4   5
BRANCH   4  23
ATOM     23  O   UNL     1       7.469   4.580  32.675  0.00  0.00    -0.387 OA
ATOM     24  H   UNL     1       7.902   5.324  33.101  0.00  0.00    +0.210 HD
ENDBRANCH   4  23
ENDBRANCH   1   4
BRANCH   1  25
ATOM     25  C   UNL     1       5.046   4.062  33.279  0.00  0.00    +0.141 C 
BRANCH  25  28
ATOM     26  C   UNL     1       3.229   3.427  31.729  0.00  0.00    +0.401 C 
ATOM     27  O   UNL     1       2.349   3.999  32.377  0.00  0.00    -0.226 OA
ATOM     28  N   UNL     1       4.516   3.401  32.080  0.00  0.00    -0.279 N 
ATOM     29  H   UNL     1       5.162   2.897  31.489  0.00  0.00    +0.152 HD
BRANCH  26  30
ATOM     30  O   UNL     1       2.872   2.742  30.526  0.00  0.00    -0.444 OA
BRANCH  30  31
ATOM     31  C   UNL     1       1.449   2.628  30.446  0.00  0.00    +0.292 C 
BRANCH  31  33
ATOM     32  N   UNL     1       0.085   3.990  28.887  0.00  0.00    -0.131 NA
ATOM     33  C   UNL     1       0.982   2.975  29.091  0.00  0.00    +0.120 A 
ATOM     34  C   UNL     1       1.312   2.418  27.875  0.00  0.00    +0.139 A 
ATOM     35  N   UNL     1       0.631   3.177  26.970  0.00  0.00    -0.230 N 
ATOM     36  N   UNL     1      -0.141   4.090  27.584  0.00  0.00    -0.064 NA
BRANCH  35  37
ATOM     37  C   UNL     1       0.594   3.051  25.534  0.00  0.00    +0.316 C 
BRANCH  37  38
ATOM     38  S   UNL     1       1.567   4.270  24.689  0.00  0.00    +0.017 S 
ATOM     39  O   UNL     1       0.819   5.506  24.574  0.00  0.00    -0.168 OA
ATOM     40  O   UNL     1       2.900   4.256  25.266  0.00  0.00    -0.168 OA
BRANCH  38  41
ATOM     41  C   UNL     1       1.713   3.636  23.032  0.00  0.00    +0.090 A 
ATOM     42  C   UNL     1       1.776   2.252  22.833  0.00  0.00    +0.027 A 
ATOM     43  C   UNL     1       1.865   1.751  21.536  0.00  0.00    +0.002 A 
ATOM     44  C   UNL     1       1.872   2.624  20.446  0.00  0.00    +0.000 A 
ATOM     45  C   UNL     1       1.789   4.002  20.650  0.00  0.00    +0.002 A 
ATOM     46  C   UNL     1       1.710   4.515  21.945  0.00  0.00    +0.027 A 
ENDBRANCH  38  41
ENDBRANCH  37  38
ENDBRANCH  35  37
ENDBRANCH  31  33
ENDBRANCH  30  31
ENDBRANCH  26  30
ENDBRANCH  25  28
ENDBRANCH   1  25
TORSDOF 16
