REMARK VINA RESULT:    -7.467      8.608     14.648
REMARK INTER + INTRA:         -17.488
REMARK INTER:                 -12.838
REMARK INTRA:                  -4.651
REMARK UNBOUND:                -3.474
REMARK  Name = lig_assembled_34.pdb
REMARK  19 active torsions:
REMARK  status: ('A' for Active; 'I' for Inactive)
REMARK    1  A    between atoms: _2  and  _9
REMARK    2  A    between atoms: _4  and  _37
REMARK    3  A    between atoms: _6  and  _7
REMARK    4  A    between atoms: _6  and  _37
REMARK    5  A    between atoms: _11  and  _12
REMARK    6  A    between atoms: _13  and  _14
REMARK    7  A    between atoms: _18  and  _31
REMARK    8  A    between atoms: _33  and  _53
REMARK    9  A    between atoms: _35  and  _41
REMARK   10  A    between atoms: _36  and  _40
REMARK   11  A    between atoms: _40  and  _41
REMARK   12  A    between atoms: _43  and  _44
REMARK   13  A    between atoms: _45  and  _46
REMARK   14  A    between atoms: _47  and  _49
REMARK   15  A    between atoms: _49  and  _50
REMARK   16  A    between atoms: _49  and  _51
REMARK   17  A    between atoms: _51  and  _52
REMARK   18  A    between atoms: _51  and  _53
REMARK   19  A    between atoms: _54  and  _56
REMARK                            x       y       z     vdW  Elec       q    Type
REMARK                         _______ _______ _______ _____ _____    ______ ____
ROOT
ATOM      1  N   UNL     1      -7.443  14.134  26.647  0.00  0.00    -0.131 NA
ATOM      2  C   UNL     1      -8.641  14.587  26.169  0.00  0.00    +0.121 A 
ATOM      3  C   UNL     1      -8.404  15.480  25.154  0.00  0.00    +0.143 A 
ATOM      4  N   UNL     1      -7.034  15.529  25.016  0.00  0.00    -0.220 N 
ATOM      5  N   UNL     1      -6.470  14.720  25.953  0.00  0.00    -0.060 NA
ENDROOT
BRANCH   4   6
ATOM      6  C   UNL     1      -6.277  16.242  24.048  0.00  0.00    +0.068 A 
ATOM      7  C   UNL     1      -6.122  17.626  24.174  0.00  0.00    +0.038 A 
ATOM      8  C   UNL     1      -5.491  18.418  23.183  0.00  0.00    +0.007 A 
ATOM      9  C   UNL     1      -4.933  17.773  22.061  0.00  0.00    -0.008 A 
ATOM     10  C   UNL     1      -5.051  16.365  21.965  0.00  0.00    +0.011 A 
ATOM     11  C   UNL     1      -5.729  15.605  22.935  0.00  0.00    +0.028 A 
BRANCH   9  12
ATOM     12  C   UNL     1      -4.285  18.477  20.907  0.00  0.00    +0.004 A 
ATOM     13  C   UNL     1      -5.001  18.968  19.856  0.00  0.00    +0.026 A 
ATOM     14  C   UNL     1      -6.454  18.796  19.736  0.00  0.00    +0.016 A 
ATOM     15  C   UNL     1      -7.108  19.118  18.610  0.00  0.00    +0.051 A 
ATOM     16  C   UNL     1      -6.383  19.698  17.454  0.00  0.00    +0.183 A 
ATOM     17  O   UNL     1      -6.958  19.938  16.396  0.00  0.00    -0.288 OA
ATOM     18  C   UNL     1      -4.961  20.046  17.648  0.00  0.00    +0.097 A 
ATOM     19  C   UNL     1      -4.330  19.732  18.786  0.00  0.00    +0.140 A 
ATOM     20  O   UNL     1      -3.039  20.203  18.975  0.00  0.00    -0.455 OA
ATOM     21  C   UNL     1      -2.298  19.687  20.005  0.00  0.00    +0.140 A 
ATOM     22  C   UNL     1      -0.976  20.125  20.094  0.00  0.00    +0.092 A 
ATOM     23  C   UNL     1      -0.152  19.600  21.078  0.00  0.00    +0.120 A 
ATOM     24  C   UNL     1      -0.610  18.590  21.916  0.00  0.00    +0.046 A 
ATOM     25  C   UNL     1      -1.940  18.171  21.822  0.00  0.00    +0.016 A 
ATOM     26  C   UNL     1      -2.821  18.762  20.904  0.00  0.00    +0.026 A 
BRANCH  23  27
ATOM     27  O   UNL     1       1.107  20.108  21.204  0.00  0.00    -0.507 OA
ATOM     28  H   UNL     1       1.732  19.374  21.085  0.00  0.00    +0.292 HD
ENDBRANCH  23  27
ENDBRANCH   9  12
BRANCH   8  29
ATOM     29  C   UNL     1      -5.542  19.920  23.384  0.00  0.00    +0.072 C 
ATOM     30  O   UNL     1      -6.533  20.521  22.857  0.00  0.00    -0.545 OA
ATOM     31  O   UNL     1      -4.577  20.479  23.983  0.00  0.00    -0.545 OA
ENDBRANCH   8  29
ENDBRANCH   4   6
BRANCH   2  32
ATOM     32  C   UNL     1      -9.934  14.133  26.716  0.00  0.00    +0.292 C 
BRANCH  32  33
ATOM     33  O   UNL     1      -9.736  13.290  27.854  0.00  0.00    -0.444 OA
BRANCH  33  34
ATOM     34  C   UNL     1      -9.793  11.920  27.449  0.00  0.00    +0.401 C 
ATOM     35  O   UNL     1     -10.893  11.398  27.254  0.00  0.00    -0.226 OA
ATOM     36  N   UNL     1      -8.630  11.284  27.303  0.00  0.00    -0.279 N 
ATOM     37  H   UNL     1      -7.779  11.800  27.477  0.00  0.00    +0.152 HD
BRANCH  36  38
ATOM     38  C   UNL     1      -8.516   9.876  26.903  0.00  0.00    +0.141 C 
BRANCH  38  39
ATOM     39  C   UNL     1      -7.534   9.689  25.751  0.00  0.00    +0.163 C 
BRANCH  39  40
ATOM     40  O   UNL     1      -7.532   8.317  25.324  0.00  0.00    -0.388 OA
ATOM     41  H   UNL     1      -7.253   7.755  26.052  0.00  0.00    +0.210 HD
ENDBRANCH  39  40
BRANCH  39  42
ATOM     42  C   UNL     1      -7.918  10.625  24.592  0.00  0.00    +0.175 C 
BRANCH  42  43
ATOM     43  C   UNL     1      -7.726   9.957  23.222  0.00  0.00    +0.176 C 
ATOM     44  O   UNL     1      -6.366   9.446  23.161  0.00  0.00    -0.332 OA
ATOM     45  C   UNL     1      -6.032   8.678  21.957  0.00  0.00    +0.277 C 
ATOM     46  C   UNL     1      -6.338   9.505  20.685  0.00  0.00    +0.110 C 
ATOM     47  C   UNL     1      -7.763  10.096  20.719  0.00  0.00    +0.143 C 
ATOM     48  C   UNL     1      -8.004  10.872  22.015  0.00  0.00    +0.133 C 
BRANCH  48  49
ATOM     49  N   UNL     1      -9.392  11.357  22.075  0.00  0.00    -0.308 N 
ATOM     50  H   UNL     1     -10.129  10.669  22.138  0.00  0.00    +0.149 HD
ATOM     51  C   UNL     1      -9.741  12.646  22.051  0.00  0.00    +0.210 C 
ATOM     52  C   UNL     1      -8.596  13.668  21.927  0.00  0.00    +0.109 C 
ATOM     53  O   UNL     1     -10.912  13.023  22.117  0.00  0.00    -0.276 OA
ENDBRANCH  48  49
BRANCH  45  54
ATOM     54  C   UNL     1      -6.824   7.355  21.915  0.00  0.00    +0.414 C 
ATOM     55  O   UNL     1      -7.067   6.811  20.839  0.00  0.00    -0.240 OA
ATOM     56  O   UNL     1      -7.220   6.831  22.957  0.00  0.00    -0.240 OA
ENDBRANCH  45  54
BRANCH  47  57
ATOM     57  O   UNL     1      -7.949  10.971  19.606  0.00  0.00    -0.390 OA
ATOM     58  H   UNL     1      -7.263  10.810  18.953  0.00  0.00    +0.210 HD
ENDBRANCH  47  57
BRANCH  45  59
ATOM     59  O   UNL     1      -4.609   8.394  21.987  0.00  0.00    -0.343 OA
ATOM     60  C   UNL     1      -3.848   9.180  22.938  0.00  0.00    +0.198 C 
ENDBRANCH  45  59
ENDBRANCH  42  43
BRANCH  42  61
ATOM     61  O   UNL     1      -7.150  11.843  24.663  0.00  0.00    -0.387 OA
ATOM     62  H   UNL     1      -6.961  12.050  25.581  0.00  0.00    +0.210 HD
ENDBRANCH  42  61
ENDBRANCH  39  42
ENDBRANCH  38  39
ENDBRANCH  36  38
ENDBRANCH  33  34
ENDBRANCH  32  33
ENDBRANCH   2  32
TORSDOF 17
