REMARK VINA RESULT:    -6.365     15.130     17.423
REMARK INTER + INTRA:         -13.264
REMARK INTER:                 -10.184
REMARK INTRA:                  -3.080
REMARK UNBOUND:                -1.875
REMARK  Name = lig_assembled_82.pdb
REMARK  19 active torsions:
REMARK  status: ('A' for Active; 'I' for Inactive)
REMARK    1  A    between atoms: _2  and  _9
REMARK    2  A    between atoms: _4  and  _22
REMARK    3  A    between atoms: _5  and  _16
REMARK    4  A    between atoms: _6  and  _7
REMARK    5  A    between atoms: _6  and  _22
REMARK    6  A    between atoms: _9  and  _10
REMARK    7  A    between atoms: _16  and  _17
REMARK    8  A    between atoms: _18  and  _38
REMARK    9  A    between atoms: _20  and  _26
REMARK   10  A    between atoms: _21  and  _25
REMARK   11  A    between atoms: _25  and  _26
REMARK   12  A    between atoms: _28  and  _29
REMARK   13  A    between atoms: _30  and  _31
REMARK   14  A    between atoms: _32  and  _34
REMARK   15  A    between atoms: _34  and  _35
REMARK   16  A    between atoms: _34  and  _36
REMARK   17  A    between atoms: _36  and  _37
REMARK   18  A    between atoms: _36  and  _38
REMARK   19  A    between atoms: _39  and  _41
REMARK                            x       y       z     vdW  Elec       q    Type
REMARK                         _______ _______ _______ _____ _____    ______ ____
ROOT
ATOM      1  C   UNL     1      18.959   8.629  26.940  0.00  0.00    +0.163 C 
ENDROOT
BRANCH   1   2
ATOM      2  O   UNL     1      18.303   8.198  25.737  0.00  0.00    -0.388 OA
ATOM      3  H   UNL     1      18.058   8.965  25.213  0.00  0.00    +0.210 HD
ENDBRANCH   1   2
BRANCH   1   4
ATOM      4  C   UNL     1      20.167   9.492  26.596  0.00  0.00    +0.141 C 
BRANCH   4   7
ATOM      5  C   UNL     1      21.776   8.885  24.821  0.00  0.00    +0.401 C 
ATOM      6  O   UNL     1      22.673   8.577  25.609  0.00  0.00    -0.226 OA
ATOM      7  N   UNL     1      20.575   9.329  25.195  0.00  0.00    -0.279 N 
ATOM      8  H   UNL     1      19.909   9.566  24.474  0.00  0.00    +0.152 HD
BRANCH   5   9
ATOM      9  O   UNL     1      22.017   8.773  23.416  0.00  0.00    -0.444 OA
BRANCH   9  10
ATOM     10  C   UNL     1      22.145   7.393  23.062  0.00  0.00    +0.292 C 
BRANCH  10  12
ATOM     11  N   UNL     1      19.705   7.021  23.230  0.00  0.00    -0.131 NA
ATOM     12  C   UNL     1      20.987   6.623  23.526  0.00  0.00    +0.120 A 
ATOM     13  C   UNL     1      20.923   5.469  24.285  0.00  0.00    +0.137 A 
ATOM     14  N   UNL     1      19.587   5.297  24.519  0.00  0.00    -0.247 N 
ATOM     15  N   UNL     1      18.860   6.180  23.809  0.00  0.00    -0.065 NA
BRANCH  14  16
ATOM     16  C   UNL     1      18.937   4.387  25.465  0.00  0.00    +0.176 C 
BRANCH  16  17
ATOM     17  C   UNL     1      18.675   3.024  24.873  0.00  0.00    -0.049 C 
ATOM     18  C   UNL     1      17.673   2.927  23.767  0.00  0.00    +0.023 C 
ATOM     19  C   UNL     1      17.939   1.883  22.590  0.00  0.00    -0.025 C 
ATOM     20  C   UNL     1      19.244   1.395  21.950  0.00  0.00    +0.012 C 
ATOM     21  C   UNL     1      17.476   0.838  23.710  0.00  0.00    -0.000 C 
ATOM     22  C   UNL     1      18.547   0.541  24.807  0.00  0.00    +0.031 C 
ATOM     23  C   UNL     1      17.062   2.406  21.425  0.00  0.00    +0.012 C 
ATOM     24  C   UNL     1      16.510   1.948  24.204  0.00  0.00    +0.012 C 
ATOM     25  C   UNL     1      19.116   1.843  25.347  0.00  0.00    -0.025 C 
ENDBRANCH  16  17
ENDBRANCH  14  16
ENDBRANCH  10  12
ENDBRANCH   9  10
ENDBRANCH   5   9
ENDBRANCH   4   7
ENDBRANCH   1   4
BRANCH   1  26
ATOM     26  C   UNL     1      19.412   7.422  27.781  0.00  0.00    +0.175 C 
BRANCH  26  27
ATOM     27  C   UNL     1      18.943   7.526  29.240  0.00  0.00    +0.176 C 
ATOM     28  O   UNL     1      19.613   8.665  29.845  0.00  0.00    -0.332 OA
ATOM     29  C   UNL     1      19.206   8.985  31.217  0.00  0.00    +0.277 C 
ATOM     30  C   UNL     1      19.358   7.743  32.130  0.00  0.00    +0.110 C 
ATOM     31  C   UNL     1      18.687   6.498  31.512  0.00  0.00    +0.143 C 
ATOM     32  C   UNL     1      19.181   6.260  30.084  0.00  0.00    +0.133 C 
BRANCH  32  33
ATOM     33  N   UNL     1      18.471   5.123  29.476  0.00  0.00    -0.308 N 
ATOM     34  H   UNL     1      17.480   5.222  29.307  0.00  0.00    +0.149 HD
ATOM     35  C   UNL     1      19.052   3.970  29.134  0.00  0.00    +0.210 C 
ATOM     36  C   UNL     1      20.558   3.842  29.428  0.00  0.00    +0.109 C 
ATOM     37  O   UNL     1      18.435   3.040  28.612  0.00  0.00    -0.276 OA
ENDBRANCH  32  33
BRANCH  29  38
ATOM     38  C   UNL     1      17.744   9.476  31.253  0.00  0.00    +0.414 C 
ATOM     39  O   UNL     1      17.373  10.374  30.499  0.00  0.00    -0.240 OA
ATOM     40  O   UNL     1      16.937   8.975  32.036  0.00  0.00    -0.240 OA
ENDBRANCH  29  38
BRANCH  29  41
ATOM     41  O   UNL     1      20.084  10.027  31.714  0.00  0.00    -0.343 OA
ATOM     42  C   UNL     1      20.093  10.185  33.156  0.00  0.00    +0.198 C 
ENDBRANCH  29  41
BRANCH  31  43
ATOM     43  O   UNL     1      18.980   5.349  32.308  0.00  0.00    -0.390 OA
ATOM     44  H   UNL     1      19.618   4.796  31.851  0.00  0.00    +0.210 HD
ENDBRANCH  31  43
ENDBRANCH  26  27
BRANCH  26  45
ATOM     45  O   UNL     1      20.847   7.291  27.729  0.00  0.00    -0.387 OA
ATOM     46  H   UNL     1      21.077   6.410  27.425  0.00  0.00    +0.210 HD
ENDBRANCH  26  45
ENDBRANCH   1  26
TORSDOF 15
