REMARK VINA RESULT:    -6.007      1.509      1.992
REMARK INTER + INTRA:         -12.462
REMARK INTER:                 -10.811
REMARK INTRA:                  -1.652
REMARK UNBOUND:                -2.065
REMARK  Name = lig_assembled_49.pdb
REMARK  16 active torsions:
REMARK  status: ('A' for Active; 'I' for Inactive)
REMARK    1  A    between atoms: _2  and  _9
REMARK    2  A    between atoms: _4  and  _17
REMARK    3  A    between atoms: _6  and  _7
REMARK    4  A    between atoms: _6  and  _17
REMARK    5  A    between atoms: _13  and  _33
REMARK    6  A    between atoms: _15  and  _21
REMARK    7  A    between atoms: _16  and  _20
REMARK    8  A    between atoms: _20  and  _21
REMARK    9  A    between atoms: _23  and  _24
REMARK   10  A    between atoms: _25  and  _26
REMARK   11  A    between atoms: _27  and  _29
REMARK   12  A    between atoms: _29  and  _30
REMARK   13  A    between atoms: _29  and  _31
REMARK   14  A    between atoms: _31  and  _32
REMARK   15  A    between atoms: _31  and  _33
REMARK   16  A    between atoms: _34  and  _36
REMARK                            x       y       z     vdW  Elec       q    Type
REMARK                         _______ _______ _______ _____ _____    ______ ____
ROOT
ATOM      1  C   UNL     1       3.624   3.088  33.937  0.00  0.00    +0.175 C 
ENDROOT
BRANCH   1   2
ATOM      2  C   UNL     1       5.116   3.118  34.300  0.00  0.00    +0.176 C 
ATOM      3  O   UNL     1       5.606   4.467  34.066  0.00  0.00    -0.332 OA
ATOM      4  C   UNL     1       6.997   4.713  34.461  0.00  0.00    +0.277 C 
ATOM      5  C   UNL     1       7.941   3.688  33.785  0.00  0.00    +0.110 C 
ATOM      6  C   UNL     1       7.442   2.241  33.980  0.00  0.00    +0.143 C 
ATOM      7  C   UNL     1       5.985   2.098  33.541  0.00  0.00    +0.133 C 
BRANCH   7   8
ATOM      8  N   UNL     1       5.496   0.738  33.812  0.00  0.00    -0.308 N 
ATOM      9  H   UNL     1       5.439   0.440  34.776  0.00  0.00    +0.149 HD
ATOM     10  C   UNL     1       5.121  -0.130  32.868  0.00  0.00    +0.210 C 
ATOM     11  C   UNL     1       5.244   0.345  31.408  0.00  0.00    +0.109 C 
ATOM     12  O   UNL     1       4.702  -1.259  33.126  0.00  0.00    -0.276 OA
ENDBRANCH   7   8
BRANCH   4  13
ATOM     13  C   UNL     1       7.154   4.627  35.993  0.00  0.00    +0.414 C 
ATOM     14  O   UNL     1       8.264   4.454  36.494  0.00  0.00    -0.240 OA
ATOM     15  O   UNL     1       6.171   4.730  36.728  0.00  0.00    -0.240 OA
ENDBRANCH   4  13
BRANCH   6  16
ATOM     16  O   UNL     1       8.253   1.346  33.218  0.00  0.00    -0.390 OA
ATOM     17  H   UNL     1       8.520   0.607  33.769  0.00  0.00    +0.210 HD
ENDBRANCH   6  16
BRANCH   4  18
ATOM     18  O   UNL     1       7.363   6.042  34.006  0.00  0.00    -0.343 OA
ATOM     19  C   UNL     1       6.430   7.091  34.366  0.00  0.00    +0.198 C 
ENDBRANCH   4  18
ENDBRANCH   1   2
BRANCH   1  20
ATOM     20  O   UNL     1       3.038   1.837  34.347  0.00  0.00    -0.387 OA
ATOM     21  H   UNL     1       2.327   1.604  33.745  0.00  0.00    +0.210 HD
ENDBRANCH   1  20
BRANCH   1  22
ATOM     22  C   UNL     1       3.390   3.316  32.433  0.00  0.00    +0.163 C 
BRANCH  22  23
ATOM     23  O   UNL     1       3.253   4.716  32.141  0.00  0.00    -0.388 OA
ATOM     24  H   UNL     1       2.351   4.994  32.316  0.00  0.00    +0.210 HD
ENDBRANCH  22  23
BRANCH  22  25
ATOM     25  C   UNL     1       2.137   2.566  31.994  0.00  0.00    +0.141 C 
BRANCH  25  28
ATOM     26  C   UNL     1       1.400   3.384  29.781  0.00  0.00    +0.401 C 
ATOM     27  O   UNL     1       0.825   4.376  30.235  0.00  0.00    -0.226 OA
ATOM     28  N   UNL     1       2.034   2.482  30.531  0.00  0.00    -0.279 N 
ATOM     29  H   UNL     1       2.469   1.696  30.068  0.00  0.00    +0.152 HD
BRANCH  26  30
ATOM     30  O   UNL     1       1.397   3.165  28.368  0.00  0.00    -0.444 OA
BRANCH  30  31
ATOM     31  C   UNL     1       0.076   3.361  27.857  0.00  0.00    +0.292 C 
BRANCH  31  33
ATOM     32  N   UNL     1      -0.722   5.124  26.317  0.00  0.00    -0.131 NA
ATOM     33  C   UNL     1       0.123   4.076  26.569  0.00  0.00    +0.120 A 
ATOM     34  C   UNL     1       0.923   3.869  25.468  0.00  0.00    +0.137 A 
ATOM     35  N   UNL     1       0.512   4.817  24.578  0.00  0.00    -0.248 N 
ATOM     36  N   UNL     1      -0.475   5.571  25.095  0.00  0.00    -0.065 NA
BRANCH  35  37
ATOM     37  C   UNL     1       0.995   5.039  23.237  0.00  0.00    +0.109 C 
ATOM     38  C   UNL     1       1.784   3.862  22.661  0.00  0.00    +0.027 C 
ATOM     39  C   UNL     1       1.782   4.151  21.169  0.00  0.00    +0.002 C 
ATOM     40  C   UNL     1       0.382   4.682  20.893  0.00  0.00    +0.002 C 
ATOM     41  C   UNL     1      -0.103   5.313  22.201  0.00  0.00    +0.027 C 
ENDBRANCH  35  37
ENDBRANCH  31  33
ENDBRANCH  30  31
ENDBRANCH  26  30
ENDBRANCH  25  28
ENDBRANCH  22  25
ENDBRANCH   1  22
TORSDOF 14
