REMARK VINA RESULT:    -6.056      1.887      2.917
REMARK INTER + INTRA:         -12.545
REMARK INTER:                 -10.885
REMARK INTRA:                  -1.660
REMARK UNBOUND:                -2.065
REMARK  Name = lig_assembled_49.pdb
REMARK  16 active torsions:
REMARK  status: ('A' for Active; 'I' for Inactive)
REMARK    1  A    between atoms: _2  and  _9
REMARK    2  A    between atoms: _4  and  _17
REMARK    3  A    between atoms: _6  and  _7
REMARK    4  A    between atoms: _6  and  _17
REMARK    5  A    between atoms: _13  and  _33
REMARK    6  A    between atoms: _15  and  _21
REMARK    7  A    between atoms: _16  and  _20
REMARK    8  A    between atoms: _20  and  _21
REMARK    9  A    between atoms: _23  and  _24
REMARK   10  A    between atoms: _25  and  _26
REMARK   11  A    between atoms: _27  and  _29
REMARK   12  A    between atoms: _29  and  _30
REMARK   13  A    between atoms: _29  and  _31
REMARK   14  A    between atoms: _31  and  _32
REMARK   15  A    between atoms: _31  and  _33
REMARK   16  A    between atoms: _34  and  _36
REMARK                            x       y       z     vdW  Elec       q    Type
REMARK                         _______ _______ _______ _____ _____    ______ ____
ROOT
ATOM      1  C   UNL     1       3.289   3.360  34.400  0.00  0.00    +0.175 C 
ENDROOT
BRANCH   1   2
ATOM      2  C   UNL     1       4.176   4.340  35.181  0.00  0.00    +0.176 C 
ATOM      3  O   UNL     1       5.502   4.318  34.584  0.00  0.00    -0.332 OA
ATOM      4  C   UNL     1       6.463   5.277  35.137  0.00  0.00    +0.277 C 
ATOM      5  C   UNL     1       6.578   5.104  36.671  0.00  0.00    +0.110 C 
ATOM      6  C   UNL     1       5.191   5.090  37.348  0.00  0.00    +0.143 C 
ATOM      7  C   UNL     1       4.271   4.059  36.693  0.00  0.00    +0.133 C 
BRANCH   7   8
ATOM      8  N   UNL     1       2.927   4.115  37.288  0.00  0.00    -0.308 N 
ATOM      9  H   UNL     1       2.369   4.940  37.116  0.00  0.00    +0.149 HD
ATOM     10  C   UNL     1       2.396   3.149  38.042  0.00  0.00    +0.210 C 
ATOM     11  C   UNL     1       3.282   1.917  38.308  0.00  0.00    +0.109 C 
ATOM     12  O   UNL     1       1.262   3.217  38.516  0.00  0.00    -0.276 OA
ENDBRANCH   7   8
BRANCH   4  13
ATOM     13  C   UNL     1       6.040   6.725  34.811  0.00  0.00    +0.414 C 
ATOM     14  O   UNL     1       5.115   6.939  34.028  0.00  0.00    -0.240 OA
ATOM     15  O   UNL     1       6.623   7.677  35.331  0.00  0.00    -0.240 OA
ENDBRANCH   4  13
BRANCH   6  16
ATOM     16  O   UNL     1       5.335   4.778  38.734  0.00  0.00    -0.390 OA
ATOM     17  H   UNL     1       4.538   4.346  39.050  0.00  0.00    +0.210 HD
ENDBRANCH   6  16
BRANCH   4  18
ATOM     18  O   UNL     1       7.760   5.003  34.547  0.00  0.00    -0.343 OA
ATOM     19  C   UNL     1       7.764   3.970  33.530  0.00  0.00    +0.198 C 
ENDBRANCH   4  18
ENDBRANCH   1   2
BRANCH   1  20
ATOM     20  O   UNL     1       3.526   2.010  34.848  0.00  0.00    -0.387 OA
ATOM     21  H   UNL     1       4.462   1.891  35.025  0.00  0.00    +0.210 HD
ENDBRANCH   1  20
BRANCH   1  22
ATOM     22  C   UNL     1       3.513   3.461  32.881  0.00  0.00    +0.163 C 
BRANCH  22  23
ATOM     23  O   UNL     1       3.792   4.816  32.492  0.00  0.00    -0.388 OA
ATOM     24  H   UNL     1       3.016   5.360  32.646  0.00  0.00    +0.210 HD
ENDBRANCH  22  23
BRANCH  22  25
ATOM     25  C   UNL     1       2.277   2.951  32.149  0.00  0.00    +0.141 C 
BRANCH  25  28
ATOM     26  C   UNL     1       1.901   2.914  29.707  0.00  0.00    +0.401 C 
ATOM     27  O   UNL     1       1.826   1.685  29.642  0.00  0.00    -0.226 OA
ATOM     28  N   UNL     1       2.116   3.590  30.836  0.00  0.00    -0.279 N 
ATOM     29  H   UNL     1       2.171   4.597  30.787  0.00  0.00    +0.152 HD
BRANCH  26  30
ATOM     30  O   UNL     1       1.756   3.683  28.509  0.00  0.00    -0.444 OA
BRANCH  30  31
ATOM     31  C   UNL     1       0.551   3.303  27.841  0.00  0.00    +0.292 C 
BRANCH  31  33
ATOM     32  N   UNL     1      -0.535   5.004  26.410  0.00  0.00    -0.131 NA
ATOM     33  C   UNL     1       0.418   4.033  26.566  0.00  0.00    +0.120 A 
ATOM     34  C   UNL     1       1.130   3.909  25.394  0.00  0.00    +0.137 A 
ATOM     35  N   UNL     1       0.558   4.826  24.562  0.00  0.00    -0.248 N 
ATOM     36  N   UNL     1      -0.440   5.483  25.178  0.00  0.00    -0.065 NA
BRANCH  35  37
ATOM     37  C   UNL     1       0.896   5.103  23.187  0.00  0.00    +0.109 C 
ATOM     38  C   UNL     1       1.851   4.081  22.566  0.00  0.00    +0.027 C 
ATOM     39  C   UNL     1       1.691   4.330  21.076  0.00  0.00    +0.002 C 
ATOM     40  C   UNL     1       0.200   4.584  20.897  0.00  0.00    +0.002 C 
ATOM     41  C   UNL     1      -0.303   5.142  22.231  0.00  0.00    +0.027 C 
ENDBRANCH  35  37
ENDBRANCH  31  33
ENDBRANCH  30  31
ENDBRANCH  26  30
ENDBRANCH  25  28
ENDBRANCH  22  25
ENDBRANCH   1  22
TORSDOF 14
