REMARK VINA RESULT:    -5.278      9.361     13.296
REMARK INTER + INTRA:         -12.626
REMARK INTER:                 -10.573
REMARK INTRA:                  -2.053
REMARK UNBOUND:                -3.800
REMARK  Name = lig_assembled_65.pdb
REMARK  16 active torsions:
REMARK  status: ('A' for Active; 'I' for Inactive)
REMARK    1  A    between atoms: _8  and  _20
REMARK    2  A    between atoms: _9  and  _15
REMARK    3  A    between atoms: _10  and  _11
REMARK    4  A    between atoms: _10  and  _20
REMARK    5  A    between atoms: _16  and  _36
REMARK    6  A    between atoms: _18  and  _24
REMARK    7  A    between atoms: _19  and  _23
REMARK    8  A    between atoms: _23  and  _24
REMARK    9  A    between atoms: _26  and  _27
REMARK   10  A    between atoms: _28  and  _29
REMARK   11  A    between atoms: _30  and  _32
REMARK   12  A    between atoms: _32  and  _33
REMARK   13  A    between atoms: _32  and  _34
REMARK   14  A    between atoms: _34  and  _35
REMARK   15  A    between atoms: _34  and  _36
REMARK   16  A    between atoms: _37  and  _39
REMARK                            x       y       z     vdW  Elec       q    Type
REMARK                         _______ _______ _______ _____ _____    ______ ____
ROOT
ATOM      1  C   UNL     1       8.902   2.433  36.282  0.00  0.00    +0.163 C 
ENDROOT
BRANCH   1   2
ATOM      2  O   UNL     1       8.647   2.995  37.579  0.00  0.00    -0.388 OA
ATOM      3  H   UNL     1       8.138   2.373  38.104  0.00  0.00    +0.210 HD
ENDBRANCH   1   2
BRANCH   1   4
ATOM      4  C   UNL     1      10.100   1.491  36.347  0.00  0.00    +0.141 C 
BRANCH   4   7
ATOM      5  C   UNL     1      12.373   2.312  35.833  0.00  0.00    +0.401 C 
ATOM      6  O   UNL     1      12.400   1.814  34.705  0.00  0.00    -0.226 OA
ATOM      7  N   UNL     1      11.340   2.206  36.670  0.00  0.00    -0.279 N 
ATOM      8  H   UNL     1      11.416   2.641  37.579  0.00  0.00    +0.152 HD
BRANCH   5   9
ATOM      9  O   UNL     1      13.508   3.050  36.293  0.00  0.00    -0.444 OA
BRANCH   9  10
ATOM     10  C   UNL     1      14.481   3.131  35.248  0.00  0.00    +0.292 C 
BRANCH  10  12
ATOM     11  N   UNL     1      14.210   5.562  35.641  0.00  0.00    -0.131 NA
ATOM     12  C   UNL     1      14.772   4.540  34.924  0.00  0.00    +0.121 A 
ATOM     13  C   UNL     1      15.577   5.070  33.944  0.00  0.00    +0.149 A 
ATOM     14  N   UNL     1      15.469   6.437  34.095  0.00  0.00    -0.155 N 
ATOM     15  C   UNL     1      16.101   7.443  33.307  0.00  0.00    +0.416 C 
ATOM     16  N   UNL     1      15.877   8.727  33.608  0.00  0.00    +0.041 NA
ATOM     17  C   UNL     1      16.487   9.607  32.817  0.00  0.00    +0.339 C 
ATOM     18  C   UNL     1      16.265  11.060  33.096  0.00  0.00    +0.149 C 
ATOM     19  N   UNL     1      17.272   9.282  31.790  0.00  0.00    +0.007 NA
ATOM     20  C   UNL     1      17.417   7.985  31.569  0.00  0.00    +0.386 C 
ATOM     21  N   UNL     1      18.212   7.606  30.508  0.00  0.00    -0.296 N 
ATOM     22  H   UNL     1      18.857   8.345  30.263  0.00  0.00    +0.148 HD
ATOM     23  H   UNL     1      18.592   6.681  30.646  0.00  0.00    +0.148 HD
ATOM     24  N   UNL     1      16.880   7.024  32.299  0.00  0.00    -0.290 NA
ATOM     25  N   UNL     1      14.640   6.711  35.135  0.00  0.00    -0.055 NA
ENDBRANCH  10  12
ENDBRANCH   9  10
ENDBRANCH   5   9
ENDBRANCH   4   7
ENDBRANCH   1   4
BRANCH   1  26
ATOM     26  C   UNL     1       9.172   3.538  35.246  0.00  0.00    +0.175 C 
BRANCH  26  27
ATOM     27  C   UNL     1       7.947   4.438  35.028  0.00  0.00    +0.176 C 
ATOM     28  O   UNL     1       7.757   5.234  36.229  0.00  0.00    -0.332 OA
ATOM     29  C   UNL     1       6.688   6.235  36.164  0.00  0.00    +0.277 C 
ATOM     30  C   UNL     1       5.349   5.572  35.759  0.00  0.00    +0.110 C 
ATOM     31  C   UNL     1       5.508   4.688  34.503  0.00  0.00    +0.143 C 
ATOM     32  C   UNL     1       6.649   3.686  34.679  0.00  0.00    +0.133 C 
BRANCH  32  33
ATOM     33  N   UNL     1       6.848   2.909  33.445  0.00  0.00    -0.308 N 
ATOM     34  H   UNL     1       7.208   3.395  32.635  0.00  0.00    +0.149 HD
ATOM     35  C   UNL     1       6.582   1.606  33.325  0.00  0.00    +0.210 C 
ATOM     36  C   UNL     1       6.009   0.901  34.569  0.00  0.00    +0.109 C 
ATOM     37  O   UNL     1       6.772   0.978  32.282  0.00  0.00    -0.276 OA
ENDBRANCH  32  33
BRANCH  29  38
ATOM     38  C   UNL     1       7.040   7.346  35.152  0.00  0.00    +0.414 C 
ATOM     39  O   UNL     1       6.166   7.831  34.435  0.00  0.00    -0.240 OA
ATOM     40  O   UNL     1       8.197   7.756  35.053  0.00  0.00    -0.240 OA
ENDBRANCH  29  38
BRANCH  29  41
ATOM     41  O   UNL     1       6.531   6.811  37.486  0.00  0.00    -0.343 OA
ATOM     42  C   UNL     1       6.616   5.864  38.581  0.00  0.00    +0.198 C 
ENDBRANCH  29  41
BRANCH  31  43
ATOM     43  O   UNL     1       4.293   3.980  34.255  0.00  0.00    -0.390 OA
ATOM     44  H   UNL     1       4.481   3.042  34.168  0.00  0.00    +0.210 HD
ENDBRANCH  31  43
ENDBRANCH  26  27
BRANCH  26  45
ATOM     45  O   UNL     1       9.591   2.956  33.996  0.00  0.00    -0.387 OA
ATOM     46  H   UNL     1       8.842   2.524  33.577  0.00  0.00    +0.210 HD
ENDBRANCH  26  45
ENDBRANCH   1  26
TORSDOF 13
