REMARK VINA RESULT:    -6.025      5.094      8.705
REMARK INTER + INTRA:         -13.077
REMARK INTER:                 -10.701
REMARK INTRA:                  -2.376
REMARK UNBOUND:                -2.296
REMARK  Name = lig_assembled_63.pdb
REMARK  17 active torsions:
REMARK  status: ('A' for Active; 'I' for Inactive)
REMARK    1  A    between atoms: _2  and  _11
REMARK    2  A    between atoms: _6  and  _20
REMARK    3  A    between atoms: _7  and  _15
REMARK    4  A    between atoms: _8  and  _9
REMARK    5  A    between atoms: _8  and  _20
REMARK    6  A    between atoms: _16  and  _36
REMARK    7  A    between atoms: _18  and  _24
REMARK    8  A    between atoms: _19  and  _23
REMARK    9  A    between atoms: _23  and  _24
REMARK   10  A    between atoms: _26  and  _27
REMARK   11  A    between atoms: _28  and  _29
REMARK   12  A    between atoms: _30  and  _32
REMARK   13  A    between atoms: _32  and  _33
REMARK   14  A    between atoms: _32  and  _34
REMARK   15  A    between atoms: _34  and  _35
REMARK   16  A    between atoms: _34  and  _36
REMARK   17  A    between atoms: _37  and  _39
REMARK                            x       y       z     vdW  Elec       q    Type
REMARK                         _______ _______ _______ _____ _____    ______ ____
ROOT
ATOM      1  C   UNL     1      19.053   5.819  32.083  0.00  0.00    +0.163 C 
ENDROOT
BRANCH   1   2
ATOM      2  O   UNL     1      19.205   5.851  33.512  0.00  0.00    -0.388 OA
ATOM      3  H   UNL     1      18.795   6.646  33.861  0.00  0.00    +0.210 HD
ENDBRANCH   1   2
BRANCH   1   4
ATOM      4  C   UNL     1      20.228   5.081  31.450  0.00  0.00    +0.141 C 
BRANCH   4   7
ATOM      5  C   UNL     1      19.984   4.480  29.065  0.00  0.00    +0.401 C 
ATOM      6  O   UNL     1      20.528   5.507  28.654  0.00  0.00    -0.226 OA
ATOM      7  N   UNL     1      19.796   4.202  30.356  0.00  0.00    -0.279 N 
ATOM      8  H   UNL     1      19.330   3.337  30.595  0.00  0.00    +0.152 HD
BRANCH   5   9
ATOM      9  O   UNL     1      19.513   3.517  28.119  0.00  0.00    -0.444 OA
BRANCH   9  10
ATOM     10  C   UNL     1      18.094   3.632  27.985  0.00  0.00    +0.292 C 
BRANCH  10  12
ATOM     11  N   UNL     1      16.468   2.297  26.688  0.00  0.00    -0.131 NA
ATOM     12  C   UNL     1      17.641   2.994  26.735  0.00  0.00    +0.121 A 
ATOM     13  C   UNL     1      18.235   2.950  25.497  0.00  0.00    +0.145 A 
ATOM     14  N   UNL     1      17.395   2.173  24.724  0.00  0.00    -0.200 N 
ATOM     15  N   UNL     1      16.324   1.810  25.463  0.00  0.00    -0.059 NA
BRANCH  14  16
ATOM     16  C   UNL     1      17.626   1.753  23.381  0.00  0.00    +0.173 A 
ATOM     17  C   UNL     1      17.463   2.611  22.290  0.00  0.00    +0.096 A 
ATOM     18  C   UNL     1      17.622   2.067  21.004  0.00  0.00    +0.024 A 
ATOM     19  C   UNL     1      17.955   0.725  20.840  0.00  0.00    +0.021 A 
ATOM     20  C   UNL     1      18.135  -0.042  21.973  0.00  0.00    +0.113 A 
ATOM     21  N   UNL     1      17.976   0.436  23.225  0.00  0.00    -0.235 NA
BRANCH  17  22
ATOM     22  C   UNL     1      17.166   4.010  22.369  0.00  0.00    +0.103 C 
ATOM     23  N   UNL     1      16.849   5.128  22.359  0.00  0.00    -0.191 NA
ENDBRANCH  17  22
ENDBRANCH  14  16
ENDBRANCH  10  12
ENDBRANCH   9  10
ENDBRANCH   5   9
ENDBRANCH   4   7
ENDBRANCH   1   4
BRANCH   1  24
ATOM     24  C   UNL     1      18.971   7.243  31.507  0.00  0.00    +0.175 C 
BRANCH  24  25
ATOM     25  C   UNL     1      18.137   8.178  32.395  0.00  0.00    +0.176 C 
ATOM     26  O   UNL     1      16.991   7.427  32.884  0.00  0.00    -0.332 OA
ATOM     27  C   UNL     1      16.132   8.132  33.840  0.00  0.00    +0.277 C 
ATOM     28  C   UNL     1      15.658   9.482  33.248  0.00  0.00    +0.110 C 
ATOM     29  C   UNL     1      16.839  10.303  32.687  0.00  0.00    +0.143 C 
ATOM     30  C   UNL     1      17.667   9.473  31.706  0.00  0.00    +0.133 C 
BRANCH  30  31
ATOM     31  N   UNL     1      18.838  10.236  31.245  0.00  0.00    -0.308 N 
ATOM     32  H   UNL     1      19.585  10.398  31.905  0.00  0.00    +0.149 HD
ATOM     33  C   UNL     1      18.976  10.730  30.011  0.00  0.00    +0.210 C 
ATOM     34  C   UNL     1      17.808  10.489  29.037  0.00  0.00    +0.109 C 
ATOM     35  O   UNL     1      19.975  11.353  29.649  0.00  0.00    -0.276 OA
ENDBRANCH  30  31
BRANCH  27  36
ATOM     36  C   UNL     1      16.880   8.384  35.165  0.00  0.00    +0.414 C 
ATOM     37  O   UNL     1      16.440   9.193  35.981  0.00  0.00    -0.240 OA
ATOM     38  O   UNL     1      17.922   7.779  35.419  0.00  0.00    -0.240 OA
ENDBRANCH  27  36
BRANCH  27  39
ATOM     39  O   UNL     1      14.964   7.307  34.087  0.00  0.00    -0.343 OA
ATOM     40  C   UNL     1      15.221   5.881  34.133  0.00  0.00    +0.198 C 
ENDBRANCH  27  39
BRANCH  29  41
ATOM     41  O   UNL     1      16.343  11.464  32.019  0.00  0.00    -0.390 OA
ATOM     42  H   UNL     1      17.057  12.097  31.903  0.00  0.00    +0.210 HD
ENDBRANCH  29  41
ENDBRANCH  24  25
BRANCH  24  43
ATOM     43  O   UNL     1      18.426   7.209  30.173  0.00  0.00    -0.387 OA
ATOM     44  H   UNL     1      18.019   8.054  29.971  0.00  0.00    +0.210 HD
ENDBRANCH  24  43
ENDBRANCH   1  24
TORSDOF 15
