REMARK VINA RESULT:    -6.025     14.146     16.441
REMARK INTER + INTRA:         -13.076
REMARK INTER:                 -11.671
REMARK INTRA:                  -1.406
REMARK UNBOUND:                -2.296
REMARK  Name = lig_assembled_63.pdb
REMARK  17 active torsions:
REMARK  status: ('A' for Active; 'I' for Inactive)
REMARK    1  A    between atoms: _2  and  _11
REMARK    2  A    between atoms: _6  and  _20
REMARK    3  A    between atoms: _7  and  _15
REMARK    4  A    between atoms: _8  and  _9
REMARK    5  A    between atoms: _8  and  _20
REMARK    6  A    between atoms: _16  and  _36
REMARK    7  A    between atoms: _18  and  _24
REMARK    8  A    between atoms: _19  and  _23
REMARK    9  A    between atoms: _23  and  _24
REMARK   10  A    between atoms: _26  and  _27
REMARK   11  A    between atoms: _28  and  _29
REMARK   12  A    between atoms: _30  and  _32
REMARK   13  A    between atoms: _32  and  _33
REMARK   14  A    between atoms: _32  and  _34
REMARK   15  A    between atoms: _34  and  _35
REMARK   16  A    between atoms: _34  and  _36
REMARK   17  A    between atoms: _37  and  _39
REMARK                            x       y       z     vdW  Elec       q    Type
REMARK                         _______ _______ _______ _____ _____    ______ ____
ROOT
ATOM      1  C   UNL     1       6.656   2.822  32.734  0.00  0.00    +0.163 C 
ENDROOT
BRANCH   1   2
ATOM      2  O   UNL     1       6.299   3.253  31.410  0.00  0.00    -0.388 OA
ATOM      3  H   UNL     1       5.658   2.645  31.036  0.00  0.00    +0.210 HD
ENDBRANCH   1   2
BRANCH   1   4
ATOM      4  C   UNL     1       5.423   2.822  33.632  0.00  0.00    +0.141 C 
BRANCH   4   7
ATOM      5  C   UNL     1       3.272   3.179  32.470  0.00  0.00    +0.401 C 
ATOM      6  O   UNL     1       3.288   4.403  32.616  0.00  0.00    -0.226 OA
ATOM      7  N   UNL     1       4.226   2.362  32.918  0.00  0.00    -0.279 N 
ATOM      8  H   UNL     1       4.118   1.370  32.757  0.00  0.00    +0.152 HD
BRANCH   5   9
ATOM      9  O   UNL     1       2.171   2.576  31.784  0.00  0.00    -0.444 OA
BRANCH   9  10
ATOM     10  C   UNL     1       1.205   3.579  31.458  0.00  0.00    +0.292 C 
BRANCH  10  12
ATOM     11  N   UNL     1      -0.197   4.064  29.481  0.00  0.00    -0.131 NA
ATOM     12  C   UNL     1       0.990   3.632  30.000  0.00  0.00    +0.121 A 
ATOM     13  C   UNL     1       1.827   3.283  28.967  0.00  0.00    +0.145 A 
ATOM     14  N   UNL     1       1.085   3.487  27.821  0.00  0.00    -0.200 N 
ATOM     15  N   UNL     1      -0.126   3.980  28.159  0.00  0.00    -0.059 NA
BRANCH  14  16
ATOM     16  C   UNL     1       1.484   3.178  26.487  0.00  0.00    +0.173 A 
ATOM     17  C   UNL     1       1.827   1.883  26.090  0.00  0.00    +0.096 A 
ATOM     18  C   UNL     1       2.300   1.708  24.778  0.00  0.00    +0.024 A 
ATOM     19  C   UNL     1       2.391   2.791  23.908  0.00  0.00    +0.021 A 
ATOM     20  C   UNL     1       1.994   4.029  24.371  0.00  0.00    +0.113 A 
ATOM     21  N   UNL     1       1.551   4.245  25.627  0.00  0.00    -0.235 NA
BRANCH  17  22
ATOM     22  C   UNL     1       1.722   0.707  26.902  0.00  0.00    +0.103 C 
ATOM     23  N   UNL     1       1.599  -0.296  27.473  0.00  0.00    -0.191 NA
ENDBRANCH  17  22
ENDBRANCH  14  16
ENDBRANCH  10  12
ENDBRANCH   9  10
ENDBRANCH   5   9
ENDBRANCH   4   7
ENDBRANCH   1   4
BRANCH   1  24
ATOM     24  C   UNL     1       7.733   3.738  33.340  0.00  0.00    +0.175 C 
BRANCH  24  25
ATOM     25  C   UNL     1       7.374   4.189  34.763  0.00  0.00    +0.176 C 
ATOM     26  O   UNL     1       7.357   5.642  34.781  0.00  0.00    -0.332 OA
ATOM     27  C   UNL     1       6.928   6.256  36.042  0.00  0.00    +0.277 C 
ATOM     28  C   UNL     1       7.784   5.728  37.219  0.00  0.00    +0.110 C 
ATOM     29  C   UNL     1       7.858   4.187  37.223  0.00  0.00    +0.143 C 
ATOM     30  C   UNL     1       8.312   3.656  35.863  0.00  0.00    +0.133 C 
BRANCH  30  31
ATOM     31  N   UNL     1       8.295   2.184  35.853  0.00  0.00    -0.308 N 
ATOM     32  H   UNL     1       7.440   1.721  36.125  0.00  0.00    +0.149 HD
ATOM     33  C   UNL     1       9.336   1.422  35.507  0.00  0.00    +0.210 C 
ATOM     34  C   UNL     1      10.633   2.159  35.123  0.00  0.00    +0.109 C 
ATOM     35  O   UNL     1       9.289   0.192  35.494  0.00  0.00    -0.276 OA
ENDBRANCH  30  31
BRANCH  27  36
ATOM     36  C   UNL     1       5.438   5.961  36.314  0.00  0.00    +0.414 C 
ATOM     37  O   UNL     1       4.645   5.860  35.379  0.00  0.00    -0.240 OA
ATOM     38  O   UNL     1       5.030   5.824  37.468  0.00  0.00    -0.240 OA
ENDBRANCH  27  36
BRANCH  27  39
ATOM     39  O   UNL     1       7.130   7.689  35.935  0.00  0.00    -0.343 OA
ATOM     40  C   UNL     1       8.476   8.140  36.230  0.00  0.00    +0.198 C 
ENDBRANCH  27  39
BRANCH  29  41
ATOM     41  O   UNL     1       8.775   3.751  38.228  0.00  0.00    -0.390 OA
ATOM     42  H   UNL     1       8.292   3.329  38.942  0.00  0.00    +0.210 HD
ENDBRANCH  29  41
ENDBRANCH  24  25
BRANCH  24  43
ATOM     43  O   UNL     1       7.942   4.886  32.493  0.00  0.00    -0.387 OA
ATOM     44  H   UNL     1       8.771   5.310  32.727  0.00  0.00    +0.210 HD
ENDBRANCH  24  43
ENDBRANCH   1  24
TORSDOF 15
