REMARK VINA RESULT:    -6.296      5.354      7.605
REMARK INTER + INTRA:         -13.322
REMARK INTER:                 -10.867
REMARK INTRA:                  -2.455
REMARK UNBOUND:                -1.873
REMARK  Name = lig_assembled_60.pdb
REMARK  18 active torsions:
REMARK  status: ('A' for Active; 'I' for Inactive)
REMARK    1  A    between atoms: _2  and  _10
REMARK    2  A    between atoms: _3  and  _41
REMARK    3  A    between atoms: _5  and  _21
REMARK    4  A    between atoms: _7  and  _8
REMARK    5  A    between atoms: _7  and  _21
REMARK    6  A    between atoms: _13  and  _41
REMARK    7  A    between atoms: _17  and  _37
REMARK    8  A    between atoms: _19  and  _25
REMARK    9  A    between atoms: _20  and  _24
REMARK   10  A    between atoms: _24  and  _25
REMARK   11  A    between atoms: _27  and  _28
REMARK   12  A    between atoms: _29  and  _30
REMARK   13  A    between atoms: _31  and  _33
REMARK   14  A    between atoms: _33  and  _34
REMARK   15  A    between atoms: _33  and  _35
REMARK   16  A    between atoms: _35  and  _36
REMARK   17  A    between atoms: _35  and  _37
REMARK   18  A    between atoms: _38  and  _40
REMARK                            x       y       z     vdW  Elec       q    Type
REMARK                         _______ _______ _______ _____ _____    ______ ____
ROOT
ATOM      1  C   UNL     1       0.124   2.875  31.192  0.00  0.00    +0.141 C 
ENDROOT
BRANCH   1   4
ATOM      2  C   UNL     1       0.778   3.028  28.814  0.00  0.00    +0.401 C 
ATOM      3  O   UNL     1       1.518   4.000  28.982  0.00  0.00    -0.226 OA
ATOM      4  N   UNL     1       0.083   2.442  29.789  0.00  0.00    -0.279 N 
ATOM      5  H   UNL     1      -0.505   1.656  29.551  0.00  0.00    +0.152 HD
BRANCH   2   6
ATOM      6  O   UNL     1       0.637   2.482  27.500  0.00  0.00    -0.444 OA
BRANCH   6   7
ATOM      7  C   UNL     1       1.903   2.503  26.835  0.00  0.00    +0.292 C 
BRANCH   7   9
ATOM      8  N   UNL     1       1.622   4.286  25.141  0.00  0.00    -0.131 NA
ATOM      9  C   UNL     1       1.744   2.960  25.442  0.00  0.00    +0.121 A 
ATOM     10  C   UNL     1       1.705   2.230  24.277  0.00  0.00    +0.143 A 
ATOM     11  N   UNL     1       1.592   3.165  23.274  0.00  0.00    -0.220 N 
ATOM     12  N   UNL     1       1.521   4.402  23.824  0.00  0.00    -0.060 NA
BRANCH  11  13
ATOM     13  C   UNL     1       1.592   2.962  21.869  0.00  0.00    +0.067 A 
ATOM     14  C   UNL     1       1.935   4.005  20.996  0.00  0.00    +0.030 A 
ATOM     15  C   UNL     1       1.863   3.815  19.615  0.00  0.00    +0.030 A 
ATOM     16  C   UNL     1       1.463   2.578  19.104  0.00  0.00    +0.105 A 
ATOM     17  C   UNL     1       1.134   1.526  19.965  0.00  0.00    +0.030 A 
ATOM     18  C   UNL     1       1.206   1.717  21.347  0.00  0.00    +0.030 A 
BRANCH  16  19
ATOM     19  S   UNL     1       1.301   2.374  17.355  0.00  0.00    +0.056 S 
ATOM     20  O   UNL     1       2.527   1.828  16.823  0.00  0.00    -0.153 OA
ATOM     21  O   UNL     1       0.006   1.803  17.064  0.00  0.00    -0.153 OA
BRANCH  19  22
ATOM     22  N   UNL     1       1.234   3.966  16.832  0.00  0.00    -0.204 NA
ATOM     23  H   UNL     1       1.847   4.545  17.406  0.00  0.00    +0.144 HD
ATOM     24  H   UNL     1       0.264   4.283  16.814  0.00  0.00    +0.144 HD
ENDBRANCH  19  22
ENDBRANCH  16  19
ENDBRANCH  11  13
ENDBRANCH   7   9
ENDBRANCH   6   7
ENDBRANCH   2   6
ENDBRANCH   1   4
BRANCH   1  25
ATOM     25  C   UNL     1      -1.234   3.375  31.673  0.00  0.00    +0.163 C 
BRANCH  25  26
ATOM     26  O   UNL     1      -1.520   2.843  32.977  0.00  0.00    -0.388 OA
ATOM     27  H   UNL     1      -2.000   2.016  32.888  0.00  0.00    +0.210 HD
ENDBRANCH  25  26
BRANCH  25  28
ATOM     28  C   UNL     1      -1.238   4.913  31.693  0.00  0.00    +0.175 C 
BRANCH  28  29
ATOM     29  C   UNL     1      -2.662   5.487  31.700  0.00  0.00    +0.176 C 
ATOM     30  O   UNL     1      -3.208   5.313  33.037  0.00  0.00    -0.332 OA
ATOM     31  C   UNL     1      -4.532   5.901  33.263  0.00  0.00    +0.277 C 
ATOM     32  C   UNL     1      -5.542   5.378  32.212  0.00  0.00    +0.110 C 
ATOM     33  C   UNL     1      -4.993   5.514  30.777  0.00  0.00    +0.143 C 
ATOM     34  C   UNL     1      -3.611   4.871  30.655  0.00  0.00    +0.133 C 
BRANCH  34  35
ATOM     35  N   UNL     1      -3.061   5.082  29.307  0.00  0.00    -0.308 N 
ATOM     36  H   UNL     1      -2.777   6.018  29.055  0.00  0.00    +0.149 HD
ATOM     37  C   UNL     1      -2.912   4.117  28.395  0.00  0.00    +0.210 C 
ATOM     38  C   UNL     1      -3.377   2.706  28.802  0.00  0.00    +0.109 C 
ATOM     39  O   UNL     1      -2.434   4.320  27.278  0.00  0.00    -0.276 OA
ENDBRANCH  34  35
BRANCH  31  40
ATOM     40  C   UNL     1      -4.465   7.441  33.192  0.00  0.00    +0.414 C 
ATOM     41  O   UNL     1      -5.431   8.085  32.785  0.00  0.00    -0.240 OA
ATOM     42  O   UNL     1      -3.447   8.039  33.543  0.00  0.00    -0.240 OA
ENDBRANCH  31  40
BRANCH  33  43
ATOM     43  O   UNL     1      -5.887   4.885  29.857  0.00  0.00    -0.390 OA
ATOM     44  H   UNL     1      -6.306   4.133  30.282  0.00  0.00    +0.210 HD
ENDBRANCH  33  43
BRANCH  31  45
ATOM     45  O   UNL     1      -4.986   5.492  34.578  0.00  0.00    -0.343 OA
ATOM     46  C   UNL     1      -6.417   5.286  34.695  0.00  0.00    +0.198 C 
ENDBRANCH  31  45
ENDBRANCH  28  29
BRANCH  28  47
ATOM     47  O   UNL     1      -0.501   5.426  30.565  0.00  0.00    -0.387 OA
ATOM     48  H   UNL     1       0.279   5.891  30.877  0.00  0.00    +0.210 HD
ENDBRANCH  28  47
ENDBRANCH  25  28
ENDBRANCH   1  25
TORSDOF 16
