REMARK VINA RESULT:    -6.861     10.756     18.736
REMARK INTER + INTRA:         -13.851
REMARK INTER:                 -11.788
REMARK INTRA:                  -2.064
REMARK UNBOUND:                -1.575
REMARK  Name = lig_assembled_0.pdb
REMARK  17 active torsions:
REMARK  status: ('A' for Active; 'I' for Inactive)
REMARK    1  A    between atoms: _2  and  _10
REMARK    2  A    between atoms: _5  and  _21
REMARK    3  A    between atoms: _7  and  _8
REMARK    4  A    between atoms: _7  and  _21
REMARK    5  A    between atoms: _11  and  _12
REMARK    6  A    between atoms: _17  and  _37
REMARK    7  A    between atoms: _19  and  _25
REMARK    8  A    between atoms: _20  and  _24
REMARK    9  A    between atoms: _24  and  _25
REMARK   10  A    between atoms: _27  and  _28
REMARK   11  A    between atoms: _29  and  _30
REMARK   12  A    between atoms: _31  and  _33
REMARK   13  A    between atoms: _33  and  _34
REMARK   14  A    between atoms: _33  and  _35
REMARK   15  A    between atoms: _35  and  _36
REMARK   16  A    between atoms: _35  and  _37
REMARK   17  A    between atoms: _38  and  _40
REMARK                            x       y       z     vdW  Elec       q    Type
REMARK                         _______ _______ _______ _____ _____    ______ ____
ROOT
ATOM      1  C   UNL     1      -2.129   8.460  13.490  0.00  0.00    +0.163 C 
ENDROOT
BRANCH   1   2
ATOM      2  O   UNL     1      -2.318   8.458  12.065  0.00  0.00    -0.388 OA
ATOM      3  H   UNL     1      -2.105   9.326  11.712  0.00  0.00    +0.210 HD
ENDBRANCH   1   2
BRANCH   1   4
ATOM      4  C   UNL     1      -2.553   7.117  14.075  0.00  0.00    +0.141 C 
BRANCH   4   7
ATOM      5  C   UNL     1      -1.743   6.409  16.299  0.00  0.00    +0.401 C 
ATOM      6  O   UNL     1      -2.791   6.702  16.878  0.00  0.00    -0.226 OA
ATOM      7  N   UNL     1      -1.542   6.576  14.991  0.00  0.00    -0.279 N 
ATOM      8  H   UNL     1      -0.644   6.314  14.609  0.00  0.00    +0.152 HD
BRANCH   5   9
ATOM      9  O   UNL     1      -0.661   5.860  17.056  0.00  0.00    -0.444 OA
BRANCH   9  10
ATOM     10  C   UNL     1      -1.127   4.738  17.811  0.00  0.00    +0.292 C 
BRANCH  10  12
ATOM     11  N   UNL     1       1.069   4.000  18.659  0.00  0.00    -0.131 NA
ATOM     12  C   UNL     1      -0.195   4.439  18.914  0.00  0.00    +0.121 A 
ATOM     13  C   UNL     1      -0.368   4.549  20.276  0.00  0.00    +0.143 A 
ATOM     14  N   UNL     1       0.800   4.070  20.826  0.00  0.00    -0.219 N 
ATOM     15  N   UNL     1       1.684   3.828  19.818  0.00  0.00    -0.060 NA
BRANCH  14  16
ATOM     16  C   UNL     1       1.200   3.931  22.184  0.00  0.00    +0.079 A 
ATOM     17  C   UNL     1       1.109   2.739  22.932  0.00  0.00    +0.062 A 
ATOM     18  C   UNL     1       1.506   2.754  24.287  0.00  0.00    +0.015 A 
ATOM     19  C   UNL     1       1.968   3.921  24.897  0.00  0.00    +0.001 A 
ATOM     20  C   UNL     1       2.071   5.090  24.157  0.00  0.00    +0.002 A 
ATOM     21  C   UNL     1       1.703   5.094  22.812  0.00  0.00    +0.028 A 
BRANCH  17  22
ATOM     22  C   UNL     1       0.797   1.407  22.344  0.00  0.00    +0.244 C 
ATOM     23  O   UNL     1      -0.347   1.005  22.208  0.00  0.00    -0.270 OA
ATOM     24  N   UNL     1       1.849   0.642  21.912  0.00  0.00    -0.325 N 
ATOM     25  H   UNL     1       1.625  -0.240  21.467  0.00  0.00    +0.145 HD
ATOM     26  H   UNL     1       2.820   0.908  21.975  0.00  0.00    +0.145 HD
ENDBRANCH  17  22
ENDBRANCH  14  16
ENDBRANCH  10  12
ENDBRANCH   9  10
ENDBRANCH   5   9
ENDBRANCH   4   7
ENDBRANCH   1   4
BRANCH   1  27
ATOM     27  C   UNL     1      -2.940   9.588  14.151  0.00  0.00    +0.175 C 
BRANCH  27  28
ATOM     28  C   UNL     1      -3.220  10.744  13.180  0.00  0.00    +0.176 C 
ATOM     29  O   UNL     1      -1.959  11.125  12.563  0.00  0.00    -0.332 OA
ATOM     30  C   UNL     1      -2.048  12.153  11.521  0.00  0.00    +0.277 C 
ATOM     31  C   UNL     1      -2.767  13.412  12.063  0.00  0.00    +0.110 C 
ATOM     32  C   UNL     1      -4.099  13.054  12.756  0.00  0.00    +0.143 C 
ATOM     33  C   UNL     1      -3.891  11.975  13.819  0.00  0.00    +0.133 C 
BRANCH  33  34
ATOM     34  N   UNL     1      -5.179  11.580  14.411  0.00  0.00    -0.308 N 
ATOM     35  H   UNL     1      -5.871  11.166  13.802  0.00  0.00    +0.149 HD
ATOM     36  C   UNL     1      -5.492  11.732  15.701  0.00  0.00    +0.210 C 
ATOM     37  C   UNL     1      -4.426  12.388  16.597  0.00  0.00    +0.109 C 
ATOM     38  O   UNL     1      -6.574  11.378  16.172  0.00  0.00    -0.276 OA
ENDBRANCH  33  34
BRANCH  30  39
ATOM     39  C   UNL     1      -2.805  11.617  10.288  0.00  0.00    +0.414 C 
ATOM     40  O   UNL     1      -3.592  12.341   9.681  0.00  0.00    -0.240 OA
ATOM     41  O   UNL     1      -2.628  10.461   9.901  0.00  0.00    -0.240 OA
ENDBRANCH  30  39
BRANCH  32  42
ATOM     42  O   UNL     1      -4.651  14.219  13.370  0.00  0.00    -0.390 OA
ATOM     43  H   UNL     1      -4.317  15.003  12.928  0.00  0.00    +0.210 HD
ENDBRANCH  32  42
BRANCH  30  44
ATOM     44  O   UNL     1      -0.698  12.525  11.142  0.00  0.00    -0.343 OA
ATOM     45  C   UNL     1      -0.570  13.840  10.545  0.00  0.00    +0.198 C 
ENDBRANCH  30  44
ENDBRANCH  27  28
BRANCH  27  46
ATOM     46  O   UNL     1      -2.252  10.076  15.320  0.00  0.00    -0.387 OA
ATOM     47  H   UNL     1      -2.891  10.414  15.951  0.00  0.00    +0.210 HD
ENDBRANCH  27  46
ENDBRANCH   1  27
TORSDOF 15
