REMARK VINA RESULT:    -5.407     14.374     15.860
REMARK INTER + INTRA:         -13.427
REMARK INTER:                 -10.663
REMARK INTRA:                  -2.764
REMARK UNBOUND:                -2.172
REMARK  Name = lig_assembled_54.pdb
REMARK  24 active torsions:
REMARK  status: ('A' for Active; 'I' for Inactive)
REMARK    1  A    between atoms: _2  and  _9
REMARK    2  A    between atoms: _4  and  _21
REMARK    3  A    between atoms: _5  and  _14
REMARK    4  A    between atoms: _6  and  _7
REMARK    5  A    between atoms: _6  and  _21
REMARK    6  A    between atoms: _9  and  _10
REMARK    7  A    between atoms: _10  and  _11
REMARK    8  A    between atoms: _11  and  _15
REMARK    9  A    between atoms: _11  and  _16
REMARK   10  A    between atoms: _12  and  _13
REMARK   11  A    between atoms: _12  and  _16
REMARK   12  A    between atoms: _14  and  _15
REMARK   13  A    between atoms: _17  and  _37
REMARK   14  A    between atoms: _19  and  _25
REMARK   15  A    between atoms: _20  and  _24
REMARK   16  A    between atoms: _24  and  _25
REMARK   17  A    between atoms: _27  and  _28
REMARK   18  A    between atoms: _29  and  _30
REMARK   19  A    between atoms: _31  and  _33
REMARK   20  A    between atoms: _33  and  _34
REMARK   21  A    between atoms: _33  and  _35
REMARK   22  A    between atoms: _35  and  _36
REMARK   23  A    between atoms: _35  and  _37
REMARK   24  A    between atoms: _38  and  _40
REMARK                            x       y       z     vdW  Elec       q    Type
REMARK                         _______ _______ _______ _____ _____    ______ ____
ROOT
ATOM      1  C   UNL     1      18.537  10.298  29.004  0.00  0.00    +0.163 C 
ENDROOT
BRANCH   1   2
ATOM      2  O   UNL     1      17.289  10.943  29.306  0.00  0.00    -0.388 OA
ATOM      3  H   UNL     1      17.255  11.796  28.868  0.00  0.00    +0.210 HD
ENDBRANCH   1   2
BRANCH   1   4
ATOM      4  C   UNL     1      18.727   9.036  29.864  0.00  0.00    +0.175 C 
BRANCH   4   5
ATOM      5  C   UNL     1      17.956   9.119  31.190  0.00  0.00    +0.176 C 
ATOM      6  O   UNL     1      18.223  10.421  31.781  0.00  0.00    -0.332 OA
ATOM      7  C   UNL     1      17.483  10.723  33.010  0.00  0.00    +0.277 C 
ATOM      8  C   UNL     1      17.709   9.612  34.065  0.00  0.00    +0.110 C 
ATOM      9  C   UNL     1      17.468   8.207  33.473  0.00  0.00    +0.143 C 
ATOM     10  C   UNL     1      18.285   8.002  32.197  0.00  0.00    +0.133 C 
BRANCH  10  11
ATOM     11  N   UNL     1      17.981   6.694  31.596  0.00  0.00    -0.308 N 
ATOM     12  H   UNL     1      17.052   6.550  31.224  0.00  0.00    +0.149 HD
ATOM     13  C   UNL     1      18.851   5.684  31.509  0.00  0.00    +0.210 C 
ATOM     14  C   UNL     1      20.249   5.926  32.108  0.00  0.00    +0.109 C 
ATOM     15  O   UNL     1      18.573   4.604  30.987  0.00  0.00    -0.276 OA
ENDBRANCH  10  11
BRANCH   7  16
ATOM     16  C   UNL     1      15.974  10.858  32.720  0.00  0.00    +0.414 C 
ATOM     17  O   UNL     1      15.149  10.318  33.456  0.00  0.00    -0.240 OA
ATOM     18  O   UNL     1      15.580  11.507  31.749  0.00  0.00    -0.240 OA
ENDBRANCH   7  16
BRANCH   9  19
ATOM     19  O   UNL     1      17.833   7.212  34.431  0.00  0.00    -0.390 OA
ATOM     20  H   UNL     1      17.484   6.361  34.157  0.00  0.00    +0.210 HD
ENDBRANCH   9  19
BRANCH   7  21
ATOM     21  O   UNL     1      17.991  11.972  33.545  0.00  0.00    -0.343 OA
ATOM     22  C   UNL     1      17.677  12.214  34.939  0.00  0.00    +0.198 C 
ENDBRANCH   7  21
ENDBRANCH   4   5
BRANCH   4  23
ATOM     23  O   UNL     1      20.129   8.814  30.117  0.00  0.00    -0.387 OA
ATOM     24  H   UNL     1      20.283   8.786  31.064  0.00  0.00    +0.210 HD
ENDBRANCH   4  23
ENDBRANCH   1   4
BRANCH   1  25
ATOM     25  C   UNL     1      18.585   9.920  27.527  0.00  0.00    +0.141 C 
BRANCH  25  28
ATOM     26  C   UNL     1      19.043   7.749  26.439  0.00  0.00    +0.401 C 
ATOM     27  O   UNL     1      18.015   7.767  25.758  0.00  0.00    -0.226 OA
ATOM     28  N   UNL     1      19.385   8.711  27.297  0.00  0.00    -0.279 N 
ATOM     29  H   UNL     1      20.244   8.601  27.819  0.00  0.00    +0.152 HD
BRANCH  26  30
ATOM     30  O   UNL     1      19.935   6.637  26.322  0.00  0.00    -0.444 OA
BRANCH  30  31
ATOM     31  C   UNL     1      19.814   6.063  25.018  0.00  0.00    +0.292 C 
BRANCH  31  33
ATOM     32  N   UNL     1      18.685   4.070  25.960  0.00  0.00    -0.131 NA
ATOM     33  C   UNL     1      19.631   4.602  25.124  0.00  0.00    +0.120 A 
ATOM     34  C   UNL     1      20.280   3.579  24.467  0.00  0.00    +0.137 A 
ATOM     35  N   UNL     1      19.658   2.454  24.917  0.00  0.00    -0.251 N 
ATOM     36  N   UNL     1      18.705   2.751  25.819  0.00  0.00    -0.065 NA
BRANCH  35  37
ATOM     37  C   UNL     1      19.868   1.083  24.499  0.00  0.00    +0.150 C 
BRANCH  37  38
ATOM     38  C   UNL     1      19.562   0.890  23.022  0.00  0.00    +0.084 C 
BRANCH  38  39
ATOM     39  C   UNL     1      18.070   0.997  22.689  0.00  0.00    +0.252 C 
BRANCH  39  40
ATOM     40  O   UNL     1      17.457  -0.293  22.745  0.00  0.00    -0.352 OA
BRANCH  40  41
ATOM     41  C   UNL     1      18.288  -1.354  22.276  0.00  0.00    +0.159 C 
ATOM     42  C   UNL     1      18.041  -2.582  23.129  0.00  0.00    +0.034 C 
ENDBRANCH  40  41
ENDBRANCH  39  40
BRANCH  39  43
ATOM     43  O   UNL     1      17.959   1.531  21.364  0.00  0.00    -0.352 OA
BRANCH  43  44
ATOM     44  C   UNL     1      16.922   2.509  21.252  0.00  0.00    +0.159 C 
ATOM     45  C   UNL     1      16.812   3.265  22.561  0.00  0.00    +0.034 C 
ENDBRANCH  43  44
ENDBRANCH  39  43
ENDBRANCH  38  39
ENDBRANCH  37  38
ENDBRANCH  35  37
ENDBRANCH  31  33
ENDBRANCH  30  31
ENDBRANCH  26  30
ENDBRANCH  25  28
ENDBRANCH   1  25
TORSDOF 20
