REMARK VINA RESULT:    -5.386     26.426     29.031
REMARK INTER + INTRA:         -13.505
REMARK INTER:                 -11.028
REMARK INTRA:                  -2.477
REMARK UNBOUND:                -3.868
REMARK  Name = lig_assembled_85.pdb
REMARK  19 active torsions:
REMARK  status: ('A' for Active; 'I' for Inactive)
REMARK    1  A    between atoms: _2  and  _10
REMARK    2  A    between atoms: _3  and  _6
REMARK    3  A    between atoms: _3  and  _17
REMARK    4  A    between atoms: _5  and  _23
REMARK    5  A    between atoms: _7  and  _8
REMARK    6  A    between atoms: _7  and  _23
REMARK    7  A    between atoms: _15  and  _16
REMARK    8  A    between atoms: _19  and  _39
REMARK    9  A    between atoms: _21  and  _27
REMARK   10  A    between atoms: _22  and  _26
REMARK   11  A    between atoms: _26  and  _27
REMARK   12  A    between atoms: _29  and  _30
REMARK   13  A    between atoms: _31  and  _32
REMARK   14  A    between atoms: _33  and  _35
REMARK   15  A    between atoms: _35  and  _36
REMARK   16  A    between atoms: _35  and  _37
REMARK   17  A    between atoms: _37  and  _38
REMARK   18  A    between atoms: _37  and  _39
REMARK   19  A    between atoms: _40  and  _42
REMARK                            x       y       z     vdW  Elec       q    Type
REMARK                         _______ _______ _______ _____ _____    ______ ____
ROOT
ATOM      1  C   UNL     1       1.233  23.313  16.453  0.00  0.00    +0.141 C 
ENDROOT
BRANCH   1   4
ATOM      2  C   UNL     1       1.802  22.556  14.170  0.00  0.00    +0.401 C 
ATOM      3  O   UNL     1       1.087  23.392  13.613  0.00  0.00    -0.226 OA
ATOM      4  N   UNL     1       1.925  22.444  15.493  0.00  0.00    -0.279 N 
ATOM      5  H   UNL     1       2.529  21.719  15.856  0.00  0.00    +0.152 HD
BRANCH   2   6
ATOM      6  O   UNL     1       2.550  21.638  13.369  0.00  0.00    -0.444 OA
BRANCH   6   7
ATOM      7  C   UNL     1       1.705  21.093  12.352  0.00  0.00    +0.292 C 
BRANCH   7   9
ATOM      8  N   UNL     1       3.023  19.048  12.771  0.00  0.00    -0.131 NA
ATOM      9  C   UNL     1       1.908  19.638  12.247  0.00  0.00    +0.121 A 
ATOM     10  C   UNL     1       1.088  18.669  11.715  0.00  0.00    +0.143 A 
ATOM     11  N   UNL     1       1.749  17.488  11.946  0.00  0.00    -0.219 N 
ATOM     12  N   UNL     1       2.904  17.738  12.607  0.00  0.00    -0.060 NA
BRANCH  11  13
ATOM     13  C   UNL     1       1.343  16.162  11.681  0.00  0.00    +0.080 A 
ATOM     14  C   UNL     1       1.843  15.380  10.628  0.00  0.00    +0.062 A 
ATOM     15  C   UNL     1       1.170  14.172  10.330  0.00  0.00    +0.016 A 
ATOM     16  C   UNL     1       0.059  13.744  11.064  0.00  0.00    +0.021 A 
ATOM     17  C   UNL     1      -0.374  14.495  12.146  0.00  0.00    +0.043 A 
ATOM     18 CL   UNL     1      -1.759  14.002  13.038  0.00  0.00    -0.083 Cl
ATOM     19  C   UNL     1       0.276  15.681  12.474  0.00  0.00    +0.048 A 
BRANCH  14  20
ATOM     20  C   UNL     1       2.971  15.682   9.697  0.00  0.00    +0.248 C 
ATOM     21  O   UNL     1       4.017  15.071   9.929  0.00  0.00    -0.270 OA
ATOM     22  N   UNL     1       2.903  16.631   8.671  0.00  0.00    -0.304 N 
ATOM     23  C   UNL     1       1.725  17.339   8.185  0.00  0.00    +0.132 C 
ATOM     24  C   UNL     1       4.107  16.802   7.865  0.00  0.00    +0.132 C 
ENDBRANCH  14  20
ENDBRANCH  11  13
ENDBRANCH   7   9
ENDBRANCH   6   7
ENDBRANCH   2   6
ENDBRANCH   1   4
BRANCH   1  25
ATOM     25  C   UNL     1       0.642  22.521  17.614  0.00  0.00    +0.163 C 
BRANCH  25  26
ATOM     26  O   UNL     1       0.217  23.417  18.654  0.00  0.00    -0.388 OA
ATOM     27  H   UNL     1       0.987  23.824  19.060  0.00  0.00    +0.210 HD
ENDBRANCH  25  26
BRANCH  25  28
ATOM     28  C   UNL     1      -0.535  21.669  17.108  0.00  0.00    +0.175 C 
BRANCH  28  29
ATOM     29  C   UNL     1      -1.485  21.262  18.244  0.00  0.00    +0.176 C 
ATOM     30  O   UNL     1      -0.780  20.320  19.099  0.00  0.00    -0.332 OA
ATOM     31  C   UNL     1      -1.499  19.899  20.306  0.00  0.00    +0.277 C 
ATOM     32  C   UNL     1      -2.891  19.330  19.935  0.00  0.00    +0.110 C 
ATOM     33  C   UNL     1      -3.665  20.283  19.000  0.00  0.00    +0.143 C 
ATOM     34  C   UNL     1      -2.823  20.658  17.780  0.00  0.00    +0.133 C 
BRANCH  34  35
ATOM     35  N   UNL     1      -3.538  21.634  16.942  0.00  0.00    -0.308 N 
ATOM     36  H   UNL     1      -3.860  22.485  17.380  0.00  0.00    +0.149 HD
ATOM     37  C   UNL     1      -3.788  21.468  15.640  0.00  0.00    +0.210 C 
ATOM     38  C   UNL     1      -3.307  20.148  15.009  0.00  0.00    +0.109 C 
ATOM     39  O   UNL     1      -4.376  22.309  14.960  0.00  0.00    -0.276 OA
ENDBRANCH  34  35
BRANCH  31  40
ATOM     40  C   UNL     1      -1.669  21.081  21.282  0.00  0.00    +0.414 C 
ATOM     41  O   UNL     1      -0.937  22.066  21.196  0.00  0.00    -0.240 OA
ATOM     42  O   UNL     1      -2.538  21.051  22.155  0.00  0.00    -0.240 OA
ENDBRANCH  31  40
BRANCH  33  43
ATOM     43  O   UNL     1      -4.872  19.655  18.564  0.00  0.00    -0.390 OA
ATOM     44  H   UNL     1      -5.515  19.666  19.277  0.00  0.00    +0.210 HD
ENDBRANCH  33  43
BRANCH  31  45
ATOM     45  O   UNL     1      -0.730  18.847  20.942  0.00  0.00    -0.343 OA
ATOM     46  C   UNL     1      -1.501  17.692  21.361  0.00  0.00    +0.198 C 
ENDBRANCH  31  45
ENDBRANCH  28  29
BRANCH  28  47
ATOM     47  O   UNL     1      -0.043  20.497  16.427  0.00  0.00    -0.387 OA
ATOM     48  H   UNL     1      -0.784  19.944  16.167  0.00  0.00    +0.210 HD
ENDBRANCH  28  47
ENDBRANCH  25  28
ENDBRANCH   1  25
TORSDOF 15
