REMARK VINA RESULT:    -5.186     16.771     19.940
REMARK INTER + INTRA:         -13.345
REMARK INTER:                  -9.735
REMARK INTRA:                  -3.610
REMARK UNBOUND:                -3.914
REMARK  Name = lig_assembled_73.pdb
REMARK  18 active torsions:
REMARK  status: ('A' for Active; 'I' for Inactive)
REMARK    1  A    between atoms: _2  and  _10
REMARK    2  A    between atoms: _3  and  _14
REMARK    3  A    between atoms: _5  and  _22
REMARK    4  A    between atoms: _7  and  _8
REMARK    5  A    between atoms: _7  and  _22
REMARK    6  A    between atoms: _13  and  _16
REMARK    7  A    between atoms: _18  and  _38
REMARK    8  A    between atoms: _20  and  _26
REMARK    9  A    between atoms: _21  and  _25
REMARK   10  A    between atoms: _25  and  _26
REMARK   11  A    between atoms: _28  and  _29
REMARK   12  A    between atoms: _30  and  _31
REMARK   13  A    between atoms: _32  and  _34
REMARK   14  A    between atoms: _34  and  _35
REMARK   15  A    between atoms: _34  and  _36
REMARK   16  A    between atoms: _36  and  _37
REMARK   17  A    between atoms: _36  and  _38
REMARK   18  A    between atoms: _39  and  _41
REMARK                            x       y       z     vdW  Elec       q    Type
REMARK                         _______ _______ _______ _____ _____    ______ ____
ROOT
ATOM      1  C   UNL     1      -3.521  20.764  25.337  0.00  0.00    +0.163 C 
ENDROOT
BRANCH   1   2
ATOM      2  O   UNL     1      -4.859  20.330  25.629  0.00  0.00    -0.388 OA
ATOM      3  H   UNL     1      -5.126  19.663  24.991  0.00  0.00    +0.210 HD
ENDBRANCH   1   2
BRANCH   1   4
ATOM      4  C   UNL     1      -3.418  21.303  23.899  0.00  0.00    +0.175 C 
BRANCH   4   5
ATOM      5  C   UNL     1      -3.208  20.179  22.875  0.00  0.00    +0.176 C 
ATOM      6  O   UNL     1      -2.031  20.506  22.087  0.00  0.00    -0.332 OA
ATOM      7  C   UNL     1      -1.611  19.487  21.120  0.00  0.00    +0.277 C 
ATOM      8  C   UNL     1      -2.785  19.119  20.179  0.00  0.00    +0.110 C 
ATOM      9  C   UNL     1      -4.069  18.794  20.970  0.00  0.00    +0.143 C 
ATOM     10  C   UNL     1      -4.411  19.918  21.948  0.00  0.00    +0.133 C 
BRANCH  10  11
ATOM     11  N   UNL     1      -5.586  19.559  22.757  0.00  0.00    -0.308 N 
ATOM     12  H   UNL     1      -5.499  18.779  23.394  0.00  0.00    +0.149 HD
ATOM     13  C   UNL     1      -6.759  20.194  22.705  0.00  0.00    +0.210 C 
ATOM     14  C   UNL     1      -6.867  21.361  21.706  0.00  0.00    +0.109 C 
ATOM     15  O   UNL     1      -7.722  19.880  23.406  0.00  0.00    -0.276 OA
ENDBRANCH  10  11
BRANCH   7  16
ATOM     16  C   UNL     1      -1.113  18.219  21.843  0.00  0.00    +0.414 C 
ATOM     17  O   UNL     1      -0.189  18.289  22.652  0.00  0.00    -0.240 OA
ATOM     18  O   UNL     1      -1.635  17.126  21.618  0.00  0.00    -0.240 OA
ENDBRANCH   7  16
BRANCH   9  19
ATOM     19  O   UNL     1      -5.159  18.609  20.066  0.00  0.00    -0.390 OA
ATOM     20  H   UNL     1      -4.841  18.194  19.261  0.00  0.00    +0.210 HD
ENDBRANCH   9  19
BRANCH   7  21
ATOM     21  O   UNL     1      -0.539  20.044  20.317  0.00  0.00    -0.343 OA
ATOM     22  C   UNL     1      -0.034  21.325  20.773  0.00  0.00    +0.198 C 
ENDBRANCH   7  21
ENDBRANCH   4   5
BRANCH   4  23
ATOM     23  O   UNL     1      -2.350  22.267  23.805  0.00  0.00    -0.387 OA
ATOM     24  H   UNL     1      -1.804  22.218  24.594  0.00  0.00    +0.210 HD
ENDBRANCH   4  23
ENDBRANCH   1   4
BRANCH   1  25
ATOM     25  C   UNL     1      -3.099  21.852  26.320  0.00  0.00    +0.141 C 
BRANCH  25  28
ATOM     26  C   UNL     1      -4.031  21.994  28.604  0.00  0.00    +0.401 C 
ATOM     27  O   UNL     1      -3.013  21.559  29.148  0.00  0.00    -0.226 OA
ATOM     28  N   UNL     1      -4.161  22.157  27.287  0.00  0.00    -0.279 N 
ATOM     29  H   UNL     1      -5.039  22.511  26.934  0.00  0.00    +0.152 HD
BRANCH  26  30
ATOM     30  O   UNL     1      -5.155  22.346  29.415  0.00  0.00    -0.444 OA
BRANCH  30  31
ATOM     31  C   UNL     1      -5.718  21.164  29.991  0.00  0.00    +0.292 C 
BRANCH  31  33
ATOM     32  N   UNL     1      -7.088  20.712  27.980  0.00  0.00    -0.131 NA
ATOM     33  C   UNL     1      -6.219  20.266  28.933  0.00  0.00    +0.121 A 
ATOM     34  C   UNL     1      -5.948  18.938  28.706  0.00  0.00    +0.143 A 
ATOM     35  N   UNL     1      -6.675  18.612  27.585  0.00  0.00    -0.220 N 
ATOM     36  N   UNL     1      -7.360  19.703  27.165  0.00  0.00    -0.060 NA
BRANCH  35  37
ATOM     37  C   UNL     1      -6.764  17.366  26.912  0.00  0.00    +0.074 A 
ATOM     38  C   UNL     1      -6.833  16.175  27.656  0.00  0.00    +0.032 A 
ATOM     39  C   UNL     1      -6.911  14.932  27.012  0.00  0.00    +0.054 A 
ATOM     40  C   UNL     1      -6.919  14.867  25.620  0.00  0.00    +0.195 A 
ATOM     41  C   UNL     1      -6.851  16.052  24.888  0.00  0.00    +0.316 A 
ATOM     42  C   UNL     1      -6.780  17.305  25.513  0.00  0.00    +0.116 A 
BRANCH  41  43
ATOM     43  N   UNL     1      -6.847  16.018  23.439  0.00  0.00    +0.083 N 
ATOM     44  O   UNL     1      -7.764  15.402  22.878  0.00  0.00    +0.042 OA
ATOM     45  O   UNL     1      -5.871  16.532  22.874  0.00  0.00    -0.576 OA
ENDBRANCH  41  43
BRANCH  40  46
ATOM     46  O   UNL     1      -7.016  13.661  24.995  0.00  0.00    -0.501 OA
ATOM     47  H   UNL     1      -6.143  13.235  24.953  0.00  0.00    +0.292 HD
ENDBRANCH  40  46
ENDBRANCH  35  37
ENDBRANCH  31  33
ENDBRANCH  30  31
ENDBRANCH  26  30
ENDBRANCH  25  28
ENDBRANCH   1  25
TORSDOF 16
