REMARK VINA RESULT:    -5.897      8.616     12.185
REMARK INTER + INTRA:         -13.086
REMARK INTER:                 -11.082
REMARK INTRA:                  -2.004
REMARK UNBOUND:                -2.536
REMARK  Name = lig_assembled_44.pdb
REMARK  17 active torsions:
REMARK  status: ('A' for Active; 'I' for Inactive)
REMARK    1  A    between atoms: _2  and  _9
REMARK    2  A    between atoms: _4  and  _19
REMARK    3  A    between atoms: _6  and  _7
REMARK    4  A    between atoms: _6  and  _19
REMARK    5  A    between atoms: _9  and  _10
REMARK    6  A    between atoms: _15  and  _35
REMARK    7  A    between atoms: _17  and  _23
REMARK    8  A    between atoms: _18  and  _22
REMARK    9  A    between atoms: _22  and  _23
REMARK   10  A    between atoms: _25  and  _26
REMARK   11  A    between atoms: _27  and  _28
REMARK   12  A    between atoms: _29  and  _31
REMARK   13  A    between atoms: _31  and  _32
REMARK   14  A    between atoms: _31  and  _33
REMARK   15  A    between atoms: _33  and  _34
REMARK   16  A    between atoms: _33  and  _35
REMARK   17  A    between atoms: _36  and  _38
REMARK                            x       y       z     vdW  Elec       q    Type
REMARK                         _______ _______ _______ _____ _____    ______ ____
ROOT
ATOM      1  C   UNL     1       7.583   3.141  33.466  0.00  0.00    +0.163 C 
ENDROOT
BRANCH   1   2
ATOM      2  O   UNL     1       7.409   3.303  32.049  0.00  0.00    -0.388 OA
ATOM      3  H   UNL     1       7.659   2.491  31.600  0.00  0.00    +0.210 HD
ENDBRANCH   1   2
BRANCH   1   4
ATOM      4  C   UNL     1       8.230   1.792  33.761  0.00  0.00    +0.141 C 
BRANCH   4   7
ATOM      5  C   UNL     1       9.439   1.784  35.916  0.00  0.00    +0.401 C 
ATOM      6  O   UNL     1       8.436   1.527  36.586  0.00  0.00    -0.226 OA
ATOM      7  N   UNL     1       9.433   1.931  34.591  0.00  0.00    -0.279 N 
ATOM      8  H   UNL     1      10.306   2.151  34.131  0.00  0.00    +0.152 HD
BRANCH   5   9
ATOM      9  O   UNL     1      10.696   1.943  36.580  0.00  0.00    -0.444 OA
BRANCH   9  10
ATOM     10  C   UNL     1      11.063   3.325  36.584  0.00  0.00    +0.292 C 
BRANCH  10  12
ATOM     11  N   UNL     1      12.455   3.280  34.534  0.00  0.00    -0.131 NA
ATOM     12  C   UNL     1      12.344   3.519  35.879  0.00  0.00    +0.120 A 
ATOM     13  C   UNL     1      13.557   3.952  36.362  0.00  0.00    +0.137 A 
ATOM     14  N   UNL     1      14.343   4.030  35.250  0.00  0.00    -0.247 N 
ATOM     15  N   UNL     1      13.691   3.587  34.160  0.00  0.00    -0.065 NA
BRANCH  14  16
ATOM     16  C   UNL     1      15.707   4.511  35.147  0.00  0.00    +0.180 C 
BRANCH  16  17
ATOM     17  C   UNL     1      15.754   5.944  34.673  0.00  0.00    -0.026 A 
ATOM     18  C   UNL     1      15.630   6.251  33.308  0.00  0.00    +0.006 A 
ATOM     19  C   UNL     1      15.690   7.576  32.871  0.00  0.00    +0.015 A 
ATOM     20  C   UNL     1      15.875   8.602  33.796  0.00  0.00    +0.018 A 
ATOM     21 BR   UNL     1      15.939  10.396  33.203  0.00  0.00    -0.050 Br
ATOM     22  C   UNL     1      16.013   8.315  35.152  0.00  0.00    +0.015 A 
ATOM     23  C   UNL     1      15.958   6.988  35.589  0.00  0.00    +0.006 A 
ENDBRANCH  16  17
ENDBRANCH  14  16
ENDBRANCH  10  12
ENDBRANCH   9  10
ENDBRANCH   5   9
ENDBRANCH   4   7
ENDBRANCH   1   4
BRANCH   1  24
ATOM     24  C   UNL     1       6.235   3.236  34.200  0.00  0.00    +0.175 C 
BRANCH  24  25
ATOM     25  C   UNL     1       6.024   4.613  34.846  0.00  0.00    +0.176 C 
ATOM     26  O   UNL     1       7.315   5.088  35.318  0.00  0.00    -0.332 OA
ATOM     27  C   UNL     1       7.327   6.444  35.874  0.00  0.00    +0.277 C 
ATOM     28  C   UNL     1       6.276   6.576  37.003  0.00  0.00    +0.110 C 
ATOM     29  C   UNL     1       4.893   6.053  36.559  0.00  0.00    +0.143 C 
ATOM     30  C   UNL     1       4.998   4.636  35.994  0.00  0.00    +0.133 C 
BRANCH  30  31
ATOM     31  N   UNL     1       3.690   4.183  35.494  0.00  0.00    -0.308 N 
ATOM     32  H   UNL     1       3.332   4.613  34.653  0.00  0.00    +0.149 HD
ATOM     33  C   UNL     1       2.946   3.240  36.079  0.00  0.00    +0.210 C 
ATOM     34  C   UNL     1       3.508   2.623  37.373  0.00  0.00    +0.109 C 
ATOM     35  O   UNL     1       1.861   2.870  35.629  0.00  0.00    -0.276 OA
ENDBRANCH  30  31
BRANCH  27  36
ATOM     36  C   UNL     1       7.036   7.488  34.775  0.00  0.00    +0.414 C 
ATOM     37  O   UNL     1       7.953   8.152  34.292  0.00  0.00    -0.240 OA
ATOM     38  O   UNL     1       5.886   7.666  34.372  0.00  0.00    -0.240 OA
ENDBRANCH  27  36
BRANCH  27  39
ATOM     39  O   UNL     1       8.640   6.685  36.441  0.00  0.00    -0.343 OA
ATOM     40  C   UNL     1       8.636   7.273  37.766  0.00  0.00    +0.198 C 
ENDBRANCH  27  39
BRANCH  29  41
ATOM     41  O   UNL     1       3.998   6.052  37.671  0.00  0.00    -0.390 OA
ATOM     42  H   UNL     1       4.139   6.843  38.197  0.00  0.00    +0.210 HD
ENDBRANCH  29  41
ENDBRANCH  24  25
BRANCH  24  43
ATOM     43  O   UNL     1       6.138   2.199  35.198  0.00  0.00    -0.387 OA
ATOM     44  H   UNL     1       5.423   1.601  34.969  0.00  0.00    +0.210 HD
ENDBRANCH  24  43
ENDBRANCH   1  24
TORSDOF 15
