REMARK VINA RESULT:    -6.445      1.903      3.956
REMARK INTER + INTRA:         -13.437
REMARK INTER:                 -11.680
REMARK INTRA:                  -1.757
REMARK UNBOUND:                -1.905
REMARK  Name = lig_assembled_38.pdb
REMARK  17 active torsions:
REMARK  status: ('A' for Active; 'I' for Inactive)
REMARK    1  A    between atoms: _2  and  _9
REMARK    2  A    between atoms: _4  and  _19
REMARK    3  A    between atoms: _6  and  _7
REMARK    4  A    between atoms: _6  and  _19
REMARK    5  A    between atoms: _9  and  _10
REMARK    6  A    between atoms: _15  and  _35
REMARK    7  A    between atoms: _17  and  _23
REMARK    8  A    between atoms: _18  and  _22
REMARK    9  A    between atoms: _22  and  _23
REMARK   10  A    between atoms: _25  and  _26
REMARK   11  A    between atoms: _27  and  _28
REMARK   12  A    between atoms: _29  and  _31
REMARK   13  A    between atoms: _31  and  _32
REMARK   14  A    between atoms: _31  and  _33
REMARK   15  A    between atoms: _33  and  _34
REMARK   16  A    between atoms: _33  and  _35
REMARK   17  A    between atoms: _36  and  _38
REMARK                            x       y       z     vdW  Elec       q    Type
REMARK                         _______ _______ _______ _____ _____    ______ ____
ROOT
ATOM      1  C   UNL     1       4.176   3.516  32.181  0.00  0.00    +0.163 C 
ENDROOT
BRANCH   1   2
ATOM      2  O   UNL     1       3.688   4.419  33.187  0.00  0.00    -0.388 OA
ATOM      3  H   UNL     1       4.354   5.087  33.368  0.00  0.00    +0.210 HD
ENDBRANCH   1   2
BRANCH   1   4
ATOM      4  C   UNL     1       3.140   2.430  31.908  0.00  0.00    +0.141 C 
BRANCH   4   7
ATOM      5  C   UNL     1       1.517   3.690  30.535  0.00  0.00    +0.401 C 
ATOM      6  O   UNL     1       1.243   4.495  31.428  0.00  0.00    -0.226 OA
ATOM      7  N   UNL     1       2.388   2.689  30.674  0.00  0.00    -0.279 N 
ATOM      8  H   UNL     1       2.538   2.075  29.887  0.00  0.00    +0.152 HD
BRANCH   5   9
ATOM      9  O   UNL     1       0.871   3.815  29.265  0.00  0.00    -0.444 OA
BRANCH   9  10
ATOM     10  C   UNL     1       1.457   2.897  28.339  0.00  0.00    +0.292 C 
BRANCH  10  12
ATOM     11  N   UNL     1       2.721   3.732  26.379  0.00  0.00    -0.131 NA
ATOM     12  C   UNL     1       1.518   3.496  26.990  0.00  0.00    +0.120 A 
ATOM     13  C   UNL     1       0.501   3.865  26.140  0.00  0.00    +0.137 A 
ATOM     14  N   UNL     1       1.147   4.266  25.006  0.00  0.00    -0.247 N 
ATOM     15  N   UNL     1       2.483   4.197  25.161  0.00  0.00    -0.065 NA
BRANCH  14  16
ATOM     16  C   UNL     1       0.573   4.493  23.692  0.00  0.00    +0.180 C 
BRANCH  16  17
ATOM     17  C   UNL     1       1.045   3.507  22.651  0.00  0.00    -0.025 A 
ATOM     18  C   UNL     1       1.050   2.128  22.916  0.00  0.00    +0.005 A 
ATOM     19  C   UNL     1       1.402   1.214  21.917  0.00  0.00    +0.001 A 
ATOM     20  C   UNL     1       1.752   1.666  20.646  0.00  0.00    +0.015 A 
ATOM     21  C   UNL     1       1.758   3.031  20.380  0.00  0.00    +0.018 A 
ATOM     22 BR   UNL     1       2.222   3.648  18.654  0.00  0.00    -0.050 Br
ATOM     23  C   UNL     1       1.408   3.951  21.370  0.00  0.00    +0.020 A 
ENDBRANCH  16  17
ENDBRANCH  14  16
ENDBRANCH  10  12
ENDBRANCH   9  10
ENDBRANCH   5   9
ENDBRANCH   4   7
ENDBRANCH   1   4
BRANCH   1  24
ATOM     24  C   UNL     1       5.499   2.865  32.621  0.00  0.00    +0.175 C 
BRANCH  24  25
ATOM     25  C   UNL     1       5.902   3.280  34.043  0.00  0.00    +0.176 C 
ATOM     26  O   UNL     1       6.482   4.612  33.972  0.00  0.00    -0.332 OA
ATOM     27  C   UNL     1       6.833   5.220  35.260  0.00  0.00    +0.277 C 
ATOM     28  C   UNL     1       7.768   4.284  36.063  0.00  0.00    +0.110 C 
ATOM     29  C   UNL     1       7.208   2.847  36.139  0.00  0.00    +0.143 C 
ATOM     30  C   UNL     1       6.875   2.315  34.745  0.00  0.00    +0.133 C 
BRANCH  30  31
ATOM     31  N   UNL     1       6.262   0.980  34.836  0.00  0.00    -0.308 N 
ATOM     32  H   UNL     1       5.444   0.876  35.420  0.00  0.00    +0.149 HD
ATOM     33  C   UNL     1       6.716  -0.102  34.199  0.00  0.00    +0.210 C 
ATOM     34  C   UNL     1       7.980   0.084  33.338  0.00  0.00    +0.109 C 
ATOM     35  O   UNL     1       6.174  -1.205  34.282  0.00  0.00    -0.276 OA
ENDBRANCH  30  31
BRANCH  27  36
ATOM     36  C   UNL     1       5.565   5.517  36.087  0.00  0.00    +0.414 C 
ATOM     37  O   UNL     1       4.466   5.575  35.539  0.00  0.00    -0.240 OA
ATOM     38  O   UNL     1       5.642   5.698  37.303  0.00  0.00    -0.240 OA
ENDBRANCH  27  36
BRANCH  27  39
ATOM     39  O   UNL     1       7.543   6.457  34.993  0.00  0.00    -0.343 OA
ATOM     40  C   UNL     1       6.871   7.365  34.085  0.00  0.00    +0.198 C 
ENDBRANCH  27  39
BRANCH  29  41
ATOM     41  O   UNL     1       8.169   1.988  36.754  0.00  0.00    -0.390 OA
ATOM     42  H   UNL     1       8.674   1.534  36.075  0.00  0.00    +0.210 HD
ENDBRANCH  29  41
ENDBRANCH  24  25
BRANCH  24  43
ATOM     43  O   UNL     1       6.548   3.196  31.690  0.00  0.00    -0.387 OA
ATOM     44  H   UNL     1       6.941   2.389  31.349  0.00  0.00    +0.210 HD
ENDBRANCH  24  43
ENDBRANCH   1  24
TORSDOF 15
