REMARK VINA RESULT:    -6.001     13.796     18.650
REMARK INTER + INTRA:         -14.130
REMARK INTER:                 -10.958
REMARK INTRA:                  -3.172
REMARK UNBOUND:                -1.813
REMARK  Name = lig_assembled_33.pdb
REMARK  22 active torsions:
REMARK  status: ('A' for Active; 'I' for Inactive)
REMARK    1  A    between atoms: _2  and  _9
REMARK    2  A    between atoms: _4  and  _20
REMARK    3  A    between atoms: _5  and  _13
REMARK    4  A    between atoms: _5  and  _14
REMARK    5  A    between atoms: _6  and  _7
REMARK    6  A    between atoms: _6  and  _20
REMARK    7  A    between atoms: _9  and  _10
REMARK    8  A    between atoms: _10  and  _11
REMARK    9  A    between atoms: _11  and  _12
REMARK   10  A    between atoms: _12  and  _13
REMARK   11  A    between atoms: _16  and  _36
REMARK   12  A    between atoms: _18  and  _24
REMARK   13  A    between atoms: _19  and  _23
REMARK   14  A    between atoms: _23  and  _24
REMARK   15  A    between atoms: _26  and  _27
REMARK   16  A    between atoms: _28  and  _29
REMARK   17  A    between atoms: _30  and  _32
REMARK   18  A    between atoms: _32  and  _33
REMARK   19  A    between atoms: _32  and  _34
REMARK   20  A    between atoms: _34  and  _35
REMARK   21  A    between atoms: _34  and  _36
REMARK   22  A    between atoms: _37  and  _39
REMARK                            x       y       z     vdW  Elec       q    Type
REMARK                         _______ _______ _______ _____ _____    ______ ____
ROOT
ATOM      1  C   UNL     1      19.352   6.568  24.499  0.00  0.00    +0.163 C 
ENDROOT
BRANCH   1   2
ATOM      2  O   UNL     1      18.288   6.731  23.547  0.00  0.00    -0.388 OA
ATOM      3  H   UNL     1      17.652   7.367  23.883  0.00  0.00    +0.210 HD
ENDBRANCH   1   2
BRANCH   1   4
ATOM      4  C   UNL     1      20.188   5.316  24.182  0.00  0.00    +0.175 C 
BRANCH   4   5
ATOM      5  C   UNL     1      19.440   4.020  24.526  0.00  0.00    +0.176 C 
ATOM      6  O   UNL     1      18.344   3.872  23.582  0.00  0.00    -0.332 OA
ATOM      7  C   UNL     1      17.577   2.627  23.692  0.00  0.00    +0.277 C 
ATOM      8  C   UNL     1      17.053   2.440  25.136  0.00  0.00    +0.110 C 
ATOM      9  C   UNL     1      18.177   2.620  26.178  0.00  0.00    +0.143 C 
ATOM     10  C   UNL     1      18.911   3.945  25.970  0.00  0.00    +0.133 C 
BRANCH  10  11
ATOM     11  N   UNL     1      20.035   4.065  26.912  0.00  0.00    -0.308 N 
ATOM     12  H   UNL     1      20.827   3.451  26.783  0.00  0.00    +0.149 HD
ATOM     13  C   UNL     1      20.076   4.932  27.927  0.00  0.00    +0.210 C 
ATOM     14  C   UNL     1      18.843   5.836  28.114  0.00  0.00    +0.109 C 
ATOM     15  O   UNL     1      21.038   5.021  28.692  0.00  0.00    -0.276 OA
ENDBRANCH  10  11
BRANCH   7  16
ATOM     16  C   UNL     1      18.444   1.414  23.296  0.00  0.00    +0.414 C 
ATOM     17  O   UNL     1      18.131   0.282  23.664  0.00  0.00    -0.240 OA
ATOM     18  O   UNL     1      19.455   1.566  22.610  0.00  0.00    -0.240 OA
ENDBRANCH   7  16
BRANCH   9  19
ATOM     19  O   UNL     1      17.624   2.590  27.494  0.00  0.00    -0.390 OA
ATOM     20  H   UNL     1      16.881   1.982  27.516  0.00  0.00    +0.210 HD
ENDBRANCH   9  19
BRANCH   7  21
ATOM     21  O   UNL     1      16.436   2.723  22.800  0.00  0.00    -0.343 OA
ATOM     22  C   UNL     1      16.707   3.358  21.525  0.00  0.00    +0.198 C 
ENDBRANCH   7  21
ENDBRANCH   4   5
BRANCH   4  23
ATOM     23  O   UNL     1      21.445   5.367  24.885  0.00  0.00    -0.387 OA
ATOM     24  H   UNL     1      22.147   5.054  24.310  0.00  0.00    +0.210 HD
ENDBRANCH   4  23
ENDBRANCH   1   4
BRANCH   1  25
ATOM     25  C   UNL     1      20.254   7.799  24.490  0.00  0.00    +0.141 C 
BRANCH  25  28
ATOM     26  C   UNL     1      20.999   8.435  26.758  0.00  0.00    +0.401 C 
ATOM     27  O   UNL     1      21.954   7.655  26.765  0.00  0.00    -0.226 OA
ATOM     28  N   UNL     1      20.149   8.563  25.739  0.00  0.00    -0.279 N 
ATOM     29  H   UNL     1      19.390   9.224  25.830  0.00  0.00    +0.152 HD
BRANCH  26  30
ATOM     30  O   UNL     1      20.767   9.259  27.903  0.00  0.00    -0.444 OA
BRANCH  30  31
ATOM     31  C   UNL     1      19.486   9.885  27.790  0.00  0.00    +0.292 C 
BRANCH  31  33
ATOM     32  N   UNL     1      17.635  10.082  29.419  0.00  0.00    -0.131 NA
ATOM     33  C   UNL     1      18.965  10.235  29.124  0.00  0.00    +0.120 A 
ATOM     34  C   UNL     1      19.616  10.736  30.230  0.00  0.00    +0.137 A 
ATOM     35  N   UNL     1      18.631  10.856  31.163  0.00  0.00    -0.251 N 
ATOM     36  N   UNL     1      17.440  10.479  30.668  0.00  0.00    -0.065 NA
BRANCH  35  37
ATOM     37  C   UNL     1      18.739  11.330  32.527  0.00  0.00    +0.145 C 
BRANCH  37  38
ATOM     38  C   UNL     1      17.396  11.799  33.081  0.00  0.00    +0.023 C 
BRANCH  38  39
ATOM     39  C   UNL     1      17.042  11.132  34.413  0.00  0.00    +0.002 C 
BRANCH  39  40
ATOM     40  C   UNL     1      16.920   9.619  34.221  0.00  0.00    +0.011 C 
BRANCH  40  41
ATOM     41  C   UNL     1      15.648   9.216  33.479  0.00  0.00    +0.120 C 
BRANCH  41  42
ATOM     42  C   UNL     1      15.815   7.881  32.788  0.00  0.00    +0.305 C 
ATOM     43  O   UNL     1      15.360   6.819  33.182  0.00  0.00    -0.251 OA
BRANCH  42  44
ATOM     44  O   UNL     1      16.537   7.978  31.648  0.00  0.00    -0.481 OA
ATOM     45  H   UNL     1      17.366   8.480  31.748  0.00  0.00    +0.295 HD
ENDBRANCH  42  44
ENDBRANCH  41  42
ENDBRANCH  40  41
ENDBRANCH  39  40
ENDBRANCH  38  39
ENDBRANCH  37  38
ENDBRANCH  35  37
ENDBRANCH  31  33
ENDBRANCH  30  31
ENDBRANCH  26  30
ENDBRANCH  25  28
ENDBRANCH   1  25
TORSDOF 20
