REMARK VINA RESULT:    -6.065     13.786     15.463
REMARK INTER + INTRA:         -13.459
REMARK INTER:                 -11.097
REMARK INTRA:                  -2.362
REMARK UNBOUND:                -2.608
REMARK  Name = lig_assembled_4.pdb
REMARK  19 active torsions:
REMARK  status: ('A' for Active; 'I' for Inactive)
REMARK    1  A    between atoms: _2  and  _9
REMARK    2  A    between atoms: _4  and  _21
REMARK    3  A    between atoms: _6  and  _7
REMARK    4  A    between atoms: _6  and  _21
REMARK    5  A    between atoms: _10  and  _11
REMARK    6  A    between atoms: _11  and  _12
REMARK    7  A    between atoms: _11  and  _13
REMARK    8  A    between atoms: _17  and  _37
REMARK    9  A    between atoms: _19  and  _25
REMARK   10  A    between atoms: _20  and  _24
REMARK   11  A    between atoms: _24  and  _25
REMARK   12  A    between atoms: _27  and  _28
REMARK   13  A    between atoms: _29  and  _30
REMARK   14  A    between atoms: _31  and  _33
REMARK   15  A    between atoms: _33  and  _34
REMARK   16  A    between atoms: _33  and  _35
REMARK   17  A    between atoms: _35  and  _36
REMARK   18  A    between atoms: _35  and  _37
REMARK   19  A    between atoms: _38  and  _40
REMARK                            x       y       z     vdW  Elec       q    Type
REMARK                         _______ _______ _______ _____ _____    ______ ____
ROOT
ATOM      1  C   UNL     1      18.789  10.207  29.534  0.00  0.00    +0.163 C 
ENDROOT
BRANCH   1   2
ATOM      2  O   UNL     1      17.450  10.728  29.560  0.00  0.00    -0.388 OA
ATOM      3  H   UNL     1      17.466  11.663  29.342  0.00  0.00    +0.210 HD
ENDBRANCH   1   2
BRANCH   1   4
ATOM      4  C   UNL     1      19.130   9.714  28.132  0.00  0.00    +0.141 C 
BRANCH   4   7
ATOM      5  C   UNL     1      19.026   7.458  27.129  0.00  0.00    +0.401 C 
ATOM      6  O   UNL     1      18.382   7.824  26.142  0.00  0.00    -0.226 OA
ATOM      7  N   UNL     1      19.412   8.274  28.111  0.00  0.00    -0.279 N 
ATOM      8  H   UNL     1      19.928   7.878  28.884  0.00  0.00    +0.152 HD
BRANCH   5   9
ATOM      9  O   UNL     1      19.387   6.080  27.250  0.00  0.00    -0.444 OA
BRANCH   9  10
ATOM     10  C   UNL     1      20.048   5.652  26.057  0.00  0.00    +0.292 C 
BRANCH  10  12
ATOM     11  N   UNL     1      18.604   3.651  26.017  0.00  0.00    -0.131 NA
ATOM     12  C   UNL     1      19.237   4.649  25.343  0.00  0.00    +0.121 A 
ATOM     13  C   UNL     1      19.007   4.498  23.994  0.00  0.00    +0.143 A 
ATOM     14  N   UNL     1      18.326   3.301  23.882  0.00  0.00    -0.219 N 
ATOM     15  N   UNL     1      18.033   2.855  25.123  0.00  0.00    -0.060 NA
BRANCH  14  16
ATOM     16  C   UNL     1      17.990   2.602  22.683  0.00  0.00    +0.070 A 
ATOM     17  C   UNL     1      18.699   1.460  22.222  0.00  0.00    -0.019 A 
ATOM     18  C   UNL     1      18.280   0.883  21.001  0.00  0.00    +0.006 A 
ATOM     19  C   UNL     1      17.222   1.407  20.257  0.00  0.00    +0.000 A 
ATOM     20  C   UNL     1      16.534   2.517  20.721  0.00  0.00    +0.002 A 
ATOM     21  C   UNL     1      16.914   3.112  21.923  0.00  0.00    +0.028 A 
BRANCH  17  22
ATOM     22  C   UNL     1      19.885   0.827  22.952  0.00  0.00    +0.015 C 
ATOM     23  C   UNL     1      21.266   1.347  22.524  0.00  0.00    +0.012 C 
ATOM     24  C   UNL     1      19.836  -0.696  22.806  0.00  0.00    +0.012 C 
ENDBRANCH  17  22
ENDBRANCH  14  16
ENDBRANCH  10  12
ENDBRANCH   9  10
ENDBRANCH   5   9
ENDBRANCH   4   7
ENDBRANCH   1   4
BRANCH   1  25
ATOM     25  C   UNL     1      18.949   9.051  30.538  0.00  0.00    +0.175 C 
BRANCH  25  26
ATOM     26  C   UNL     1      17.939   9.144  31.691  0.00  0.00    +0.176 C 
ATOM     27  O   UNL     1      18.114  10.434  32.337  0.00  0.00    -0.332 OA
ATOM     28  C   UNL     1      17.157  10.745  33.403  0.00  0.00    +0.277 C 
ATOM     29  C   UNL     1      17.152   9.623  34.469  0.00  0.00    +0.110 C 
ATOM     30  C   UNL     1      16.999   8.228  33.827  0.00  0.00    +0.143 C 
ATOM     31  C   UNL     1      18.042   8.012  32.730  0.00  0.00    +0.133 C 
BRANCH  31  32
ATOM     32  N   UNL     1      17.832   6.715  32.067  0.00  0.00    -0.308 N 
ATOM     33  H   UNL     1      16.966   6.577  31.565  0.00  0.00    +0.149 HD
ATOM     34  C   UNL     1      18.710   5.709  32.085  0.00  0.00    +0.210 C 
ATOM     35  C   UNL     1      20.009   5.942  32.881  0.00  0.00    +0.109 C 
ATOM     36  O   UNL     1      18.513   4.639  31.509  0.00  0.00    -0.276 OA
ENDBRANCH  31  32
BRANCH  28  37
ATOM     37  C   UNL     1      15.736  10.918  32.829  0.00  0.00    +0.414 C 
ATOM     38  O   UNL     1      14.772  10.401  33.393  0.00  0.00    -0.240 OA
ATOM     39  O   UNL     1      15.553  11.573  31.802  0.00  0.00    -0.240 OA
ENDBRANCH  28  37
BRANCH  30  40
ATOM     40  O   UNL     1      17.151   7.218  34.826  0.00  0.00    -0.390 OA
ATOM     41  H   UNL     1      16.304   6.796  34.986  0.00  0.00    +0.210 HD
ENDBRANCH  30  40
BRANCH  28  42
ATOM     42  O   UNL     1      17.580  11.979  34.040  0.00  0.00    -0.343 OA
ATOM     43  C   UNL     1      17.613  11.940  35.489  0.00  0.00    +0.198 C 
ENDBRANCH  28  42
ENDBRANCH  25  26
BRANCH  25  44
ATOM     44  O   UNL     1      20.293   9.026  31.056  0.00  0.00    -0.387 OA
ATOM     45  H   UNL     1      20.719   9.869  30.883  0.00  0.00    +0.210 HD
ENDBRANCH  25  44
ENDBRANCH   1  25
TORSDOF 15
