REMARK VINA RESULT:    -4.798      6.528      8.777
REMARK INTER + INTRA:         -12.472
REMARK INTER:                  -8.584
REMARK INTRA:                  -3.888
REMARK UNBOUND:                -3.888
REMARK  Name = lig_assembled_46.pdb
REMARK  17 active torsions:
REMARK  status: ('A' for Active; 'I' for Inactive)
REMARK    1  A    between atoms: _2  and  _9
REMARK    2  A    between atoms: _4  and  _19
REMARK    3  A    between atoms: _6  and  _7
REMARK    4  A    between atoms: _6  and  _19
REMARK    5  A    between atoms: _9  and  _10
REMARK    6  A    between atoms: _15  and  _35
REMARK    7  A    between atoms: _17  and  _23
REMARK    8  A    between atoms: _18  and  _22
REMARK    9  A    between atoms: _22  and  _23
REMARK   10  A    between atoms: _25  and  _26
REMARK   11  A    between atoms: _27  and  _28
REMARK   12  A    between atoms: _29  and  _31
REMARK   13  A    between atoms: _31  and  _32
REMARK   14  A    between atoms: _31  and  _33
REMARK   15  A    between atoms: _33  and  _34
REMARK   16  A    between atoms: _33  and  _35
REMARK   17  A    between atoms: _36  and  _38
REMARK                            x       y       z     vdW  Elec       q    Type
REMARK                         _______ _______ _______ _____ _____    ______ ____
ROOT
ATOM      1  C   UNL     1       0.195   3.060  28.819  0.00  0.00    +0.163 C 
ENDROOT
BRANCH   1   2
ATOM      2  O   UNL     1      -0.252   1.695  28.774  0.00  0.00    -0.388 OA
ATOM      3  H   UNL     1      -0.597   1.442  29.634  0.00  0.00    +0.210 HD
ENDBRANCH   1   2
BRANCH   1   4
ATOM      4  C   UNL     1      -1.003   4.000  28.904  0.00  0.00    +0.141 C 
BRANCH   4   7
ATOM      5  C   UNL     1      -2.399   3.669  26.892  0.00  0.00    +0.401 C 
ATOM      6  O   UNL     1      -2.902   2.619  27.298  0.00  0.00    -0.226 OA
ATOM      7  N   UNL     1      -1.498   4.377  27.575  0.00  0.00    -0.279 N 
ATOM      8  H   UNL     1      -1.136   5.221  27.153  0.00  0.00    +0.152 HD
BRANCH   5   9
ATOM      9  O   UNL     1      -2.787   4.175  25.612  0.00  0.00    -0.444 OA
BRANCH   9  10
ATOM     10  C   UNL     1      -3.434   3.141  24.866  0.00  0.00    +0.292 C 
BRANCH  10  12
ATOM     11  N   UNL     1      -1.857   1.801  23.508  0.00  0.00    -0.131 NA
ATOM     12  C   UNL     1      -2.700   2.874  23.614  0.00  0.00    +0.120 A 
ATOM     13  C   UNL     1      -2.733   3.543  22.409  0.00  0.00    +0.137 A 
ATOM     14  N   UNL     1      -1.935   2.793  21.593  0.00  0.00    -0.247 N 
ATOM     15  N   UNL     1      -1.399   1.754  22.262  0.00  0.00    -0.065 NA
BRANCH  14  16
ATOM     16  C   UNL     1      -1.842   2.857  20.145  0.00  0.00    +0.180 C 
BRANCH  16  17
ATOM     17  C   UNL     1      -0.458   3.182  19.639  0.00  0.00    -0.026 A 
ATOM     18  C   UNL     1       0.486   3.806  20.470  0.00  0.00    +0.005 A 
ATOM     19  C   UNL     1       1.794   4.015  20.024  0.00  0.00    +0.000 A 
ATOM     20  C   UNL     1       2.173   3.602  18.750  0.00  0.00    +0.000 A 
ATOM     21  C   UNL     1       1.244   2.989  17.912  0.00  0.00    +0.000 A 
ATOM     22  C   UNL     1      -0.064   2.779  18.354  0.00  0.00    +0.005 A 
ENDBRANCH  16  17
ENDBRANCH  14  16
ENDBRANCH  10  12
ENDBRANCH   9  10
ENDBRANCH   5   9
ENDBRANCH   4   7
ENDBRANCH   1   4
BRANCH   1  23
ATOM     23  C   UNL     1       1.032   3.406  27.576  0.00  0.00    +0.175 C 
BRANCH  23  24
ATOM     24  C   UNL     1       1.127   2.227  26.597  0.00  0.00    +0.176 C 
ATOM     25  O   UNL     1       2.156   1.323  27.084  0.00  0.00    -0.332 OA
ATOM     26  C   UNL     1       2.316   0.077  26.328  0.00  0.00    +0.277 C 
ATOM     27  C   UNL     1       2.555   0.381  24.829  0.00  0.00    +0.110 C 
ATOM     28  C   UNL     1       1.503   1.364  24.273  0.00  0.00    +0.143 C 
ATOM     29  C   UNL     1       1.417   2.623  25.137  0.00  0.00    +0.133 C 
BRANCH  29  30
ATOM     30  N   UNL     1       0.352   3.512  24.648  0.00  0.00    -0.308 N 
ATOM     31  H   UNL     1      -0.605   3.204  24.753  0.00  0.00    +0.149 HD
ATOM     32  C   UNL     1       0.566   4.699  24.074  0.00  0.00    +0.210 C 
ATOM     33  C   UNL     1       2.036   5.128  23.905  0.00  0.00    +0.109 C 
ATOM     34  O   UNL     1      -0.346   5.430  23.688  0.00  0.00    -0.276 OA
ENDBRANCH  29  30
BRANCH  26  35
ATOM     35  C   UNL     1       1.070  -0.819  26.481  0.00  0.00    +0.414 C 
ATOM     36  O   UNL     1       0.520  -0.936  27.575  0.00  0.00    -0.240 OA
ATOM     37  O   UNL     1       0.614  -1.425  25.510  0.00  0.00    -0.240 OA
ENDBRANCH  26  35
BRANCH  26  38
ATOM     38  O   UNL     1       3.482  -0.615  26.845  0.00  0.00    -0.343 OA
ATOM     39  C   UNL     1       4.149  -1.484  25.895  0.00  0.00    +0.198 C 
ENDBRANCH  26  38
BRANCH  28  40
ATOM     40  O   UNL     1       1.847   1.733  22.937  0.00  0.00    -0.390 OA
ATOM     41  H   UNL     1       1.447   1.115  22.320  0.00  0.00    +0.210 HD
ENDBRANCH  28  40
ENDBRANCH  23  24
BRANCH  23  42
ATOM     42  O   UNL     1       2.352   3.834  27.968  0.00  0.00    -0.387 OA
ATOM     43  H   UNL     1       2.713   3.213  28.605  0.00  0.00    +0.210 HD
ENDBRANCH  23  42
ENDBRANCH   1  23
TORSDOF 15
