REMARK VINA RESULT:    -6.276     17.121     21.076
REMARK INTER + INTRA:         -14.762
REMARK INTER:                 -12.157
REMARK INTRA:                  -2.605
REMARK UNBOUND:                -2.615
REMARK  Name = lig_assembled_83.pdb
REMARK  20 active torsions:
REMARK  status: ('A' for Active; 'I' for Inactive)
REMARK    1  A    between atoms: _2  and  _12
REMARK    2  A    between atoms: _3  and  _14
REMARK    3  A    between atoms: _7  and  _24
REMARK    4  A    between atoms: _9  and  _10
REMARK    5  A    between atoms: _9  and  _24
REMARK    6  A    between atoms: _12  and  _13
REMARK    7  A    between atoms: _13  and  _14
REMARK    8  A    between atoms: _13  and  _18
REMARK    9  A    between atoms: _20  and  _40
REMARK   10  A    between atoms: _22  and  _28
REMARK   11  A    between atoms: _23  and  _27
REMARK   12  A    between atoms: _27  and  _28
REMARK   13  A    between atoms: _30  and  _31
REMARK   14  A    between atoms: _32  and  _33
REMARK   15  A    between atoms: _34  and  _36
REMARK   16  A    between atoms: _36  and  _37
REMARK   17  A    between atoms: _36  and  _38
REMARK   18  A    between atoms: _38  and  _39
REMARK   19  A    between atoms: _38  and  _40
REMARK   20  A    between atoms: _41  and  _43
REMARK                            x       y       z     vdW  Elec       q    Type
REMARK                         _______ _______ _______ _____ _____    ______ ____
ROOT
ATOM      1  C   UNL     1       0.180   4.488  20.247  0.00  0.00    +0.141 C 
ENDROOT
BRANCH   1   4
ATOM      2  C   UNL     1       1.534   3.014  18.799  0.00  0.00    +0.401 C 
ATOM      3  O   UNL     1       2.412   3.857  18.601  0.00  0.00    -0.226 OA
ATOM      4  N   UNL     1       0.453   3.225  19.551  0.00  0.00    -0.279 N 
ATOM      5  H   UNL     1      -0.216   2.474  19.646  0.00  0.00    +0.152 HD
BRANCH   2   6
ATOM      6  O   UNL     1       1.661   1.724  18.194  0.00  0.00    -0.444 OA
BRANCH   6   7
ATOM      7  C   UNL     1       1.504   1.844  16.777  0.00  0.00    +0.292 C 
BRANCH   7   9
ATOM      8  N   UNL     1       3.898   1.193  16.686  0.00  0.00    -0.131 NA
ATOM      9  C   UNL     1       2.672   1.279  16.078  0.00  0.00    +0.120 A 
ATOM     10  C   UNL     1       2.769   0.771  14.803  0.00  0.00    +0.137 A 
ATOM     11  N   UNL     1       4.069   0.381  14.704  0.00  0.00    -0.249 N 
ATOM     12  N   UNL     1       4.751   0.645  15.830  0.00  0.00    -0.065 NA
BRANCH  11  13
ATOM     13  C   UNL     1       4.733  -0.210  13.561  0.00  0.00    +0.178 C 
BRANCH  13  14
ATOM     14  C   UNL     1       5.971  -1.012  13.972  0.00  0.00    +0.156 C 
BRANCH  14  15
ATOM     15  O   UNL     1       5.587  -2.098  14.823  0.00  0.00    -0.388 OA
ATOM     16  H   UNL     1       4.686  -1.943  15.171  0.00  0.00    +0.210 HD
ENDBRANCH  14  15
BRANCH  14  17
ATOM     17  C   UNL     1       6.705  -1.542  12.730  0.00  0.00    +0.162 C 
BRANCH  17  18
ATOM     18  N   UNL     1       7.924  -0.802  12.444  0.00  0.00    -0.269 N 
ATOM     19  C   UNL     1       8.740  -0.280  13.422  0.00  0.00    +0.113 A 
ATOM     20  C   UNL     1       9.788   0.309  12.753  0.00  0.00    +0.137 A 
ATOM     21  N   UNL     1       9.627   0.191  11.399  0.00  0.00    -0.172 NA
ATOM     22  C   UNL     1       8.504  -0.485  11.239  0.00  0.00    +0.450 A 
ATOM     23  N   UNL     1       7.986  -0.832   9.935  0.00  0.00    +0.120 N 
ATOM     24  O   UNL     1       6.923  -1.472   9.889  0.00  0.00    +0.045 OA
ATOM     25  O   UNL     1       8.630  -0.458   8.947  0.00  0.00    -0.573 OA
ENDBRANCH  17  18
ENDBRANCH  14  17
ENDBRANCH  13  14
ENDBRANCH  11  13
ENDBRANCH   7   9
ENDBRANCH   6   7
ENDBRANCH   2   6
ENDBRANCH   1   4
BRANCH   1  26
ATOM     26  C   UNL     1       0.533   4.408  21.729  0.00  0.00    +0.163 C 
BRANCH  26  27
ATOM     27  O   UNL     1      -0.207   5.396  22.465  0.00  0.00    -0.388 OA
ATOM     28  H   UNL     1      -1.116   5.413  22.153  0.00  0.00    +0.210 HD
ENDBRANCH  26  27
BRANCH  26  29
ATOM     29  C   UNL     1       0.234   2.993  22.253  0.00  0.00    +0.175 C 
BRANCH  29  30
ATOM     30  C   UNL     1      -0.317   3.012  23.686  0.00  0.00    +0.176 C 
ATOM     31  O   UNL     1       0.710   3.567  24.553  0.00  0.00    -0.332 OA
ATOM     32  C   UNL     1       0.321   3.762  25.953  0.00  0.00    +0.277 C 
ATOM     33  C   UNL     1      -0.213   2.439  26.555  0.00  0.00    +0.110 C 
ATOM     34  C   UNL     1      -1.285   1.794  25.652  0.00  0.00    +0.143 C 
ATOM     35  C   UNL     1      -0.776   1.642  24.218  0.00  0.00    +0.133 C 
BRANCH  35  36
ATOM     36  N   UNL     1      -1.836   1.107  23.349  0.00  0.00    -0.308 N 
ATOM     37  H   UNL     1      -2.681   1.652  23.246  0.00  0.00    +0.149 HD
ATOM     38  C   UNL     1      -1.756  -0.051  22.688  0.00  0.00    +0.210 C 
ATOM     39  C   UNL     1      -0.467  -0.870  22.888  0.00  0.00    +0.109 C 
ATOM     40  O   UNL     1      -2.654  -0.466  21.956  0.00  0.00    -0.276 OA
ENDBRANCH  35  36
BRANCH  32  41
ATOM     41  C   UNL     1      -0.760   4.856  26.074  0.00  0.00    +0.414 C 
ATOM     42  O   UNL     1      -1.655   4.754  26.911  0.00  0.00    -0.240 OA
ATOM     43  O   UNL     1      -0.737   5.841  25.334  0.00  0.00    -0.240 OA
ENDBRANCH  32  41
BRANCH  32  44
ATOM     44  O   UNL     1       1.502   4.158  26.696  0.00  0.00    -0.343 OA
ATOM     45  C   UNL     1       1.846   3.293  27.807  0.00  0.00    +0.198 C 
ENDBRANCH  32  44
BRANCH  34  46
ATOM     46  O   UNL     1      -1.638   0.509  26.165  0.00  0.00    -0.390 OA
ATOM     47  H   UNL     1      -1.765  -0.103  25.437  0.00  0.00    +0.210 HD
ENDBRANCH  34  46
ENDBRANCH  29  30
BRANCH  29  48
ATOM     48  O   UNL     1       1.422   2.178  22.188  0.00  0.00    -0.387 OA
ATOM     49  H   UNL     1       2.141   2.624  22.643  0.00  0.00    +0.210 HD
ENDBRANCH  29  48
ENDBRANCH  26  29
ENDBRANCH   1  26
TORSDOF 18
