REMARK VINA RESULT:    -6.914     10.537     18.620
REMARK INTER + INTRA:         -13.947
REMARK INTER:                 -12.157
REMARK INTRA:                  -1.789
REMARK UNBOUND:                -1.575
REMARK  Name = lig_assembled_0.pdb
REMARK  17 active torsions:
REMARK  status: ('A' for Active; 'I' for Inactive)
REMARK    1  A    between atoms: _2  and  _10
REMARK    2  A    between atoms: _5  and  _21
REMARK    3  A    between atoms: _7  and  _8
REMARK    4  A    between atoms: _7  and  _21
REMARK    5  A    between atoms: _11  and  _12
REMARK    6  A    between atoms: _17  and  _37
REMARK    7  A    between atoms: _19  and  _25
REMARK    8  A    between atoms: _20  and  _24
REMARK    9  A    between atoms: _24  and  _25
REMARK   10  A    between atoms: _27  and  _28
REMARK   11  A    between atoms: _29  and  _30
REMARK   12  A    between atoms: _31  and  _33
REMARK   13  A    between atoms: _33  and  _34
REMARK   14  A    between atoms: _33  and  _35
REMARK   15  A    between atoms: _35  and  _36
REMARK   16  A    between atoms: _35  and  _37
REMARK   17  A    between atoms: _38  and  _40
REMARK                            x       y       z     vdW  Elec       q    Type
REMARK                         _______ _______ _______ _____ _____    ______ ____
ROOT
ATOM      1  C   UNL     1      -3.529   8.111  14.257  0.00  0.00    +0.163 C 
ENDROOT
BRANCH   1   2
ATOM      2  O   UNL     1      -4.408   8.093  15.393  0.00  0.00    -0.388 OA
ATOM      3  H   UNL     1      -5.242   8.509  15.160  0.00  0.00    +0.210 HD
ENDBRANCH   1   2
BRANCH   1   4
ATOM      4  C   UNL     1      -2.683   6.841  14.232  0.00  0.00    +0.141 C 
BRANCH   4   7
ATOM      5  C   UNL     1      -1.354   6.329  16.250  0.00  0.00    +0.401 C 
ATOM      6  O   UNL     1      -0.321   6.845  15.816  0.00  0.00    -0.226 OA
ATOM      7  N   UNL     1      -2.502   6.278  15.575  0.00  0.00    -0.279 N 
ATOM      8  H   UNL     1      -3.293   5.825  16.012  0.00  0.00    +0.152 HD
BRANCH   5   9
ATOM      9  O   UNL     1      -1.341   5.742  17.554  0.00  0.00    -0.444 OA
BRANCH   9  10
ATOM     10  C   UNL     1      -0.231   4.846  17.664  0.00  0.00    +0.292 C 
BRANCH  10  12
ATOM     11  N   UNL     1      -1.023   4.682  19.994  0.00  0.00    -0.131 NA
ATOM     12  C   UNL     1      -0.083   4.381  19.055  0.00  0.00    +0.121 A 
ATOM     13  C   UNL     1       0.903   3.613  19.633  0.00  0.00    +0.143 A 
ATOM     14  N   UNL     1       0.570   3.546  20.967  0.00  0.00    -0.219 N 
ATOM     15  N   UNL     1      -0.648   4.130  21.138  0.00  0.00    -0.060 NA
BRANCH  14  16
ATOM     16  C   UNL     1       1.218   2.899  22.057  0.00  0.00    +0.079 A 
ATOM     17  C   UNL     1       1.715   3.553  23.202  0.00  0.00    +0.062 A 
ATOM     18  C   UNL     1       2.374   2.790  24.190  0.00  0.00    +0.015 A 
ATOM     19  C   UNL     1       2.553   1.414  24.046  0.00  0.00    +0.001 A 
ATOM     20  C   UNL     1       2.050   0.767  22.927  0.00  0.00    +0.002 A 
ATOM     21  C   UNL     1       1.379   1.498  21.947  0.00  0.00    +0.028 A 
BRANCH  17  22
ATOM     22  C   UNL     1       1.432   4.977  23.538  0.00  0.00    +0.244 C 
ATOM     23  O   UNL     1       0.873   5.304  24.573  0.00  0.00    -0.270 OA
ATOM     24  N   UNL     1       1.858   5.934  22.656  0.00  0.00    -0.325 N 
ATOM     25  H   UNL     1       1.707   6.901  22.917  0.00  0.00    +0.145 HD
ATOM     26  H   UNL     1       2.338   5.747  21.788  0.00  0.00    +0.145 HD
ENDBRANCH  17  22
ENDBRANCH  14  16
ENDBRANCH  10  12
ENDBRANCH   9  10
ENDBRANCH   5   9
ENDBRANCH   4   7
ENDBRANCH   1   4
BRANCH   1  27
ATOM     27  C   UNL     1      -2.607   9.342  14.294  0.00  0.00    +0.175 C 
BRANCH  27  28
ATOM     28  C   UNL     1      -3.071  10.441  13.327  0.00  0.00    +0.176 C 
ATOM     29  O   UNL     1      -1.904  10.922  12.605  0.00  0.00    -0.332 OA
ATOM     30  C   UNL     1      -2.172  11.909  11.554  0.00  0.00    +0.277 C 
ATOM     31  C   UNL     1      -2.964  13.109  12.127  0.00  0.00    +0.110 C 
ATOM     32  C   UNL     1      -4.197  12.645  12.931  0.00  0.00    +0.143 C 
ATOM     33  C   UNL     1      -3.805  11.618  13.994  0.00  0.00    +0.133 C 
BRANCH  33  34
ATOM     34  N   UNL     1      -4.999  11.120  14.695  0.00  0.00    -0.308 N 
ATOM     35  H   UNL     1      -5.639  10.534  14.177  0.00  0.00    +0.149 HD
ATOM     36  C   UNL     1      -5.292  11.390  15.969  0.00  0.00    +0.210 C 
ATOM     37  C   UNL     1      -4.310  12.307  16.723  0.00  0.00    +0.109 C 
ATOM     38  O   UNL     1      -6.292  10.946  16.534  0.00  0.00    -0.276 OA
ENDBRANCH  33  34
BRANCH  30  39
ATOM     39  C   UNL     1      -2.967  11.272  10.395  0.00  0.00    +0.414 C 
ATOM     40  O   UNL     1      -3.948  11.847   9.927  0.00  0.00    -0.240 OA
ATOM     41  O   UNL     1      -2.628  10.183   9.930  0.00  0.00    -0.240 OA
ENDBRANCH  30  39
BRANCH  32  42
ATOM     42  O   UNL     1      -4.810  13.768  13.565  0.00  0.00    -0.390 OA
ATOM     43  H   UNL     1      -4.172  14.200  14.138  0.00  0.00    +0.210 HD
ENDBRANCH  32  42
BRANCH  30  44
ATOM     44  O   UNL     1      -0.897  12.396  11.061  0.00  0.00    -0.343 OA
ATOM     45  C   UNL     1      -0.986  13.348   9.970  0.00  0.00    +0.198 C 
ENDBRANCH  30  44
ENDBRANCH  27  28
BRANCH  27  46
ATOM     46  O   UNL     1      -1.251   8.956  13.994  0.00  0.00    -0.387 OA
ATOM     47  H   UNL     1      -0.983   9.348  13.159  0.00  0.00    +0.210 HD
ENDBRANCH  27  46
ENDBRANCH   1  27
TORSDOF 15
