REMARK VINA RESULT:    -5.426     20.513     23.768
REMARK INTER + INTRA:         -12.677
REMARK INTER:                 -10.699
REMARK INTRA:                  -1.977
REMARK UNBOUND:                -2.810
REMARK  Name = lig_assembled_53.pdb
REMARK  18 active torsions:
REMARK  status: ('A' for Active; 'I' for Inactive)
REMARK    1  A    between atoms: _2  and  _9
REMARK    2  A    between atoms: _4  and  _16
REMARK    3  A    between atoms: _5  and  _9
REMARK    4  A    between atoms: _5  and  _10
REMARK    5  A    between atoms: _6  and  _7
REMARK    6  A    between atoms: _6  and  _16
REMARK    7  A    between atoms: _12  and  _32
REMARK    8  A    between atoms: _14  and  _20
REMARK    9  A    between atoms: _15  and  _19
REMARK   10  A    between atoms: _19  and  _20
REMARK   11  A    between atoms: _22  and  _23
REMARK   12  A    between atoms: _24  and  _25
REMARK   13  A    between atoms: _26  and  _28
REMARK   14  A    between atoms: _28  and  _29
REMARK   15  A    between atoms: _28  and  _30
REMARK   16  A    between atoms: _30  and  _31
REMARK   17  A    between atoms: _30  and  _32
REMARK   18  A    between atoms: _33  and  _35
REMARK                            x       y       z     vdW  Elec       q    Type
REMARK                         _______ _______ _______ _____ _____    ______ ____
ROOT
ATOM      1  C   UNL     1      10.689  24.327  26.642  0.00  0.00    +0.175 C 
ENDROOT
BRANCH   1   2
ATOM      2  C   UNL     1       9.339  24.522  25.937  0.00  0.00    +0.176 C 
ATOM      3  O   UNL     1       9.605  24.873  24.551  0.00  0.00    -0.332 OA
ATOM      4  C   UNL     1       8.425  24.995  23.690  0.00  0.00    +0.277 C 
ATOM      5  C   UNL     1       7.413  25.997  24.298  0.00  0.00    +0.110 C 
ATOM      6  C   UNL     1       7.122  25.683  25.781  0.00  0.00    +0.143 C 
ATOM      7  C   UNL     1       8.419  25.575  26.583  0.00  0.00    +0.133 C 
BRANCH   7   8
ATOM      8  N   UNL     1       8.134  25.190  27.975  0.00  0.00    -0.308 N 
ATOM      9  H   UNL     1       7.710  24.287  28.137  0.00  0.00    +0.149 HD
ATOM     10  C   UNL     1       8.399  25.956  29.037  0.00  0.00    +0.210 C 
ATOM     11  C   UNL     1       9.020  27.336  28.754  0.00  0.00    +0.109 C 
ATOM     12  O   UNL     1       8.162  25.601  30.192  0.00  0.00    -0.276 OA
ENDBRANCH   7   8
BRANCH   4  13
ATOM     13  C   UNL     1       7.742  23.625  23.499  0.00  0.00    +0.414 C 
ATOM     14  O   UNL     1       6.686  23.539  22.873  0.00  0.00    -0.240 OA
ATOM     15  O   UNL     1       8.247  22.605  23.971  0.00  0.00    -0.240 OA
ENDBRANCH   4  13
BRANCH   4  16
ATOM     16  O   UNL     1       8.859  25.508  22.404  0.00  0.00    -0.343 OA
ATOM     17  C   UNL     1       8.390  26.843  22.087  0.00  0.00    +0.198 C 
ENDBRANCH   4  16
BRANCH   6  18
ATOM     18  O   UNL     1       6.307  26.714  26.341  0.00  0.00    -0.390 OA
ATOM     19  H   UNL     1       6.477  26.781  27.284  0.00  0.00    +0.210 HD
ENDBRANCH   6  18
ENDBRANCH   1   2
BRANCH   1  20
ATOM     20  O   UNL     1      11.361  25.594  26.786  0.00  0.00    -0.387 OA
ATOM     21  H   UNL     1      11.155  25.971  27.645  0.00  0.00    +0.210 HD
ENDBRANCH   1  20
BRANCH   1  22
ATOM     22  C   UNL     1      11.592  23.329  25.898  0.00  0.00    +0.163 C 
BRANCH  22  23
ATOM     23  O   UNL     1      10.891  22.104  25.628  0.00  0.00    -0.388 OA
ATOM     24  H   UNL     1      11.231  21.711  24.821  0.00  0.00    +0.210 HD
ENDBRANCH  22  23
BRANCH  22  25
ATOM     25  C   UNL     1      12.835  23.045  26.735  0.00  0.00    +0.141 C 
BRANCH  25  28
ATOM     26  C   UNL     1      14.909  22.711  25.434  0.00  0.00    +0.401 C 
ATOM     27  O   UNL     1      15.219  23.905  25.444  0.00  0.00    -0.226 OA
ATOM     28  N   UNL     1      13.809  22.222  26.007  0.00  0.00    -0.279 N 
ATOM     29  H   UNL     1      13.636  21.229  25.937  0.00  0.00    +0.152 HD
BRANCH  26  30
ATOM     30  O   UNL     1      15.764  21.777  24.770  0.00  0.00    -0.444 OA
BRANCH  30  31
ATOM     31  C   UNL     1      16.642  22.479  23.885  0.00  0.00    +0.292 C 
BRANCH  31  33
ATOM     32  N   UNL     1      15.922  21.142  21.928  0.00  0.00    -0.131 NA
ATOM     33  C   UNL     1      16.172  22.364  22.492  0.00  0.00    +0.120 A 
ATOM     34  C   UNL     1      15.912  23.349  21.566  0.00  0.00    +0.137 A 
ATOM     35  N   UNL     1      15.572  22.664  20.438  0.00  0.00    -0.241 N 
ATOM     36  N   UNL     1      15.535  21.338  20.675  0.00  0.00    -0.065 NA
BRANCH  35  37
ATOM     37  C   UNL     1      15.117  23.147  19.151  0.00  0.00    +0.265 C 
BRANCH  37  38
ATOM     38  C   UNL     1      13.629  23.094  18.932  0.00  0.00    +0.326 C 
ATOM     39  O   UNL     1      12.940  23.943  18.387  0.00  0.00    -0.249 OA
BRANCH  38  40
ATOM     40  O   UNL     1      13.070  21.960  19.433  0.00  0.00    -0.479 OA
ATOM     41  H   UNL     1      13.252  21.140  18.938  0.00  0.00    +0.295 HD
ENDBRANCH  38  40
ENDBRANCH  37  38
ENDBRANCH  35  37
ENDBRANCH  31  33
ENDBRANCH  30  31
ENDBRANCH  26  30
ENDBRANCH  25  28
ENDBRANCH  22  25
ENDBRANCH   1  22
TORSDOF 16
