REMARK VINA RESULT:    -5.877      6.960     12.376
REMARK INTER + INTRA:         -12.762
REMARK INTER:                 -10.515
REMARK INTRA:                  -2.246
REMARK UNBOUND:                -2.246
REMARK  Name = lig_assembled_5.pdb
REMARK  18 active torsions:
REMARK  status: ('A' for Active; 'I' for Inactive)
REMARK    1  A    between atoms: _2  and  _9
REMARK    2  A    between atoms: _4  and  _20
REMARK    3  A    between atoms: _6  and  _7
REMARK    4  A    between atoms: _6  and  _20
REMARK    5  A    between atoms: _12  and  _15
REMARK    6  A    between atoms: _13  and  _15
REMARK    7  A    between atoms: _16  and  _36
REMARK    8  A    between atoms: _18  and  _24
REMARK    9  A    between atoms: _19  and  _23
REMARK   10  A    between atoms: _23  and  _24
REMARK   11  A    between atoms: _26  and  _27
REMARK   12  A    between atoms: _28  and  _29
REMARK   13  A    between atoms: _30  and  _32
REMARK   14  A    between atoms: _32  and  _33
REMARK   15  A    between atoms: _32  and  _34
REMARK   16  A    between atoms: _34  and  _35
REMARK   17  A    between atoms: _34  and  _36
REMARK   18  A    between atoms: _37  and  _39
REMARK                            x       y       z     vdW  Elec       q    Type
REMARK                         _______ _______ _______ _____ _____    ______ ____
ROOT
ATOM      1  C   UNL     1       8.408   2.329  35.927  0.00  0.00    +0.163 C 
ENDROOT
BRANCH   1   2
ATOM      2  O   UNL     1       8.468   2.840  37.269  0.00  0.00    -0.388 OA
ATOM      3  H   UNL     1       8.588   2.112  37.884  0.00  0.00    +0.210 HD
ENDBRANCH   1   2
BRANCH   1   4
ATOM      4  C   UNL     1       9.397   1.180  35.761  0.00  0.00    +0.141 C 
BRANCH   4   7
ATOM      5  C   UNL     1      11.664   1.915  36.416  0.00  0.00    +0.401 C 
ATOM      6  O   UNL     1      11.460   1.781  37.625  0.00  0.00    -0.226 OA
ATOM      7  N   UNL     1      10.753   1.663  35.474  0.00  0.00    -0.279 N 
ATOM      8  H   UNL     1      11.012   1.812  34.509  0.00  0.00    +0.152 HD
BRANCH   5   9
ATOM      9  O   UNL     1      12.944   2.371  35.974  0.00  0.00    -0.444 OA
BRANCH   9  10
ATOM     10  C   UNL     1      13.334   3.515  36.738  0.00  0.00    +0.292 C 
BRANCH  10  12
ATOM     11  N   UNL     1      14.261   4.236  34.560  0.00  0.00    -0.131 NA
ATOM     12  C   UNL     1      14.018   4.499  35.876  0.00  0.00    +0.121 A 
ATOM     13  C   UNL     1      14.495   5.752  36.180  0.00  0.00    +0.143 A 
ATOM     14  N   UNL     1      15.004   6.237  34.996  0.00  0.00    -0.220 N 
ATOM     15  N   UNL     1      14.867   5.291  34.033  0.00  0.00    -0.060 NA
BRANCH  14  16
ATOM     16  C   UNL     1      15.567   7.511  34.726  0.00  0.00    +0.067 A 
ATOM     17  C   UNL     1      16.387   8.146  35.666  0.00  0.00    +0.031 A 
ATOM     18  C   UNL     1      16.881   9.427  35.407  0.00  0.00    +0.048 A 
ATOM     19  C   UNL     1      16.586  10.080  34.209  0.00  0.00    +0.120 A 
ATOM     20  C   UNL     1      15.783   9.444  33.264  0.00  0.00    +0.048 A 
ATOM     21  C   UNL     1      15.273   8.163  33.519  0.00  0.00    +0.031 A 
BRANCH  19  22
ATOM     22  O   UNL     1      17.081  11.351  34.110  0.00  0.00    -0.495 OA
ATOM     23  C   UNL     1      18.487  11.493  34.259  0.00  0.00    +0.277 C 
ENDBRANCH  19  22
ENDBRANCH  14  16
ENDBRANCH  10  12
ENDBRANCH   9  10
ENDBRANCH   5   9
ENDBRANCH   4   7
ENDBRANCH   1   4
BRANCH   1  24
ATOM     24  C   UNL     1       8.726   3.433  34.904  0.00  0.00    +0.175 C 
BRANCH  24  25
ATOM     25  C   UNL     1       7.589   4.460  34.789  0.00  0.00    +0.176 C 
ATOM     26  O   UNL     1       7.532   5.205  36.036  0.00  0.00    -0.332 OA
ATOM     27  C   UNL     1       6.568   6.309  36.071  0.00  0.00    +0.277 C 
ATOM     28  C   UNL     1       5.153   5.803  35.699  0.00  0.00    +0.110 C 
ATOM     29  C   UNL     1       5.168   4.977  34.395  0.00  0.00    +0.143 C 
ATOM     30  C   UNL     1       6.208   3.859  34.466  0.00  0.00    +0.133 C 
BRANCH  30  31
ATOM     31  N   UNL     1       6.274   3.134  33.187  0.00  0.00    -0.308 N 
ATOM     32  H   UNL     1       6.646   3.625  32.386  0.00  0.00    +0.149 HD
ATOM     33  C   UNL     1       5.875   1.871  33.016  0.00  0.00    +0.210 C 
ATOM     34  C   UNL     1       5.290   1.159  34.251  0.00  0.00    +0.109 C 
ATOM     35  O   UNL     1       5.956   1.284  31.937  0.00  0.00    -0.276 OA
ENDBRANCH  30  31
BRANCH  27  36
ATOM     36  C   UNL     1       6.986   7.432  35.100  0.00  0.00    +0.414 C 
ATOM     37  O   UNL     1       6.141   8.006  34.415  0.00  0.00    -0.240 OA
ATOM     38  O   UNL     1       8.168   7.764  35.001  0.00  0.00    -0.240 OA
ENDBRANCH  27  36
BRANCH  27  39
ATOM     39  O   UNL     1       6.527   6.826  37.426  0.00  0.00    -0.343 OA
ATOM     40  C   UNL     1       5.538   6.207  38.288  0.00  0.00    +0.198 C 
ENDBRANCH  27  39
BRANCH  29  41
ATOM     41  O   UNL     1       3.878   4.406  34.172  0.00  0.00    -0.390 OA
ATOM     42  H   UNL     1       3.215   5.100  34.176  0.00  0.00    +0.210 HD
ENDBRANCH  29  41
ENDBRANCH  24  25
BRANCH  24  43
ATOM     43  O   UNL     1       9.001   2.850  33.614  0.00  0.00    -0.387 OA
ATOM     44  H   UNL     1       9.938   2.927  33.421  0.00  0.00    +0.210 HD
ENDBRANCH  24  43
ENDBRANCH   1  24
TORSDOF 15
