REMARK VINA RESULT:    -6.762      1.909      4.092
REMARK INTER + INTRA:         -13.734
REMARK INTER:                 -11.871
REMARK INTRA:                  -1.863
REMARK UNBOUND:                -2.031
REMARK  Name = lig_assembled_42.pdb
REMARK  16 active torsions:
REMARK  status: ('A' for Active; 'I' for Inactive)
REMARK    1  A    between atoms: _2  and  _9
REMARK    2  A    between atoms: _4  and  _21
REMARK    3  A    between atoms: _6  and  _7
REMARK    4  A    between atoms: _6  and  _21
REMARK    5  A    between atoms: _17  and  _37
REMARK    6  A    between atoms: _19  and  _25
REMARK    7  A    between atoms: _20  and  _24
REMARK    8  A    between atoms: _24  and  _25
REMARK    9  A    between atoms: _27  and  _28
REMARK   10  A    between atoms: _29  and  _30
REMARK   11  A    between atoms: _31  and  _33
REMARK   12  A    between atoms: _33  and  _34
REMARK   13  A    between atoms: _33  and  _35
REMARK   14  A    between atoms: _35  and  _36
REMARK   15  A    between atoms: _35  and  _37
REMARK   16  A    between atoms: _38  and  _40
REMARK                            x       y       z     vdW  Elec       q    Type
REMARK                         _______ _______ _______ _____ _____    ______ ____
ROOT
ATOM      1  C   UNL     1       3.048   2.624  32.455  0.00  0.00    +0.163 C 
ENDROOT
BRANCH   1   2
ATOM      2  O   UNL     1       3.818   1.923  31.465  0.00  0.00    -0.388 OA
ATOM      3  H   UNL     1       3.326   1.156  31.161  0.00  0.00    +0.210 HD
ENDBRANCH   1   2
BRANCH   1   4
ATOM      4  C   UNL     1       1.838   3.286  31.804  0.00  0.00    +0.141 C 
BRANCH   4   7
ATOM      5  C   UNL     1       1.501   3.352  29.357  0.00  0.00    +0.401 C 
ATOM      6  O   UNL     1       0.598   2.512  29.364  0.00  0.00    -0.226 OA
ATOM      7  N   UNL     1       2.141   3.768  30.450  0.00  0.00    -0.279 N 
ATOM      8  H   UNL     1       2.875   4.454  30.342  0.00  0.00    +0.152 HD
BRANCH   5   9
ATOM      9  O   UNL     1       1.907   3.924  28.111  0.00  0.00    -0.444 OA
BRANCH   9  10
ATOM     10  C   UNL     1       1.772   2.952  27.071  0.00  0.00    +0.292 C 
BRANCH  10  12
ATOM     11  N   UNL     1       0.819   4.843  25.779  0.00  0.00    -0.131 NA
ATOM     12  C   UNL     1       1.376   3.598  25.806  0.00  0.00    +0.121 A 
ATOM     13  C   UNL     1       1.474   3.123  24.520  0.00  0.00    +0.143 A 
ATOM     14  N   UNL     1       0.961   4.123  23.728  0.00  0.00    -0.220 N 
ATOM     15  N   UNL     1       0.570   5.157  24.513  0.00  0.00    -0.060 NA
BRANCH  14  16
ATOM     16  C   UNL     1       0.826   4.143  22.317  0.00  0.00    +0.071 A 
ATOM     17  C   UNL     1      -0.394   4.517  21.734  0.00  0.00    +0.077 A 
ATOM     18  C   UNL     1      -0.476   4.521  20.358  0.00  0.00    +0.168 A 
ATOM     19  O   UNL     1      -1.579   4.860  19.640  0.00  0.00    -0.453 OA
ATOM     20  C   UNL     1      -1.086   4.692  18.296  0.00  0.00    +0.466 C 
ATOM     21  O   UNL     1       0.288   4.252  18.239  0.00  0.00    -0.453 OA
ATOM     22  C   UNL     1       0.589   4.175  19.563  0.00  0.00    +0.166 A 
ATOM     23  C   UNL     1       1.802   3.801  20.100  0.00  0.00    +0.051 A 
ATOM     24  C   UNL     1       1.922   3.785  21.496  0.00  0.00    +0.031 A 
ENDBRANCH  14  16
ENDBRANCH  10  12
ENDBRANCH   9  10
ENDBRANCH   5   9
ENDBRANCH   4   7
ENDBRANCH   1   4
BRANCH   1  25
ATOM     25  C   UNL     1       3.901   3.693  33.160  0.00  0.00    +0.175 C 
BRANCH  25  26
ATOM     26  C   UNL     1       5.309   3.179  33.497  0.00  0.00    +0.176 C 
ATOM     27  O   UNL     1       5.185   1.807  33.960  0.00  0.00    -0.332 OA
ATOM     28  C   UNL     1       6.447   1.112  34.230  0.00  0.00    +0.277 C 
ATOM     29  C   UNL     1       7.309   1.925  35.227  0.00  0.00    +0.110 C 
ATOM     30  C   UNL     1       7.443   3.400  34.793  0.00  0.00    +0.143 C 
ATOM     31  C   UNL     1       6.071   4.023  34.536  0.00  0.00    +0.133 C 
BRANCH  31  32
ATOM     32  N   UNL     1       6.216   5.401  34.040  0.00  0.00    -0.308 N 
ATOM     33  H   UNL     1       6.571   5.530  33.103  0.00  0.00    +0.149 HD
ATOM     34  C   UNL     1       5.908   6.491  34.746  0.00  0.00    +0.210 C 
ATOM     35  C   UNL     1       5.394   6.262  36.180  0.00  0.00    +0.109 C 
ATOM     36  O   UNL     1       6.026   7.633  34.300  0.00  0.00    -0.276 OA
ENDBRANCH  31  32
BRANCH  28  37
ATOM     37  C   UNL     1       7.239   0.890  32.925  0.00  0.00    +0.414 C 
ATOM     38  O   UNL     1       8.463   1.021  32.913  0.00  0.00    -0.240 OA
ATOM     39  O   UNL     1       6.656   0.580  31.886  0.00  0.00    -0.240 OA
ENDBRANCH  28  37
BRANCH  30  40
ATOM     40  O   UNL     1       8.114   4.143  35.812  0.00  0.00    -0.390 OA
ATOM     41  H   UNL     1       8.171   5.065  35.551  0.00  0.00    +0.210 HD
ENDBRANCH  30  40
BRANCH  28  42
ATOM     42  O   UNL     1       6.134  -0.169  34.835  0.00  0.00    -0.343 OA
ATOM     43  C   UNL     1       4.833  -0.708  34.489  0.00  0.00    +0.198 C 
ENDBRANCH  28  42
ENDBRANCH  25  26
BRANCH  25  44
ATOM     44  O   UNL     1       3.239   4.148  34.356  0.00  0.00    -0.387 OA
ATOM     45  H   UNL     1       2.449   3.624  34.504  0.00  0.00    +0.210 HD
ENDBRANCH  25  44
ENDBRANCH   1  25
TORSDOF 14
