REMARK VINA RESULT:    -6.452      8.045     12.642
REMARK INTER + INTRA:         -12.955
REMARK INTER:                 -10.558
REMARK INTRA:                  -2.397
REMARK UNBOUND:                -1.788
REMARK  Name = lig_assembled_20.pdb
REMARK  16 active torsions:
REMARK  status: ('A' for Active; 'I' for Inactive)
REMARK    1  A    between atoms: _2  and  _11
REMARK    2  A    between atoms: _6  and  _21
REMARK    3  A    between atoms: _8  and  _9
REMARK    4  A    between atoms: _8  and  _21
REMARK    5  A    between atoms: _17  and  _37
REMARK    6  A    between atoms: _19  and  _25
REMARK    7  A    between atoms: _20  and  _24
REMARK    8  A    between atoms: _24  and  _25
REMARK    9  A    between atoms: _27  and  _28
REMARK   10  A    between atoms: _29  and  _30
REMARK   11  A    between atoms: _31  and  _33
REMARK   12  A    between atoms: _33  and  _34
REMARK   13  A    between atoms: _33  and  _35
REMARK   14  A    between atoms: _35  and  _36
REMARK   15  A    between atoms: _35  and  _37
REMARK   16  A    between atoms: _38  and  _40
REMARK                            x       y       z     vdW  Elec       q    Type
REMARK                         _______ _______ _______ _____ _____    ______ ____
ROOT
ATOM      1  C   UNL     1       9.894   4.840  38.180  0.00  0.00    +0.163 C 
ENDROOT
BRANCH   1   2
ATOM      2  O   UNL     1       9.784   6.201  37.731  0.00  0.00    -0.388 OA
ATOM      3  H   UNL     1       8.911   6.539  37.944  0.00  0.00    +0.210 HD
ENDBRANCH   1   2
BRANCH   1   4
ATOM      4  C   UNL     1      11.356   4.405  38.174  0.00  0.00    +0.141 C 
BRANCH   4   7
ATOM      5  C   UNL     1      12.481   3.417  36.208  0.00  0.00    +0.401 C 
ATOM      6  O   UNL     1      12.559   2.290  36.701  0.00  0.00    -0.226 OA
ATOM      7  N   UNL     1      11.939   4.467  36.828  0.00  0.00    -0.279 N 
ATOM      8  H   UNL     1      11.929   5.354  36.344  0.00  0.00    +0.152 HD
BRANCH   5   9
ATOM      9  O   UNL     1      12.999   3.637  34.893  0.00  0.00    -0.444 OA
BRANCH   9  10
ATOM     10  C   UNL     1      14.427   3.669  34.942  0.00  0.00    +0.292 C 
BRANCH  10  12
ATOM     11  N   UNL     1      14.842   5.810  36.122  0.00  0.00    -0.131 NA
ATOM     12  C   UNL     1      14.914   5.061  34.984  0.00  0.00    +0.121 A 
ATOM     13  C   UNL     1      15.482   5.816  33.986  0.00  0.00    +0.143 A 
ATOM     14  N   UNL     1      15.748   7.035  34.564  0.00  0.00    -0.220 N 
ATOM     15  N   UNL     1      15.350   7.009  35.861  0.00  0.00    -0.060 NA
BRANCH  14  16
ATOM     16  C   UNL     1      16.338   8.182  33.972  0.00  0.00    +0.068 A 
ATOM     17  C   UNL     1      16.795   8.128  32.645  0.00  0.00    +0.030 A 
ATOM     18  C   UNL     1      17.378   9.244  32.029  0.00  0.00    +0.030 A 
ATOM     19  C   UNL     1      17.484  10.411  32.792  0.00  0.00    +0.066 A 
ATOM     20  C   UNL     1      17.045  10.497  34.106  0.00  0.00    +0.021 A 
ATOM     21  C   UNL     1      17.337  11.822  34.495  0.00  0.00    +0.142 A 
ATOM     22  N   UNL     1      17.912  12.529  33.520  0.00  0.00    -0.181 NA
ATOM     23  N   UNL     1      17.987  11.653  32.502  0.00  0.00    -0.277 N 
ATOM     24  H   UNL     1      18.398  11.964  31.630  0.00  0.00    +0.189 HD
ATOM     25  C   UNL     1      16.461   9.372  34.716  0.00  0.00    +0.039 A 
ENDBRANCH  14  16
ENDBRANCH  10  12
ENDBRANCH   9  10
ENDBRANCH   5   9
ENDBRANCH   4   7
ENDBRANCH   1   4
BRANCH   1  26
ATOM     26  C   UNL     1       9.073   3.897  37.284  0.00  0.00    +0.175 C 
BRANCH  26  27
ATOM     27  C   UNL     1       8.408   4.642  36.118  0.00  0.00    +0.176 C 
ATOM     28  O   UNL     1       7.195   5.268  36.620  0.00  0.00    -0.332 OA
ATOM     29  C   UNL     1       6.477   6.116  35.665  0.00  0.00    +0.277 C 
ATOM     30  C   UNL     1       6.161   5.327  34.371  0.00  0.00    +0.110 C 
ATOM     31  C   UNL     1       7.414   4.617  33.816  0.00  0.00    +0.143 C 
ATOM     32  C   UNL     1       8.084   3.764  34.894  0.00  0.00    +0.133 C 
BRANCH  32  33
ATOM     33  N   UNL     1       9.324   3.163  34.379  0.00  0.00    -0.308 N 
ATOM     34  H   UNL     1      10.007   3.778  33.959  0.00  0.00    +0.149 HD
ATOM     35  C   UNL     1       9.606   1.858  34.429  0.00  0.00    +0.210 C 
ATOM     36  C   UNL     1       8.533   0.945  35.052  0.00  0.00    +0.109 C 
ATOM     37  O   UNL     1      10.659   1.384  34.003  0.00  0.00    -0.276 OA
ENDBRANCH  32  33
BRANCH  29  38
ATOM     38  C   UNL     1       7.307   7.369  35.315  0.00  0.00    +0.414 C 
ATOM     39  O   UNL     1       7.413   7.735  34.145  0.00  0.00    -0.240 OA
ATOM     40  O   UNL     1       7.870   8.013  36.201  0.00  0.00    -0.240 OA
ENDBRANCH  29  38
BRANCH  31  41
ATOM     41  O   UNL     1       7.048   3.783  32.716  0.00  0.00    -0.390 OA
ATOM     42  H   UNL     1       6.147   3.472  32.835  0.00  0.00    +0.210 HD
ENDBRANCH  31  41
BRANCH  29  43
ATOM     43  O   UNL     1       5.223   6.516  36.275  0.00  0.00    -0.343 OA
ATOM     44  C   UNL     1       4.181   5.508  36.250  0.00  0.00    +0.198 C 
ENDBRANCH  29  43
ENDBRANCH  26  27
BRANCH  26  45
ATOM     45  O   UNL     1       8.077   3.210  38.068  0.00  0.00    -0.387 OA
ATOM     46  H   UNL     1       7.602   2.589  37.510  0.00  0.00    +0.210 HD
ENDBRANCH  26  45
ENDBRANCH   1  26
TORSDOF 14
