REMARK VINA RESULT:    -6.215     12.720     15.957
REMARK INTER + INTRA:         -12.393
REMARK INTER:                  -9.743
REMARK INTRA:                  -2.650
REMARK UNBOUND:                -1.636
REMARK  Name = lig_assembled_52.pdb
REMARK  16 active torsions:
REMARK  status: ('A' for Active; 'I' for Inactive)
REMARK    1  A    between atoms: _2  and  _10
REMARK    2  A    between atoms: _5  and  _18
REMARK    3  A    between atoms: _7  and  _8
REMARK    4  A    between atoms: _7  and  _18
REMARK    5  A    between atoms: _14  and  _34
REMARK    6  A    between atoms: _16  and  _22
REMARK    7  A    between atoms: _17  and  _21
REMARK    8  A    between atoms: _21  and  _22
REMARK    9  A    between atoms: _24  and  _25
REMARK   10  A    between atoms: _26  and  _27
REMARK   11  A    between atoms: _28  and  _30
REMARK   12  A    between atoms: _30  and  _31
REMARK   13  A    between atoms: _30  and  _32
REMARK   14  A    between atoms: _32  and  _33
REMARK   15  A    between atoms: _32  and  _34
REMARK   16  A    between atoms: _35  and  _37
REMARK                            x       y       z     vdW  Elec       q    Type
REMARK                         _______ _______ _______ _____ _____    ______ ____
ROOT
ATOM      1  C   UNL     1      18.214  10.078  27.302  0.00  0.00    +0.163 C 
ENDROOT
BRANCH   1   2
ATOM      2  O   UNL     1      17.438  10.541  26.184  0.00  0.00    -0.388 OA
ATOM      3  H   UNL     1      17.983  11.101  25.626  0.00  0.00    +0.210 HD
ENDBRANCH   1   2
BRANCH   1   4
ATOM      4  C   UNL     1      18.824  11.264  28.041  0.00  0.00    +0.141 C 
BRANCH   4   7
ATOM      5  C   UNL     1      20.116  10.966  30.126  0.00  0.00    +0.401 C 
ATOM      6  O   UNL     1      21.211  11.130  29.582  0.00  0.00    -0.226 OA
ATOM      7  N   UNL     1      18.950  11.005  29.481  0.00  0.00    -0.279 N 
ATOM      8  H   UNL     1      18.105  10.849  30.012  0.00  0.00    +0.152 HD
BRANCH   5   9
ATOM      9  O   UNL     1      20.071  10.712  31.532  0.00  0.00    -0.444 OA
BRANCH   9  10
ATOM     10  C   UNL     1      18.963  11.409  32.108  0.00  0.00    +0.292 C 
BRANCH  10  12
ATOM     11  N   UNL     1      16.691  10.461  31.867  0.00  0.00    -0.131 NA
ATOM     12  C   UNL     1      17.904  10.458  32.494  0.00  0.00    +0.121 A 
ATOM     13  C   UNL     1      17.909   9.471  33.453  0.00  0.00    +0.143 A 
ATOM     14  N   UNL     1      16.671   8.878  33.361  0.00  0.00    -0.218 N 
ATOM     15  N   UNL     1      15.947   9.502  32.401  0.00  0.00    -0.060 NA
BRANCH  14  16
ATOM     16  C   UNL     1      16.160   7.785  34.092  0.00  0.00    +0.085 A 
ATOM     17  C   UNL     1      16.135   7.776  35.490  0.00  0.00    +0.031 A 
ATOM     18  C   UNL     1      15.637   6.656  36.155  0.00  0.00    +0.022 A 
ATOM     19  C   UNL     1      15.180   5.589  35.400  0.00  0.00    +0.111 A 
ATOM     20  N   UNL     1      15.184   5.571  34.050  0.00  0.00    -0.261 NA
ATOM     21  C   UNL     1      15.673   6.668  33.422  0.00  0.00    +0.138 A 
ENDBRANCH  14  16
ENDBRANCH  10  12
ENDBRANCH   9  10
ENDBRANCH   5   9
ENDBRANCH   4   7
ENDBRANCH   1   4
BRANCH   1  22
ATOM     22  C   UNL     1      19.334   9.130  26.838  0.00  0.00    +0.175 C 
BRANCH  22  23
ATOM     23  C   UNL     1      19.275   7.772  27.554  0.00  0.00    +0.176 C 
ATOM     24  O   UNL     1      20.304   7.763  28.582  0.00  0.00    -0.332 OA
ATOM     25  C   UNL     1      20.328   6.578  29.444  0.00  0.00    +0.277 C 
ATOM     26  C   UNL     1      20.430   5.290  28.590  0.00  0.00    +0.110 C 
ATOM     27  C   UNL     1      19.376   5.269  27.463  0.00  0.00    +0.143 C 
ATOM     28  C   UNL     1      19.437   6.550  26.631  0.00  0.00    +0.133 C 
BRANCH  28  29
ATOM     29  N   UNL     1      18.372   6.556  25.615  0.00  0.00    -0.308 N 
ATOM     30  H   UNL     1      17.415   6.525  25.936  0.00  0.00    +0.149 HD
ATOM     31  C   UNL     1      18.588   6.601  24.298  0.00  0.00    +0.210 C 
ATOM     32  C   UNL     1      20.059   6.622  23.841  0.00  0.00    +0.109 C 
ATOM     33  O   UNL     1      17.676   6.620  23.471  0.00  0.00    -0.276 OA
ENDBRANCH  28  29
BRANCH  25  34
ATOM     34  C   UNL     1      19.061   6.515  30.323  0.00  0.00    +0.414 C 
ATOM     35  O   UNL     1      18.701   5.446  30.815  0.00  0.00    -0.240 OA
ATOM     36  O   UNL     1      18.401   7.531  30.540  0.00  0.00    -0.240 OA
ENDBRANCH  25  34
BRANCH  27  37
ATOM     37  O   UNL     1      19.603   4.144  26.612  0.00  0.00    -0.390 OA
ATOM     38  H   UNL     1      19.693   4.442  25.704  0.00  0.00    +0.210 HD
ENDBRANCH  27  37
BRANCH  25  39
ATOM     39  O   UNL     1      21.505   6.661  30.288  0.00  0.00    -0.343 OA
ATOM     40  C   UNL     1      22.238   5.420  30.441  0.00  0.00    +0.198 C 
ENDBRANCH  25  39
ENDBRANCH  22  23
BRANCH  22  41
ATOM     41  O   UNL     1      20.622   9.745  27.045  0.00  0.00    -0.387 OA
ATOM     42  H   UNL     1      20.979   9.463  27.890  0.00  0.00    +0.210 HD
ENDBRANCH  22  41
ENDBRANCH   1  22
TORSDOF 14
