REMARK VINA RESULT:    -6.299      7.664     12.963
REMARK INTER + INTRA:         -12.755
REMARK INTER:                 -10.246
REMARK INTRA:                  -2.510
REMARK UNBOUND:                -1.853
REMARK  Name = lig_assembled_86.pdb
REMARK  17 active torsions:
REMARK  status: ('A' for Active; 'I' for Inactive)
REMARK    1  A    between atoms: _2  and  _10
REMARK    2  A    between atoms: _3  and  _13
REMARK    3  A    between atoms: _5  and  _21
REMARK    4  A    between atoms: _7  and  _8
REMARK    5  A    between atoms: _7  and  _21
REMARK    6  A    between atoms: _17  and  _37
REMARK    7  A    between atoms: _19  and  _25
REMARK    8  A    between atoms: _20  and  _24
REMARK    9  A    between atoms: _24  and  _25
REMARK   10  A    between atoms: _27  and  _28
REMARK   11  A    between atoms: _29  and  _30
REMARK   12  A    between atoms: _31  and  _33
REMARK   13  A    between atoms: _33  and  _34
REMARK   14  A    between atoms: _33  and  _35
REMARK   15  A    between atoms: _35  and  _36
REMARK   16  A    between atoms: _35  and  _37
REMARK   17  A    between atoms: _38  and  _40
REMARK                            x       y       z     vdW  Elec       q    Type
REMARK                         _______ _______ _______ _____ _____    ______ ____
ROOT
ATOM      1  C   UNL     1       8.137   2.122  35.922  0.00  0.00    +0.163 C 
ENDROOT
BRANCH   1   2
ATOM      2  O   UNL     1       8.126   2.470  37.316  0.00  0.00    -0.388 OA
ATOM      3  H   UNL     1       8.237   1.676  37.846  0.00  0.00    +0.210 HD
ENDBRANCH   1   2
BRANCH   1   4
ATOM      4  C   UNL     1       8.971   0.863  35.705  0.00  0.00    +0.141 C 
BRANCH   4   7
ATOM      5  C   UNL     1      11.177   1.180  36.771  0.00  0.00    +0.401 C 
ATOM      6  O   UNL     1      10.761   0.968  37.912  0.00  0.00    -0.226 OA
ATOM      7  N   UNL     1      10.409   1.157  35.681  0.00  0.00    -0.279 N 
ATOM      8  H   UNL     1      10.840   1.353  34.789  0.00  0.00    +0.152 HD
BRANCH   5   9
ATOM      9  O   UNL     1      12.564   1.473  36.580  0.00  0.00    -0.444 OA
BRANCH   9  10
ATOM     10  C   UNL     1      12.759   2.034  35.279  0.00  0.00    +0.292 C 
BRANCH  10  12
ATOM     11  N   UNL     1      12.915   4.396  36.019  0.00  0.00    -0.131 NA
ATOM     12  C   UNL     1      13.474   3.320  35.381  0.00  0.00    +0.120 A 
ATOM     13  C   UNL     1      14.722   3.673  34.923  0.00  0.00    +0.137 A 
ATOM     14  N   UNL     1      14.879   4.958  35.343  0.00  0.00    -0.248 N 
ATOM     15  N   UNL     1      13.779   5.402  35.975  0.00  0.00    -0.065 NA
BRANCH  14  16
ATOM     16  C   UNL     1      16.052   5.803  35.180  0.00  0.00    +0.112 C 
ATOM     17  C   UNL     1      16.679   5.650  33.779  0.00  0.00    +0.045 C 
ATOM     18  C   UNL     1      17.038   6.971  33.092  0.00  0.00    +0.059 C 
ATOM     19  C   UNL     1      15.789   7.663  32.537  0.00  0.00    +0.020 C 
ATOM     20  C   UNL     1      15.358   8.624  33.643  0.00  0.00    +0.020 C 
ATOM     21  C   UNL     1      16.341   8.358  34.786  0.00  0.00    +0.059 C 
ATOM     22  N   UNL     1      17.533   7.979  34.028  0.00  0.00    -0.299 NA
ATOM     23  C   UNL     1      18.708   7.631  34.805  0.00  0.00    +0.105 C 
ATOM     24  C   UNL     1      15.834   7.240  35.708  0.00  0.00    +0.045 C 
ENDBRANCH  14  16
ENDBRANCH  10  12
ENDBRANCH   9  10
ENDBRANCH   5   9
ENDBRANCH   4   7
ENDBRANCH   1   4
BRANCH   1  25
ATOM     25  C   UNL     1       8.708   3.270  35.073  0.00  0.00    +0.175 C 
BRANCH  25  26
ATOM     26  C   UNL     1       7.712   4.430  34.924  0.00  0.00    +0.176 C 
ATOM     27  O   UNL     1       7.609   5.097  36.212  0.00  0.00    -0.332 OA
ATOM     28  C   UNL     1       6.776   6.304  36.235  0.00  0.00    +0.277 C 
ATOM     29  C   UNL     1       5.360   5.994  35.690  0.00  0.00    +0.110 C 
ATOM     30  C   UNL     1       5.419   5.256  34.337  0.00  0.00    +0.143 C 
ATOM     31  C   UNL     1       6.314   4.019  34.425  0.00  0.00    +0.133 C 
BRANCH  31  32
ATOM     32  N   UNL     1       6.433   3.373  33.109  0.00  0.00    -0.308 N 
ATOM     33  H   UNL     1       6.946   3.862  32.388  0.00  0.00    +0.149 HD
ATOM     34  C   UNL     1       5.907   2.184  32.804  0.00  0.00    +0.210 C 
ATOM     35  C   UNL     1       5.109   1.477  33.915  0.00  0.00    +0.109 C 
ATOM     36  O   UNL     1       6.034   1.661  31.696  0.00  0.00    -0.276 OA
ENDBRANCH  31  32
BRANCH  28  37
ATOM     37  C   UNL     1       7.418   7.427  35.395  0.00  0.00    +0.414 C 
ATOM     38  O   UNL     1       6.754   8.025  34.549  0.00  0.00    -0.240 OA
ATOM     39  O   UNL     1       8.598   7.736  35.563  0.00  0.00    -0.240 OA
ENDBRANCH  28  37
BRANCH  30  40
ATOM     40  O   UNL     1       4.104   4.858  33.947  0.00  0.00    -0.390 OA
ATOM     41  H   UNL     1       4.001   4.976  33.000  0.00  0.00    +0.210 HD
ENDBRANCH  30  40
BRANCH  28  42
ATOM     42  O   UNL     1       6.651   6.736  37.615  0.00  0.00    -0.343 OA
ATOM     43  C   UNL     1       6.746   5.676  38.600  0.00  0.00    +0.198 C 
ENDBRANCH  28  42
ENDBRANCH  25  26
BRANCH  25  44
ATOM     44  O   UNL     1       9.098   2.780  33.774  0.00  0.00    -0.387 OA
ATOM     45  H   UNL     1       9.269   1.837  33.825  0.00  0.00    +0.210 HD
ENDBRANCH  25  44
ENDBRANCH   1  25
TORSDOF 14
