REMARK VINA RESULT:    -6.397     13.523     18.358
REMARK INTER + INTRA:         -15.837
REMARK INTER:                 -13.751
REMARK INTRA:                  -2.086
REMARK UNBOUND:                -3.269
REMARK  Name = lig_assembled_84.pdb
REMARK  21 active torsions:
REMARK  status: ('A' for Active; 'I' for Inactive)
REMARK    1  A    between atoms: _2  and  _11
REMARK    2  A    between atoms: _3  and  _14
REMARK    3  A    between atoms: _4  and  _17
REMARK    4  A    between atoms: _6  and  _28
REMARK    5  A    between atoms: _8  and  _9
REMARK    6  A    between atoms: _8  and  _28
REMARK    7  A    between atoms: _11  and  _12
REMARK    8  A    between atoms: _12  and  _13
REMARK    9  A    between atoms: _12  and  _14
REMARK   10  A    between atoms: _24  and  _44
REMARK   11  A    between atoms: _26  and  _32
REMARK   12  A    between atoms: _27  and  _31
REMARK   13  A    between atoms: _31  and  _32
REMARK   14  A    between atoms: _34  and  _35
REMARK   15  A    between atoms: _36  and  _37
REMARK   16  A    between atoms: _38  and  _40
REMARK   17  A    between atoms: _40  and  _41
REMARK   18  A    between atoms: _40  and  _42
REMARK   19  A    between atoms: _42  and  _43
REMARK   20  A    between atoms: _42  and  _44
REMARK   21  A    between atoms: _45  and  _47
REMARK                            x       y       z     vdW  Elec       q    Type
REMARK                         _______ _______ _______ _____ _____    ______ ____
ROOT
ATOM      1  C   UNL     1      19.071   4.920  25.733  0.00  0.00    +0.401 C 
ATOM      2  O   UNL     1      20.272   4.676  25.863  0.00  0.00    -0.226 OA
ATOM      3  N   UNL     1      18.110   3.998  25.815  0.00  0.00    -0.279 N 
ATOM      4  H   UNL     1      17.151   4.298  25.703  0.00  0.00    +0.152 HD
ENDROOT
BRANCH   1   5
ATOM      5  O   UNL     1      18.658   6.266  25.482  0.00  0.00    -0.444 OA
BRANCH   5   6
ATOM      6  C   UNL     1      19.793   7.133  25.547  0.00  0.00    +0.292 C 
BRANCH   6   8
ATOM      7  N   UNL     1      20.369   7.685  27.895  0.00  0.00    -0.131 NA
ATOM      8  C   UNL     1      19.717   8.008  26.732  0.00  0.00    +0.120 A 
ATOM      9  C   UNL     1      19.022   9.182  26.918  0.00  0.00    +0.137 A 
ATOM     10  N   UNL     1      19.236   9.486  28.229  0.00  0.00    -0.251 N 
ATOM     11  N   UNL     1      20.064   8.599  28.807  0.00  0.00    -0.065 NA
BRANCH  10  12
ATOM     12  C   UNL     1      18.584  10.513  29.020  0.00  0.00    +0.149 C 
BRANCH  12  13
ATOM     13  C   UNL     1      18.880  10.435  30.527  0.00  0.00    +0.021 C 
ATOM     14  C   UNL     1      19.986  11.421  30.930  0.00  0.00    +0.010 C 
BRANCH  13  15
ATOM     15  C   UNL     1      17.613  10.738  31.364  0.00  0.00    +0.089 C 
BRANCH  15  16
ATOM     16  N   UNL     1      16.886   9.563  31.865  0.00  0.00    -0.299 NA
ATOM     17  C   UNL     1      15.884   9.981  32.882  0.00  0.00    +0.103 C 
ATOM     18  C   UNL     1      15.037   8.788  33.373  0.00  0.00    +0.120 C 
ATOM     19  N   UNL     1      15.917   7.758  33.938  0.00  0.00    -0.327 N 
ATOM     20  C   UNL     1      16.985   7.311  33.032  0.00  0.00    +0.120 C 
ATOM     21  C   UNL     1      17.767   8.539  32.480  0.00  0.00    +0.103 C 
BRANCH  19  22
ATOM     22  C   UNL     1      15.721   7.219  35.188  0.00  0.00    +0.030 A 
ATOM     23  C   UNL     1      14.948   6.057  35.371  0.00  0.00    +0.024 A 
ATOM     24  C   UNL     1      14.717   5.509  36.638  0.00  0.00    +0.022 A 
ATOM     25  C   UNL     1      15.266   6.114  37.756  0.00  0.00    +0.041 A 
ATOM     26 CL   UNL     1      14.981   5.450  39.317  0.00  0.00    -0.084 Cl
ATOM     27  C   UNL     1      16.038   7.262  37.618  0.00  0.00    +0.022 A 
ATOM     28  C   UNL     1      16.257   7.805  36.345  0.00  0.00    +0.024 A 
ENDBRANCH  19  22
ENDBRANCH  15  16
ENDBRANCH  13  15
ENDBRANCH  12  13
ENDBRANCH  10  12
ENDBRANCH   6   8
ENDBRANCH   5   6
ENDBRANCH   1   5
BRANCH   3  29
ATOM     29  C   UNL     1      18.367   2.574  26.057  0.00  0.00    +0.141 C 
BRANCH  29  30
ATOM     30  C   UNL     1      17.073   1.772  26.162  0.00  0.00    +0.163 C 
BRANCH  30  31
ATOM     31  O   UNL     1      16.077   2.536  26.862  0.00  0.00    -0.388 OA
ATOM     32  H   UNL     1      16.410   3.422  27.027  0.00  0.00    +0.210 HD
ENDBRANCH  30  31
BRANCH  30  33
ATOM     33  C   UNL     1      16.586   1.395  24.752  0.00  0.00    +0.175 C 
BRANCH  33  34
ATOM     34  C   UNL     1      17.697   0.750  23.911  0.00  0.00    +0.176 C 
ATOM     35  O   UNL     1      17.724   1.416  22.619  0.00  0.00    -0.332 OA
ATOM     36  C   UNL     1      18.799   1.001  21.713  0.00  0.00    +0.277 C 
ATOM     37  C   UNL     1      18.772  -0.534  21.510  0.00  0.00    +0.110 C 
ATOM     38  C   UNL     1      18.712  -1.286  22.856  0.00  0.00    +0.143 C 
ATOM     39  C   UNL     1      17.559  -0.772  23.720  0.00  0.00    +0.133 C 
BRANCH  39  40
ATOM     40  N   UNL     1      17.565  -1.434  25.034  0.00  0.00    -0.308 N 
ATOM     41  H   UNL     1      18.319  -1.215  25.669  0.00  0.00    +0.149 HD
ATOM     42  C   UNL     1      16.639  -2.306  25.441  0.00  0.00    +0.210 C 
ATOM     43  C   UNL     1      15.517  -2.639  24.440  0.00  0.00    +0.109 C 
ATOM     44  O   UNL     1      16.661  -2.835  26.554  0.00  0.00    -0.276 OA
ENDBRANCH  39  40
BRANCH  36  45
ATOM     45  C   UNL     1      20.175   1.423  22.268  0.00  0.00    +0.414 C 
ATOM     46  O   UNL     1      21.169   0.728  22.058  0.00  0.00    -0.240 OA
ATOM     47  O   UNL     1      20.293   2.459  22.923  0.00  0.00    -0.240 OA
ENDBRANCH  36  45
BRANCH  36  48
ATOM     48  O   UNL     1      18.574   1.636  20.428  0.00  0.00    -0.343 OA
ATOM     49  C   UNL     1      17.181   1.794  20.059  0.00  0.00    +0.198 C 
ENDBRANCH  36  48
BRANCH  38  50
ATOM     50  O   UNL     1      18.536  -2.683  22.621  0.00  0.00    -0.390 OA
ATOM     51  H   UNL     1      17.609  -2.867  22.455  0.00  0.00    +0.210 HD
ENDBRANCH  38  50
ENDBRANCH  33  34
BRANCH  33  52
ATOM     52  O   UNL     1      16.066   2.559  24.079  0.00  0.00    -0.387 OA
ATOM     53  H   UNL     1      16.776   3.002  23.610  0.00  0.00    +0.210 HD
ENDBRANCH  33  52
ENDBRANCH  30  33
ENDBRANCH  29  30
ENDBRANCH   3  29
TORSDOF 18
