REMARK VINA RESULT:    -5.086      2.246      3.455
REMARK INTER + INTRA:         -12.304
REMARK INTER:                 -10.657
REMARK INTRA:                  -1.647
REMARK UNBOUND:                -3.800
REMARK  Name = lig_assembled_65.pdb
REMARK  16 active torsions:
REMARK  status: ('A' for Active; 'I' for Inactive)
REMARK    1  A    between atoms: _8  and  _20
REMARK    2  A    between atoms: _9  and  _15
REMARK    3  A    between atoms: _10  and  _11
REMARK    4  A    between atoms: _10  and  _20
REMARK    5  A    between atoms: _16  and  _36
REMARK    6  A    between atoms: _18  and  _24
REMARK    7  A    between atoms: _19  and  _23
REMARK    8  A    between atoms: _23  and  _24
REMARK    9  A    between atoms: _26  and  _27
REMARK   10  A    between atoms: _28  and  _29
REMARK   11  A    between atoms: _30  and  _32
REMARK   12  A    between atoms: _32  and  _33
REMARK   13  A    between atoms: _32  and  _34
REMARK   14  A    between atoms: _34  and  _35
REMARK   15  A    between atoms: _34  and  _36
REMARK   16  A    between atoms: _37  and  _39
REMARK                            x       y       z     vdW  Elec       q    Type
REMARK                         _______ _______ _______ _____ _____    ______ ____
ROOT
ATOM      1  C   UNL     1      20.615   4.719  24.231  0.00  0.00    +0.163 C 
ENDROOT
BRANCH   1   2
ATOM      2  O   UNL     1      21.852   4.581  24.950  0.00  0.00    -0.388 OA
ATOM      3  H   UNL     1      22.576   4.904  24.407  0.00  0.00    +0.210 HD
ENDBRANCH   1   2
BRANCH   1   4
ATOM      4  C   UNL     1      20.324   6.194  23.973  0.00  0.00    +0.141 C 
BRANCH   4   7
ATOM      5  C   UNL     1      20.049   7.653  25.949  0.00  0.00    +0.401 C 
ATOM      6  O   UNL     1      18.819   7.567  25.958  0.00  0.00    -0.226 OA
ATOM      7  N   UNL     1      20.831   7.049  25.054  0.00  0.00    -0.279 N 
ATOM      8  H   UNL     1      21.830   7.188  25.122  0.00  0.00    +0.152 HD
BRANCH   5   9
ATOM      9  O   UNL     1      20.697   8.446  26.946  0.00  0.00    -0.444 OA
BRANCH   9  10
ATOM     10  C   UNL     1      20.118   9.754  26.967  0.00  0.00    +0.292 C 
BRANCH  10  12
ATOM     11  N   UNL     1      19.901  11.220  28.951  0.00  0.00    -0.131 NA
ATOM     12  C   UNL     1      19.579  10.057  28.306  0.00  0.00    +0.121 A 
ATOM     13  C   UNL     1      18.735   9.321  29.103  0.00  0.00    +0.149 A 
ATOM     14  N   UNL     1      18.573  10.078  30.244  0.00  0.00    -0.155 N 
ATOM     15  C   UNL     1      17.798   9.747  31.394  0.00  0.00    +0.416 C 
ATOM     16  N   UNL     1      17.758  10.615  32.411  0.00  0.00    +0.041 NA
ATOM     17  C   UNL     1      17.029  10.228  33.456  0.00  0.00    +0.339 C 
ATOM     18  C   UNL     1      16.956  11.151  34.631  0.00  0.00    +0.149 C 
ATOM     19  N   UNL     1      16.371   9.071  33.530  0.00  0.00    +0.007 NA
ATOM     20  C   UNL     1      16.487   8.279  32.477  0.00  0.00    +0.386 C 
ATOM     21  N   UNL     1      15.830   7.067  32.518  0.00  0.00    -0.296 N 
ATOM     22  H   UNL     1      15.069   7.096  33.182  0.00  0.00    +0.148 HD
ATOM     23  H   UNL     1      15.628   6.727  31.589  0.00  0.00    +0.148 HD
ATOM     24  N   UNL     1      17.163   8.566  31.379  0.00  0.00    -0.290 NA
ATOM     25  N   UNL     1      19.284  11.229  30.127  0.00  0.00    -0.055 NA
ENDBRANCH  10  12
ENDBRANCH   9  10
ENDBRANCH   5   9
ENDBRANCH   4   7
ENDBRANCH   1   4
BRANCH   1  26
ATOM     26  C   UNL     1      19.449   4.095  25.018  0.00  0.00    +0.175 C 
BRANCH  26  27
ATOM     27  C   UNL     1      19.135   2.667  24.549  0.00  0.00    +0.176 C 
ATOM     28  O   UNL     1      18.372   2.759  23.314  0.00  0.00    -0.332 OA
ATOM     29  C   UNL     1      18.070   1.483  22.659  0.00  0.00    +0.277 C 
ATOM     30  C   UNL     1      17.358   0.524  23.644  0.00  0.00    +0.110 C 
ATOM     31  C   UNL     1      18.116   0.418  24.984  0.00  0.00    +0.143 C 
ATOM     32  C   UNL     1      18.380   1.803  25.576  0.00  0.00    +0.133 C 
BRANCH  32  33
ATOM     33  N   UNL     1      19.178   1.693  26.807  0.00  0.00    -0.308 N 
ATOM     34  H   UNL     1      20.032   1.155  26.769  0.00  0.00    +0.149 HD
ATOM     35  C   UNL     1      18.848   2.259  27.971  0.00  0.00    +0.210 C 
ATOM     36  C   UNL     1      17.528   3.051  28.003  0.00  0.00    +0.109 C 
ATOM     37  O   UNL     1      19.544   2.163  28.983  0.00  0.00    -0.276 OA
ENDBRANCH  32  33
BRANCH  29  38
ATOM     38  C   UNL     1      19.360   0.819  22.134  0.00  0.00    +0.414 C 
ATOM     39  O   UNL     1      20.082   1.414  21.335  0.00  0.00    -0.240 OA
ATOM     40  O   UNL     1      19.678  -0.310  22.509  0.00  0.00    -0.240 OA
ENDBRANCH  29  38
BRANCH  29  41
ATOM     41  O   UNL     1      17.172   1.749  21.551  0.00  0.00    -0.343 OA
ATOM     42  C   UNL     1      16.726   3.125  21.441  0.00  0.00    +0.198 C 
ENDBRANCH  29  41
BRANCH  31  43
ATOM     43  O   UNL     1      17.350  -0.352  25.911  0.00  0.00    -0.390 OA
ATOM     44  H   UNL     1      17.921  -0.665  26.617  0.00  0.00    +0.210 HD
ENDBRANCH  31  43
ENDBRANCH  26  27
BRANCH  26  45
ATOM     45  O   UNL     1      18.275   4.924  24.906  0.00  0.00    -0.387 OA
ATOM     46  H   UNL     1      17.727   4.608  24.184  0.00  0.00    +0.210 HD
ENDBRANCH  26  45
ENDBRANCH   1  26
TORSDOF 13
