REMARK VINA RESULT:    -5.448      7.248     11.464
REMARK INTER + INTRA:         -12.151
REMARK INTER:                  -9.429
REMARK INTRA:                  -2.722
REMARK UNBOUND:                -2.722
REMARK  Name = lig_assembled_3.pdb
REMARK  16 active torsions:
REMARK  status: ('A' for Active; 'I' for Inactive)
REMARK    1  A    between atoms: _2  and  _9
REMARK    2  A    between atoms: _4  and  _18
REMARK    3  A    between atoms: _6  and  _7
REMARK    4  A    between atoms: _6  and  _18
REMARK    5  A    between atoms: _14  and  _34
REMARK    6  A    between atoms: _16  and  _22
REMARK    7  A    between atoms: _17  and  _21
REMARK    8  A    between atoms: _21  and  _22
REMARK    9  A    between atoms: _24  and  _25
REMARK   10  A    between atoms: _26  and  _27
REMARK   11  A    between atoms: _28  and  _30
REMARK   12  A    between atoms: _30  and  _31
REMARK   13  A    between atoms: _30  and  _32
REMARK   14  A    between atoms: _32  and  _33
REMARK   15  A    between atoms: _32  and  _34
REMARK   16  A    between atoms: _35  and  _37
REMARK                            x       y       z     vdW  Elec       q    Type
REMARK                         _______ _______ _______ _____ _____    ______ ____
ROOT
ATOM      1  C   UNL     1      -1.279   0.510  23.250  0.00  0.00    +0.163 C 
ENDROOT
BRANCH   1   2
ATOM      2  O   UNL     1      -2.039   1.253  22.282  0.00  0.00    -0.388 OA
ATOM      3  H   UNL     1      -2.931   1.387  22.610  0.00  0.00    +0.210 HD
ENDBRANCH   1   2
BRANCH   1   4
ATOM      4  C   UNL     1      -2.109   0.296  24.512  0.00  0.00    +0.141 C 
BRANCH   4   7
ATOM      5  C   UNL     1      -1.169   0.333  26.797  0.00  0.00    +0.401 C 
ATOM      6  O   UNL     1      -1.693   1.408  27.097  0.00  0.00    -0.226 OA
ATOM      7  N   UNL     1      -1.305  -0.257  25.608  0.00  0.00    -0.279 N 
ATOM      8  H   UNL     1      -0.828  -1.134  25.454  0.00  0.00    +0.152 HD
BRANCH   5   9
ATOM      9  O   UNL     1      -0.358  -0.339  27.765  0.00  0.00    -0.444 OA
BRANCH   9  10
ATOM     10  C   UNL     1       0.804   0.446  28.041  0.00  0.00    +0.292 C 
BRANCH  10  12
ATOM     11  N   UNL     1       2.085  -0.176  26.018  0.00  0.00    -0.131 NA
ATOM     12  C   UNL     1       1.987  -0.137  27.379  0.00  0.00    +0.121 A 
ATOM     13  C   UNL     1       3.118  -0.694  27.928  0.00  0.00    +0.143 A 
ATOM     14  N   UNL     1       3.904  -1.041  26.853  0.00  0.00    -0.220 N 
ATOM     15  N   UNL     1       3.249  -0.730  25.706  0.00  0.00    -0.060 NA
BRANCH  14  16
ATOM     16  C   UNL     1       5.203  -1.611  26.848  0.00  0.00    +0.067 A 
ATOM     17  C   UNL     1       5.924  -1.770  28.041  0.00  0.00    +0.028 A 
ATOM     18  C   UNL     1       7.214  -2.305  28.012  0.00  0.00    +0.002 A 
ATOM     19  C   UNL     1       7.789  -2.686  26.801  0.00  0.00    +0.000 A 
ATOM     20  C   UNL     1       7.075  -2.539  25.613  0.00  0.00    +0.002 A 
ATOM     21  C   UNL     1       5.784  -2.004  25.633  0.00  0.00    +0.028 A 
ENDBRANCH  14  16
ENDBRANCH  10  12
ENDBRANCH   9  10
ENDBRANCH   5   9
ENDBRANCH   4   7
ENDBRANCH   1   4
BRANCH   1  22
ATOM     22  C   UNL     1       0.023   1.245  23.609  0.00  0.00    +0.175 C 
BRANCH  22  23
ATOM     23  C   UNL     1       0.214   2.522  22.778  0.00  0.00    +0.176 C 
ATOM     24  O   UNL     1       0.908   2.158  21.553  0.00  0.00    -0.332 OA
ATOM     25  C   UNL     1       1.086   3.240  20.579  0.00  0.00    +0.277 C 
ATOM     26  C   UNL     1       1.790   4.451  21.239  0.00  0.00    +0.110 C 
ATOM     27  C   UNL     1       1.107   4.855  22.562  0.00  0.00    +0.143 C 
ATOM     28  C   UNL     1       0.970   3.654  23.499  0.00  0.00    +0.133 C 
BRANCH  28  29
ATOM     29  N   UNL     1       0.240   4.032  24.719  0.00  0.00    -0.308 N 
ATOM     30  H   UNL     1      -0.703   4.381  24.616  0.00  0.00    +0.149 HD
ATOM     31  C   UNL     1       0.742   3.945  25.954  0.00  0.00    +0.210 C 
ATOM     32  C   UNL     1       2.190   3.434  26.075  0.00  0.00    +0.109 C 
ATOM     33  O   UNL     1       0.102   4.255  26.959  0.00  0.00    -0.276 OA
ENDBRANCH  28  29
BRANCH  25  34
ATOM     34  C   UNL     1      -0.273   3.685  20.002  0.00  0.00    +0.414 C 
ATOM     35  O   UNL     1      -0.513   4.880  19.832  0.00  0.00    -0.240 OA
ATOM     36  O   UNL     1      -1.129   2.851  19.706  0.00  0.00    -0.240 OA
ENDBRANCH  25  34
BRANCH  27  37
ATOM     37  O   UNL     1       1.873   5.871  23.210  0.00  0.00    -0.390 OA
ATOM     38  H   UNL     1       1.576   6.735  22.914  0.00  0.00    +0.210 HD
ENDBRANCH  27  37
BRANCH  25  39
ATOM     39  O   UNL     1       1.933   2.746  19.509  0.00  0.00    -0.343 OA
ATOM     40  C   UNL     1       2.168   3.686  18.431  0.00  0.00    +0.198 C 
ENDBRANCH  25  39
ENDBRANCH  22  23
BRANCH  22  41
ATOM     41  O   UNL     1       1.153   0.367  23.438  0.00  0.00    -0.387 OA
ATOM     42  H   UNL     1       1.946   0.797  23.765  0.00  0.00    +0.210 HD
ENDBRANCH  22  41
ENDBRANCH   1  22
TORSDOF 14
