REMARK VINA RESULT:    -5.535      2.148      3.467
REMARK INTER + INTRA:         -12.984
REMARK INTER:                 -10.855
REMARK INTRA:                  -2.129
REMARK UNBOUND:                -2.111
REMARK  Name = lig_assembled_17.pdb
REMARK  22 active torsions:
REMARK  status: ('A' for Active; 'I' for Inactive)
REMARK    1  A    between atoms: _2  and  _10
REMARK    2  A    between atoms: _3  and  _11
REMARK    3  A    between atoms: _3  and  _12
REMARK    4  A    between atoms: _3  and  _14
REMARK    5  A    between atoms: _5  and  _19
REMARK    6  A    between atoms: _6  and  _14
REMARK    7  A    between atoms: _7  and  _8
REMARK    8  A    between atoms: _7  and  _19
REMARK    9  A    between atoms: _10  and  _11
REMARK   10  A    between atoms: _12  and  _13
REMARK   11  A    between atoms: _15  and  _35
REMARK   12  A    between atoms: _17  and  _23
REMARK   13  A    between atoms: _18  and  _22
REMARK   14  A    between atoms: _22  and  _23
REMARK   15  A    between atoms: _25  and  _26
REMARK   16  A    between atoms: _27  and  _28
REMARK   17  A    between atoms: _29  and  _31
REMARK   18  A    between atoms: _31  and  _32
REMARK   19  A    between atoms: _31  and  _33
REMARK   20  A    between atoms: _33  and  _34
REMARK   21  A    between atoms: _33  and  _35
REMARK   22  A    between atoms: _36  and  _38
REMARK                            x       y       z     vdW  Elec       q    Type
REMARK                         _______ _______ _______ _____ _____    ______ ____
ROOT
ATOM      1  C   UNL     1       2.888   2.582  32.566  0.00  0.00    +0.163 C 
ENDROOT
BRANCH   1   2
ATOM      2  O   UNL     1       2.651   1.399  33.346  0.00  0.00    -0.388 OA
ATOM      3  H   UNL     1       1.765   1.432  33.717  0.00  0.00    +0.210 HD
ENDBRANCH   1   2
BRANCH   1   4
ATOM      4  C   UNL     1       3.890   3.513  33.269  0.00  0.00    +0.175 C 
BRANCH   4   5
ATOM      5  C   UNL     1       3.507   3.774  34.733  0.00  0.00    +0.176 C 
ATOM      6  O   UNL     1       2.066   3.960  34.792  0.00  0.00    -0.332 OA
ATOM      7  C   UNL     1       1.502   4.117  36.136  0.00  0.00    +0.277 C 
ATOM      8  C   UNL     1       2.210   5.271  36.889  0.00  0.00    +0.110 C 
ATOM      9  C   UNL     1       3.746   5.133  36.826  0.00  0.00    +0.143 C 
ATOM     10  C   UNL     1       4.224   4.973  35.383  0.00  0.00    +0.133 C 
BRANCH  10  11
ATOM     11  N   UNL     1       5.679   4.756  35.343  0.00  0.00    -0.308 N 
ATOM     12  H   UNL     1       6.034   3.875  35.690  0.00  0.00    +0.149 HD
ATOM     13  C   UNL     1       6.560   5.645  34.879  0.00  0.00    +0.210 C 
ATOM     14  C   UNL     1       5.989   6.987  34.382  0.00  0.00    +0.109 C 
ATOM     15  O   UNL     1       7.772   5.430  34.844  0.00  0.00    -0.276 OA
ENDBRANCH  10  11
BRANCH   7  16
ATOM     16  C   UNL     1       1.643   2.811  36.945  0.00  0.00    +0.414 C 
ATOM     17  O   UNL     1       1.419   2.803  38.155  0.00  0.00    -0.240 OA
ATOM     18  O   UNL     1       1.980   1.766  36.388  0.00  0.00    -0.240 OA
ENDBRANCH   7  16
BRANCH   9  19
ATOM     19  O   UNL     1       4.357   6.291  37.398  0.00  0.00    -0.390 OA
ATOM     20  H   UNL     1       4.406   6.986  36.739  0.00  0.00    +0.210 HD
ENDBRANCH   9  19
BRANCH   7  21
ATOM     21  O   UNL     1       0.098   4.456  35.997  0.00  0.00    -0.343 OA
ATOM     22  C   UNL     1      -0.672   3.547  35.171  0.00  0.00    +0.198 C 
ENDBRANCH   7  21
ENDBRANCH   4   5
BRANCH   4  23
ATOM     23  O   UNL     1       3.996   4.760  32.553  0.00  0.00    -0.387 OA
ATOM     24  H   UNL     1       4.371   5.430  33.130  0.00  0.00    +0.210 HD
ENDBRANCH   4  23
ENDBRANCH   1   4
BRANCH   1  25
ATOM     25  C   UNL     1       3.426   2.200  31.190  0.00  0.00    +0.141 C 
BRANCH  25  28
ATOM     26  C   UNL     1       1.829   2.747  29.386  0.00  0.00    +0.401 C 
ATOM     27  O   UNL     1       1.199   1.692  29.496  0.00  0.00    -0.226 OA
ATOM     28  N   UNL     1       2.887   3.064  30.133  0.00  0.00    -0.279 N 
ATOM     29  H   UNL     1       3.343   3.949  29.962  0.00  0.00    +0.152 HD
BRANCH  26  30
ATOM     30  O   UNL     1       1.420   3.701  28.402  0.00  0.00    -0.444 OA
BRANCH  30  31
ATOM     31  C   UNL     1       0.818   3.020  27.298  0.00  0.00    +0.292 C 
BRANCH  31  33
ATOM     32  N   UNL     1      -0.043   4.894  25.935  0.00  0.00    -0.131 NA
ATOM     33  C   UNL     1       0.853   3.870  26.094  0.00  0.00    +0.120 A 
ATOM     34  C   UNL     1       1.700   3.838  25.008  0.00  0.00    +0.137 A 
ATOM     35  N   UNL     1       1.276   4.877  24.236  0.00  0.00    -0.250 N 
ATOM     36  N   UNL     1       0.223   5.503  24.789  0.00  0.00    -0.065 NA
BRANCH  35  37
ATOM     37  C   UNL     1       1.839   5.367  22.994  0.00  0.00    +0.160 C 
BRANCH  37  38
ATOM     38  C   UNL     1       1.132   4.726  21.791  0.00  0.00    +0.107 C 
BRANCH  38  39
ATOM     39  N   UNL     1       1.796   3.536  21.204  0.00  0.00    -0.301 NA
BRANCH  39  40
ATOM     40  C   UNL     1       1.189   2.261  21.626  0.00  0.00    +0.081 C 
ATOM     41  C   UNL     1       2.032   1.376  22.540  0.00  0.00    +0.020 C 
ENDBRANCH  39  40
BRANCH  39  42
ATOM     42  C   UNL     1       1.853   3.700  19.736  0.00  0.00    +0.081 C 
ATOM     43  C   UNL     1       2.319   2.466  18.971  0.00  0.00    +0.020 C 
ENDBRANCH  39  42
ENDBRANCH  38  39
ENDBRANCH  37  38
ENDBRANCH  35  37
ENDBRANCH  31  33
ENDBRANCH  30  31
ENDBRANCH  26  30
ENDBRANCH  25  28
ENDBRANCH   1  25
TORSDOF 18
