REMARK VINA RESULT:    -6.440      2.469      3.598
REMARK INTER + INTRA:         -13.192
REMARK INTER:                 -11.252
REMARK INTRA:                  -1.940
REMARK UNBOUND:                -1.294
REMARK  Name = lig_assembled_24.pdb
REMARK  19 active torsions:
REMARK  status: ('A' for Active; 'I' for Inactive)
REMARK    1  A    between atoms: _2  and  _9
REMARK    2  A    between atoms: _4  and  _21
REMARK    3  A    between atoms: _6  and  _7
REMARK    4  A    between atoms: _6  and  _21
REMARK    5  A    between atoms: _9  and  _10
REMARK    6  A    between atoms: _13  and  _16
REMARK    7  A    between atoms: _14  and  _16
REMARK    8  A    between atoms: _17  and  _37
REMARK    9  A    between atoms: _19  and  _25
REMARK   10  A    between atoms: _20  and  _24
REMARK   11  A    between atoms: _24  and  _25
REMARK   12  A    between atoms: _27  and  _28
REMARK   13  A    between atoms: _29  and  _30
REMARK   14  A    between atoms: _31  and  _33
REMARK   15  A    between atoms: _33  and  _34
REMARK   16  A    between atoms: _33  and  _35
REMARK   17  A    between atoms: _35  and  _36
REMARK   18  A    between atoms: _35  and  _37
REMARK   19  A    between atoms: _38  and  _40
REMARK                            x       y       z     vdW  Elec       q    Type
REMARK                         _______ _______ _______ _____ _____    ______ ____
ROOT
ATOM      1  C   UNL     1       7.456   2.177  33.012  0.00  0.00    +0.163 C 
ENDROOT
BRANCH   1   2
ATOM      2  O   UNL     1       7.422   3.284  32.097  0.00  0.00    -0.388 OA
ATOM      3  H   UNL     1       7.081   2.990  31.249  0.00  0.00    +0.210 HD
ENDBRANCH   1   2
BRANCH   1   4
ATOM      4  C   UNL     1       8.247   2.536  34.282  0.00  0.00    +0.175 C 
BRANCH   4   5
ATOM      5  C   UNL     1       7.558   3.638  35.100  0.00  0.00    +0.176 C 
ATOM      6  O   UNL     1       7.542   4.849  34.294  0.00  0.00    -0.332 OA
ATOM      7  C   UNL     1       6.824   5.987  34.875  0.00  0.00    +0.277 C 
ATOM      8  C   UNL     1       7.370   6.307  36.288  0.00  0.00    +0.110 C 
ATOM      9  C   UNL     1       7.436   5.043  37.172  0.00  0.00    +0.143 C 
ATOM     10  C   UNL     1       8.201   3.921  36.470  0.00  0.00    +0.133 C 
BRANCH  10  11
ATOM     11  N   UNL     1       8.182   2.696  37.284  0.00  0.00    -0.308 N 
ATOM     12  H   UNL     1       7.284   2.287  37.500  0.00  0.00    +0.149 HD
ATOM     13  C   UNL     1       9.275   2.089  37.757  0.00  0.00    +0.210 C 
ATOM     14  C   UNL     1      10.627   2.752  37.432  0.00  0.00    +0.109 C 
ATOM     15  O   UNL     1       9.229   1.056  38.424  0.00  0.00    -0.276 OA
ENDBRANCH  10  11
BRANCH   7  16
ATOM     16  C   UNL     1       5.312   5.695  34.960  0.00  0.00    +0.414 C 
ATOM     17  O   UNL     1       4.724   5.186  34.007  0.00  0.00    -0.240 OA
ATOM     18  O   UNL     1       4.680   5.968  35.982  0.00  0.00    -0.240 OA
ENDBRANCH   7  16
BRANCH   7  19
ATOM     19  O   UNL     1       7.051   7.142  34.026  0.00  0.00    -0.343 OA
ATOM     20  C   UNL     1       7.765   8.235  34.656  0.00  0.00    +0.198 C 
ENDBRANCH   7  19
BRANCH   9  21
ATOM     21  O   UNL     1       8.083   5.353  38.407  0.00  0.00    -0.390 OA
ATOM     22  H   UNL     1       7.486   5.859  38.964  0.00  0.00    +0.210 HD
ENDBRANCH   9  21
ENDBRANCH   4   5
BRANCH   4  23
ATOM     23  O   UNL     1       9.587   2.938  33.935  0.00  0.00    -0.387 OA
ATOM     24  H   UNL     1       9.666   3.892  34.015  0.00  0.00    +0.210 HD
ENDBRANCH   4  23
ENDBRANCH   1   4
BRANCH   1  25
ATOM     25  C   UNL     1       6.035   1.772  33.394  0.00  0.00    +0.141 C 
BRANCH  25  28
ATOM     26  C   UNL     1       4.102   2.150  31.903  0.00  0.00    +0.401 C 
ATOM     27  O   UNL     1       3.995   0.963  31.586  0.00  0.00    -0.226 OA
ATOM     28  N   UNL     1       5.030   2.618  32.738  0.00  0.00    -0.279 N 
ATOM     29  H   UNL     1       5.044   3.610  32.929  0.00  0.00    +0.152 HD
BRANCH  26  30
ATOM     30  O   UNL     1       3.187   3.101  31.352  0.00  0.00    -0.444 OA
BRANCH  30  31
ATOM     31  C   UNL     1       2.023   2.422  30.872  0.00  0.00    +0.292 C 
BRANCH  31  33
ATOM     32  N   UNL     1       1.812   3.825  28.843  0.00  0.00    -0.131 NA
ATOM     33  C   UNL     1       1.901   2.582  29.411  0.00  0.00    +0.120 A 
ATOM     34  C   UNL     1       1.876   1.630  28.417  0.00  0.00    +0.137 A 
ATOM     35  N   UNL     1       1.841   2.353  27.261  0.00  0.00    -0.247 N 
ATOM     36  N   UNL     1       1.766   3.674  27.527  0.00  0.00    -0.065 NA
BRANCH  35  37
ATOM     37  C   UNL     1       1.929   1.931  25.873  0.00  0.00    +0.180 C 
BRANCH  37  38
ATOM     38  C   UNL     1       1.377   2.920  24.874  0.00  0.00    -0.026 A 
ATOM     39  C   UNL     1       0.023   2.891  24.519  0.00  0.00    +0.009 A 
ATOM     40  C   UNL     1      -0.480   3.812  23.595  0.00  0.00    +0.046 A 
ATOM     41  C   UNL     1       0.352   4.779  23.029  0.00  0.00    +0.120 A 
ATOM     42  C   UNL     1       1.704   4.798  23.359  0.00  0.00    +0.046 A 
ATOM     43  C   UNL     1       2.216   3.873  24.278  0.00  0.00    +0.009 A 
BRANCH  41  44
ATOM     44  O   UNL     1      -0.248   5.611  22.124  0.00  0.00    -0.495 OA
ATOM     45  C   UNL     1      -0.473   5.052  20.834  0.00  0.00    +0.277 C 
ENDBRANCH  41  44
ENDBRANCH  37  38
ENDBRANCH  35  37
ENDBRANCH  31  33
ENDBRANCH  30  31
ENDBRANCH  26  30
ENDBRANCH  25  28
ENDBRANCH   1  25
TORSDOF 16
