REMARK VINA RESULT:    -6.080      5.985      9.346
REMARK INTER + INTRA:         -15.610
REMARK INTER:                 -11.619
REMARK INTRA:                  -3.992
REMARK UNBOUND:                -3.133
REMARK  Name = lig_assembled_90.pdb
REMARK  22 active torsions:
REMARK  status: ('A' for Active; 'I' for Inactive)
REMARK    1  A    between atoms: _2  and  _13
REMARK    2  A    between atoms: _3  and  _15
REMARK    3  A    between atoms: _4  and  _17
REMARK    4  A    between atoms: _8  and  _28
REMARK    5  A    between atoms: _10  and  _11
REMARK    6  A    between atoms: _10  and  _28
REMARK    7  A    between atoms: _13  and  _14
REMARK    8  A    between atoms: _15  and  _16
REMARK    9  A    between atoms: _16  and  _17
REMARK   10  A    between atoms: _16  and  _22
REMARK   11  A    between atoms: _24  and  _44
REMARK   12  A    between atoms: _26  and  _32
REMARK   13  A    between atoms: _27  and  _31
REMARK   14  A    between atoms: _31  and  _32
REMARK   15  A    between atoms: _34  and  _35
REMARK   16  A    between atoms: _36  and  _37
REMARK   17  A    between atoms: _38  and  _40
REMARK   18  A    between atoms: _40  and  _41
REMARK   19  A    between atoms: _40  and  _42
REMARK   20  A    between atoms: _42  and  _43
REMARK   21  A    between atoms: _42  and  _44
REMARK   22  A    between atoms: _45  and  _47
REMARK                            x       y       z     vdW  Elec       q    Type
REMARK                         _______ _______ _______ _____ _____    ______ ____
ROOT
ATOM      1  C   UNL     1      18.401  -2.749  23.214  0.00  0.00    +0.401 C 
ATOM      2  O   UNL     1      19.191  -3.694  23.144  0.00  0.00    -0.226 OA
ATOM      3  N   UNL     1      17.075  -2.885  23.217  0.00  0.00    -0.279 N 
ATOM      4  H   UNL     1      16.510  -2.051  23.287  0.00  0.00    +0.152 HD
ENDROOT
BRANCH   3   5
ATOM      5  C   UNL     1      16.389  -4.180  23.123  0.00  0.00    +0.141 C 
BRANCH   5   6
ATOM      6  C   UNL     1      15.275  -4.310  24.156  0.00  0.00    +0.163 C 
BRANCH   6   7
ATOM      7  O   UNL     1      14.926  -5.692  24.332  0.00  0.00    -0.388 OA
ATOM      8  H   UNL     1      13.988  -5.765  24.523  0.00  0.00    +0.210 HD
ENDBRANCH   6   7
BRANCH   6   9
ATOM      9  C   UNL     1      15.732  -3.684  25.486  0.00  0.00    +0.175 C 
BRANCH   9  10
ATOM     10  C   UNL     1      15.274  -4.507  26.699  0.00  0.00    +0.176 C 
ATOM     11  O   UNL     1      13.828  -4.390  26.799  0.00  0.00    -0.332 OA
ATOM     12  C   UNL     1      13.197  -5.201  27.845  0.00  0.00    +0.277 C 
ATOM     13  C   UNL     1      13.843  -4.906  29.221  0.00  0.00    +0.110 C 
ATOM     14  C   UNL     1      15.382  -4.987  29.157  0.00  0.00    +0.143 C 
ATOM     15  C   UNL     1      15.932  -4.108  28.033  0.00  0.00    +0.133 C 
BRANCH  15  16
ATOM     16  N   UNL     1      17.392  -4.261  27.926  0.00  0.00    -0.308 N 
ATOM     17  H   UNL     1      17.756  -5.181  27.722  0.00  0.00    +0.149 HD
ATOM     18  C   UNL     1      18.266  -3.264  28.083  0.00  0.00    +0.210 C 
ATOM     19  C   UNL     1      17.681  -1.880  28.420  0.00  0.00    +0.109 C 
ATOM     20  O   UNL     1      19.483  -3.418  27.973  0.00  0.00    -0.276 OA
ENDBRANCH  15  16
BRANCH  12  21
ATOM     21  C   UNL     1      13.329  -6.705  27.525  0.00  0.00    +0.414 C 
ATOM     22  O   UNL     1      13.095  -7.121  26.391  0.00  0.00    -0.240 OA
ATOM     23  O   UNL     1      13.670  -7.501  28.401  0.00  0.00    -0.240 OA
ENDBRANCH  12  21
BRANCH  14  24
ATOM     24  O   UNL     1      15.939  -4.562  30.402  0.00  0.00    -0.390 OA
ATOM     25  H   UNL     1      15.619  -3.682  30.612  0.00  0.00    +0.210 HD
ENDBRANCH  14  24
BRANCH  12  26
ATOM     26  O   UNL     1      11.794  -4.837  27.910  0.00  0.00    -0.343 OA
ATOM     27  C   UNL     1      11.000  -5.624  28.833  0.00  0.00    +0.198 C 
ENDBRANCH  12  26
ENDBRANCH   9  10
BRANCH   9  28
ATOM     28  O   UNL     1      15.246  -2.331  25.591  0.00  0.00    -0.387 OA
ATOM     29  H   UNL     1      15.313  -1.899  24.736  0.00  0.00    +0.210 HD
ENDBRANCH   9  28
ENDBRANCH   6   9
ENDBRANCH   5   6
ENDBRANCH   3   5
BRANCH   1  30
ATOM     30  O   UNL     1      18.917  -1.418  23.303  0.00  0.00    -0.444 OA
BRANCH  30  31
ATOM     31  C   UNL     1      19.269  -0.954  21.997  0.00  0.00    +0.292 C 
BRANCH  31  33
ATOM     32  N   UNL     1      19.048   1.147  20.698  0.00  0.00    -0.131 NA
ATOM     33  C   UNL     1      18.612   0.337  21.715  0.00  0.00    +0.120 A 
ATOM     34  C   UNL     1      17.544   0.939  22.341  0.00  0.00    +0.137 A 
ATOM     35  N   UNL     1      17.366   2.099  21.648  0.00  0.00    -0.242 N 
ATOM     36  N   UNL     1      18.283   2.231  20.673  0.00  0.00    -0.065 NA
BRANCH  35  37
ATOM     37  C   UNL     1      16.431   3.164  21.915  0.00  0.00    +0.240 C 
BRANCH  37  38
ATOM     38  C   UNL     1      17.122   4.366  22.515  0.00  0.00    +0.235 C 
ATOM     39  O   UNL     1      16.739   5.519  22.320  0.00  0.00    -0.274 OA
ATOM     40  N   UNL     1      18.186   4.078  23.350  0.00  0.00    -0.311 N 
ATOM     41  H   UNL     1      18.635   3.169  23.271  0.00  0.00    +0.149 HD
BRANCH  40  42
ATOM     42  C   UNL     1      18.988   5.151  23.922  0.00  0.00    +0.137 C 
BRANCH  42  43
ATOM     43  C   UNL     1      19.589   4.735  25.273  0.00  0.00    +0.151 C 
BRANCH  43  44
ATOM     44  O   UNL     1      19.893   5.918  26.023  0.00  0.00    -0.388 OA
ATOM     45  H   UNL     1      20.553   6.446  25.529  0.00  0.00    +0.210 HD
ENDBRANCH  43  44
BRANCH  43  46
ATOM     46  C   UNL     1      18.649   3.807  26.051  0.00  0.00    +0.162 C 
BRANCH  46  47
ATOM     47  N   UNL     1      19.184   2.460  26.188  0.00  0.00    -0.269 N 
ATOM     48  C   UNL     1      20.507   2.203  26.474  0.00  0.00    +0.113 A 
ATOM     49  C   UNL     1      20.630   0.834  26.477  0.00  0.00    +0.137 A 
ATOM     50  N   UNL     1      19.425   0.241  26.199  0.00  0.00    -0.172 NA
ATOM     51  C   UNL     1      18.571   1.239  26.042  0.00  0.00    +0.450 A 
ATOM     52  N   UNL     1      17.176   1.021  25.743  0.00  0.00    +0.120 N 
ATOM     53  O   UNL     1      16.432   2.011  25.721  0.00  0.00    +0.045 OA
ATOM     54  O   UNL     1      16.819  -0.142  25.518  0.00  0.00    -0.573 OA
ENDBRANCH  46  47
ENDBRANCH  43  46
ENDBRANCH  42  43
ENDBRANCH  40  42
ENDBRANCH  37  38
ENDBRANCH  35  37
ENDBRANCH  31  33
ENDBRANCH  30  31
ENDBRANCH   1  30
TORSDOF 20
