REMARK VINA RESULT:    -7.341      2.357      4.258
REMARK INTER + INTRA:         -15.903
REMARK INTER:                 -13.401
REMARK INTRA:                  -2.502
REMARK UNBOUND:                -1.911
REMARK  Name = lig_assembled_26.pdb
REMARK  20 active torsions:
REMARK  status: ('A' for Active; 'I' for Inactive)
REMARK    1  A    between atoms: _2  and  _9
REMARK    2  A    between atoms: _4  and  _23
REMARK    3  A    between atoms: _6  and  _7
REMARK    4  A    between atoms: _6  and  _23
REMARK    5  A    between atoms: _9  and  _10
REMARK    6  A    between atoms: _9  and  _11
REMARK    7  A    between atoms: _11  and  _12
REMARK    8  A    between atoms: _12  and  _13
REMARK    9  A    between atoms: _19  and  _39
REMARK   10  A    between atoms: _21  and  _27
REMARK   11  A    between atoms: _22  and  _26
REMARK   12  A    between atoms: _26  and  _27
REMARK   13  A    between atoms: _29  and  _30
REMARK   14  A    between atoms: _31  and  _32
REMARK   15  A    between atoms: _33  and  _35
REMARK   16  A    between atoms: _35  and  _36
REMARK   17  A    between atoms: _35  and  _37
REMARK   18  A    between atoms: _37  and  _38
REMARK   19  A    between atoms: _37  and  _39
REMARK   20  A    between atoms: _40  and  _42
REMARK                            x       y       z     vdW  Elec       q    Type
REMARK                         _______ _______ _______ _____ _____    ______ ____
ROOT
ATOM      1  C   UNL     1       4.105   3.638  32.512  0.00  0.00    +0.163 C 
ENDROOT
BRANCH   1   2
ATOM      2  O   UNL     1       3.152   3.961  33.538  0.00  0.00    -0.388 OA
ATOM      3  H   UNL     1       2.304   3.565  33.324  0.00  0.00    +0.210 HD
ENDBRANCH   1   2
BRANCH   1   4
ATOM      4  C   UNL     1       5.401   3.077  33.122  0.00  0.00    +0.175 C 
BRANCH   4   5
ATOM      5  C   UNL     1       5.751   3.752  34.456  0.00  0.00    +0.176 C 
ATOM      6  O   UNL     1       5.708   5.191  34.254  0.00  0.00    -0.332 OA
ATOM      7  C   UNL     1       5.914   6.006  35.455  0.00  0.00    +0.277 C 
ATOM      8  C   UNL     1       7.239   5.615  36.154  0.00  0.00    +0.110 C 
ATOM      9  C   UNL     1       7.345   4.090  36.361  0.00  0.00    +0.143 C 
ATOM     10  C   UNL     1       7.111   3.340  35.049  0.00  0.00    +0.133 C 
BRANCH  10  11
ATOM     11  N   UNL     1       7.128   1.886  35.277  0.00  0.00    -0.308 N 
ATOM     12  H   UNL     1       6.379   1.486  35.824  0.00  0.00    +0.149 HD
ATOM     13  C   UNL     1       8.069   1.062  34.808  0.00  0.00    +0.210 C 
ATOM     14  C   UNL     1       9.211   1.707  34.000  0.00  0.00    +0.109 C 
ATOM     15  O   UNL     1       8.049  -0.154  35.002  0.00  0.00    -0.276 OA
ENDBRANCH  10  11
BRANCH   7  16
ATOM     16  C   UNL     1       4.741   5.833  36.442  0.00  0.00    +0.414 C 
ATOM     17  O   UNL     1       4.911   6.016  37.647  0.00  0.00    -0.240 OA
ATOM     18  O   UNL     1       3.624   5.511  36.034  0.00  0.00    -0.240 OA
ENDBRANCH   7  16
BRANCH   7  19
ATOM     19  O   UNL     1       6.006   7.395  35.045  0.00  0.00    -0.343 OA
ATOM     20  C   UNL     1       7.213   7.741  34.320  0.00  0.00    +0.198 C 
ENDBRANCH   7  19
BRANCH   9  21
ATOM     21  O   UNL     1       8.640   3.761  36.867  0.00  0.00    -0.390 OA
ATOM     22  H   UNL     1       8.957   4.475  37.424  0.00  0.00    +0.210 HD
ENDBRANCH   9  21
ENDBRANCH   4   5
BRANCH   4  23
ATOM     23  O   UNL     1       6.491   3.223  32.191  0.00  0.00    -0.387 OA
ATOM     24  H   UNL     1       7.136   3.839  32.546  0.00  0.00    +0.210 HD
ENDBRANCH   4  23
ENDBRANCH   1   4
BRANCH   1  25
ATOM     25  C   UNL     1       3.509   2.615  31.551  0.00  0.00    +0.141 C 
BRANCH  25  28
ATOM     26  C   UNL     1       1.389   3.514  30.656  0.00  0.00    +0.401 C 
ATOM     27  O   UNL     1       0.738   3.242  31.667  0.00  0.00    -0.226 OA
ATOM     28  N   UNL     1       2.688   3.251  30.513  0.00  0.00    -0.279 N 
ATOM     29  H   UNL     1       3.133   3.504  29.642  0.00  0.00    +0.152 HD
BRANCH  26  30
ATOM     30  O   UNL     1       0.731   4.147  29.556  0.00  0.00    -0.444 OA
BRANCH  30  31
ATOM     31  C   UNL     1       0.274   3.152  28.636  0.00  0.00    +0.292 C 
BRANCH  31  33
ATOM     32  N   UNL     1       2.193   3.911  27.259  0.00  0.00    -0.131 NA
ATOM     33  C   UNL     1       0.985   3.274  27.351  0.00  0.00    +0.120 A 
ATOM     34  C   UNL     1       0.622   2.814  26.106  0.00  0.00    +0.137 A 
ATOM     35  N   UNL     1       1.632   3.224  25.290  0.00  0.00    -0.248 N 
ATOM     36  N   UNL     1       2.591   3.860  25.994  0.00  0.00    -0.065 NA
BRANCH  35  37
ATOM     37  C   UNL     1       1.818   3.001  23.864  0.00  0.00    +0.113 C 
ATOM     38  C   UNL     1       2.534   1.689  23.515  0.00  0.00    +0.033 C 
BRANCH  37  39
ATOM     39  C   UNL     1       0.515   3.171  23.062  0.00  0.00    +0.106 C 
BRANCH  39  40
ATOM     40  C   UNL     1       0.493   4.399  22.171  0.00  0.00    +0.165 C 
ATOM     41  O   UNL     1       0.295   5.529  22.613  0.00  0.00    -0.292 OA
BRANCH  40  42
ATOM     42  C   UNL     1       0.679   4.224  20.698  0.00  0.00    +0.017 A 
ATOM     43  C   UNL     1      -0.298   4.600  19.768  0.00  0.00    +0.011 A 
ATOM     44  C   UNL     1      -0.054   4.453  18.400  0.00  0.00    +0.001 A 
ATOM     45  C   UNL     1       1.157   3.925  17.956  0.00  0.00    +0.000 A 
ATOM     46  C   UNL     1       2.128   3.538  18.875  0.00  0.00    +0.001 A 
ATOM     47  C   UNL     1       1.891   3.687  20.242  0.00  0.00    +0.011 A 
ENDBRANCH  40  42
ENDBRANCH  39  40
ENDBRANCH  37  39
ENDBRANCH  35  37
ENDBRANCH  31  33
ENDBRANCH  30  31
ENDBRANCH  26  30
ENDBRANCH  25  28
ENDBRANCH   1  25
TORSDOF 17
