REMARK VINA RESULT:    -5.870     12.329     16.542
REMARK INTER + INTRA:         -12.756
REMARK INTER:                 -10.518
REMARK INTRA:                  -2.238
REMARK UNBOUND:                -2.083
REMARK  Name = lig_assembled_35.pdb
REMARK  19 active torsions:
REMARK  status: ('A' for Active; 'I' for Inactive)
REMARK    1  A    between atoms: _2  and  _9
REMARK    2  A    between atoms: _4  and  _17
REMARK    3  A    between atoms: _5  and  _9
REMARK    4  A    between atoms: _5  and  _11
REMARK    5  A    between atoms: _6  and  _7
REMARK    6  A    between atoms: _6  and  _17
REMARK    7  A    between atoms: _9  and  _10
REMARK    8  A    between atoms: _13  and  _33
REMARK    9  A    between atoms: _15  and  _21
REMARK   10  A    between atoms: _16  and  _20
REMARK   11  A    between atoms: _20  and  _21
REMARK   12  A    between atoms: _23  and  _24
REMARK   13  A    between atoms: _25  and  _26
REMARK   14  A    between atoms: _27  and  _29
REMARK   15  A    between atoms: _29  and  _30
REMARK   16  A    between atoms: _29  and  _31
REMARK   17  A    between atoms: _31  and  _32
REMARK   18  A    between atoms: _31  and  _33
REMARK   19  A    between atoms: _34  and  _36
REMARK                            x       y       z     vdW  Elec       q    Type
REMARK                         _______ _______ _______ _____ _____    ______ ____
ROOT
ATOM      1  C   UNL     1       8.634   4.594  38.551  0.00  0.00    +0.163 C 
ENDROOT
BRANCH   1   2
ATOM      2  O   UNL     1       7.478   5.288  39.049  0.00  0.00    -0.388 OA
ATOM      3  H   UNL     1       7.734   5.852  39.783  0.00  0.00    +0.210 HD
ENDBRANCH   1   2
BRANCH   1   4
ATOM      4  C   UNL     1       8.257   3.662  37.387  0.00  0.00    +0.175 C 
BRANCH   4   5
ATOM      5  C   UNL     1       7.759   4.440  36.161  0.00  0.00    +0.176 C 
ATOM      6  O   UNL     1       6.359   4.768  36.377  0.00  0.00    -0.332 OA
ATOM      7  C   UNL     1       5.739   5.608  35.348  0.00  0.00    +0.277 C 
ATOM      8  C   UNL     1       5.917   4.971  33.949  0.00  0.00    +0.110 C 
ATOM      9  C   UNL     1       7.385   4.575  33.685  0.00  0.00    +0.143 C 
ATOM     10  C   UNL     1       7.930   3.705  34.818  0.00  0.00    +0.133 C 
BRANCH  10  11
ATOM     11  N   UNL     1       9.355   3.408  34.599  0.00  0.00    -0.308 N 
ATOM     12  H   UNL     1       9.987   4.187  34.484  0.00  0.00    +0.149 HD
ATOM     13  C   UNL     1       9.866   2.175  34.542  0.00  0.00    +0.210 C 
ATOM     14  C   UNL     1       8.872   1.008  34.694  0.00  0.00    +0.109 C 
ATOM     15  O   UNL     1      11.066   1.956  34.372  0.00  0.00    -0.276 OA
ENDBRANCH  10  11
BRANCH   7  16
ATOM     16  C   UNL     1       6.355   7.023  35.352  0.00  0.00    +0.414 C 
ATOM     17  O   UNL     1       7.017   7.408  36.315  0.00  0.00    -0.240 OA
ATOM     18  O   UNL     1       6.191   7.778  34.393  0.00  0.00    -0.240 OA
ENDBRANCH   7  16
BRANCH   7  19
ATOM     19  O   UNL     1       4.319   5.694  35.635  0.00  0.00    -0.343 OA
ATOM     20  C   UNL     1       3.951   5.388  37.003  0.00  0.00    +0.198 C 
ENDBRANCH   7  19
BRANCH   9  21
ATOM     21  O   UNL     1       7.477   3.858  32.454  0.00  0.00    -0.390 OA
ATOM     22  H   UNL     1       7.045   4.358  31.758  0.00  0.00    +0.210 HD
ENDBRANCH   9  21
ENDBRANCH   4   5
BRANCH   4  23
ATOM     23  O   UNL     1       7.257   2.715  37.814  0.00  0.00    -0.387 OA
ATOM     24  H   UNL     1       7.309   2.601  38.766  0.00  0.00    +0.210 HD
ENDBRANCH   4  23
ENDBRANCH   1   4
BRANCH   1  25
ATOM     25  C   UNL     1       9.682   5.598  38.080  0.00  0.00    +0.141 C 
BRANCH  25  28
ATOM     26  C   UNL     1      12.081   5.173  38.492  0.00  0.00    +0.401 C 
ATOM     27  O   UNL     1      12.151   5.950  39.447  0.00  0.00    -0.226 OA
ATOM     28  N   UNL     1      10.968   4.951  37.791  0.00  0.00    -0.279 N 
ATOM     29  H   UNL     1      11.012   4.303  37.018  0.00  0.00    +0.152 HD
BRANCH  26  30
ATOM     30  O   UNL     1      13.252   4.458  38.091  0.00  0.00    -0.444 OA
BRANCH  30  31
ATOM     31  C   UNL     1      13.087   3.982  36.752  0.00  0.00    +0.292 C 
BRANCH  31  33
ATOM     32  N   UNL     1      14.127   4.355  34.538  0.00  0.00    -0.131 NA
ATOM     33  C   UNL     1      13.904   4.782  35.820  0.00  0.00    +0.120 A 
ATOM     34  C   UNL     1      14.547   5.985  36.012  0.00  0.00    +0.138 A 
ATOM     35  N   UNL     1      15.130   6.243  34.805  0.00  0.00    -0.238 N 
ATOM     36  N   UNL     1      14.892   5.251  33.931  0.00  0.00    -0.065 NA
BRANCH  35  37
ATOM     37  C   UNL     1      15.946   7.369  34.393  0.00  0.00    +0.214 C 
ATOM     38  C   UNL     1      17.414   6.967  34.281  0.00  0.00    +0.045 C 
BRANCH  37  39
ATOM     39  C   UNL     1      15.426   7.992  33.115  0.00  0.00    +0.329 C 
ATOM     40  O   UNL     1      14.745   9.009  33.068  0.00  0.00    -0.249 OA
BRANCH  39  41
ATOM     41  O   UNL     1      15.750   7.313  31.987  0.00  0.00    -0.479 OA
ATOM     42  H   UNL     1      15.866   6.346  32.091  0.00  0.00    +0.295 HD
ENDBRANCH  39  41
ENDBRANCH  37  39
ENDBRANCH  35  37
ENDBRANCH  31  33
ENDBRANCH  30  31
ENDBRANCH  26  30
ENDBRANCH  25  28
ENDBRANCH   1  25
TORSDOF 16
