REMARK VINA RESULT:    -6.672      2.021      3.363
REMARK INTER + INTRA:         -13.843
REMARK INTER:                 -11.732
REMARK INTRA:                  -2.112
REMARK UNBOUND:                -1.905
REMARK  Name = lig_assembled_38.pdb
REMARK  17 active torsions:
REMARK  status: ('A' for Active; 'I' for Inactive)
REMARK    1  A    between atoms: _2  and  _9
REMARK    2  A    between atoms: _4  and  _19
REMARK    3  A    between atoms: _6  and  _7
REMARK    4  A    between atoms: _6  and  _19
REMARK    5  A    between atoms: _9  and  _10
REMARK    6  A    between atoms: _15  and  _35
REMARK    7  A    between atoms: _17  and  _23
REMARK    8  A    between atoms: _18  and  _22
REMARK    9  A    between atoms: _22  and  _23
REMARK   10  A    between atoms: _25  and  _26
REMARK   11  A    between atoms: _27  and  _28
REMARK   12  A    between atoms: _29  and  _31
REMARK   13  A    between atoms: _31  and  _32
REMARK   14  A    between atoms: _31  and  _33
REMARK   15  A    between atoms: _33  and  _34
REMARK   16  A    between atoms: _33  and  _35
REMARK   17  A    between atoms: _36  and  _38
REMARK                            x       y       z     vdW  Elec       q    Type
REMARK                         _______ _______ _______ _____ _____    ______ ____
ROOT
ATOM      1  C   UNL     1       2.675   2.682  32.630  0.00  0.00    +0.163 C 
ENDROOT
BRANCH   1   2
ATOM      2  O   UNL     1       2.211   1.642  33.507  0.00  0.00    -0.388 OA
ATOM      3  H   UNL     1       1.878   2.032  34.319  0.00  0.00    +0.210 HD
ENDBRANCH   1   2
BRANCH   1   4
ATOM      4  C   UNL     1       3.229   2.073  31.346  0.00  0.00    +0.141 C 
BRANCH   4   7
ATOM      5  C   UNL     1       1.804   2.758  29.447  0.00  0.00    +0.401 C 
ATOM      6  O   UNL     1       0.928   1.921  29.681  0.00  0.00    -0.226 OA
ATOM      7  N   UNL     1       2.916   2.894  30.171  0.00  0.00    -0.279 N 
ATOM      8  H   UNL     1       3.580   3.604  29.894  0.00  0.00    +0.152 HD
BRANCH   5   9
ATOM      9  O   UNL     1       1.640   3.642  28.336  0.00  0.00    -0.444 OA
BRANCH   9  10
ATOM     10  C   UNL     1       1.797   2.911  27.117  0.00  0.00    +0.292 C 
BRANCH  10  12
ATOM     11  N   UNL     1       0.489   4.735  26.067  0.00  0.00    -0.131 NA
ATOM     12  C   UNL     1       1.444   3.759  25.960  0.00  0.00    +0.120 A 
ATOM     13  C   UNL     1       1.964   3.776  24.685  0.00  0.00    +0.137 A 
ATOM     14  N   UNL     1       1.325   4.821  24.082  0.00  0.00    -0.247 N 
ATOM     15  N   UNL     1       0.429   5.385  24.914  0.00  0.00    -0.065 NA
BRANCH  14  16
ATOM     16  C   UNL     1       1.677   5.473  22.833  0.00  0.00    +0.180 C 
BRANCH  16  17
ATOM     17  C   UNL     1       1.103   4.790  21.616  0.00  0.00    -0.025 A 
ATOM     18  C   UNL     1      -0.239   4.977  21.251  0.00  0.00    +0.005 A 
ATOM     19  C   UNL     1      -0.741   4.414  20.073  0.00  0.00    +0.001 A 
ATOM     20  C   UNL     1       0.092   3.660  19.248  0.00  0.00    +0.015 A 
ATOM     21  C   UNL     1       1.420   3.462  19.609  0.00  0.00    +0.018 A 
ATOM     22 BR   UNL     1       2.556   2.448  18.487  0.00  0.00    -0.050 Br
ATOM     23  C   UNL     1       1.930   4.020  20.783  0.00  0.00    +0.020 A 
ENDBRANCH  16  17
ENDBRANCH  14  16
ENDBRANCH  10  12
ENDBRANCH   9  10
ENDBRANCH   5   9
ENDBRANCH   4   7
ENDBRANCH   1   4
BRANCH   1  24
ATOM     24  C   UNL     1       3.764   3.529  33.309  0.00  0.00    +0.175 C 
BRANCH  24  25
ATOM     25  C   UNL     1       3.444   3.806  34.785  0.00  0.00    +0.176 C 
ATOM     26  O   UNL     1       2.011   4.025  34.898  0.00  0.00    -0.332 OA
ATOM     27  C   UNL     1       1.502   4.202  36.262  0.00  0.00    +0.277 C 
ATOM     28  C   UNL     1       2.264   5.344  36.979  0.00  0.00    +0.110 C 
ATOM     29  C   UNL     1       3.793   5.172  36.859  0.00  0.00    +0.143 C 
ATOM     30  C   UNL     1       4.211   4.992  35.399  0.00  0.00    +0.133 C 
BRANCH  30  31
ATOM     31  N   UNL     1       5.658   4.743  35.305  0.00  0.00    -0.308 N 
ATOM     32  H   UNL     1       6.005   3.850  35.625  0.00  0.00    +0.149 HD
ATOM     33  C   UNL     1       6.544   5.620  34.824  0.00  0.00    +0.210 C 
ATOM     34  C   UNL     1       5.987   6.982  34.368  0.00  0.00    +0.109 C 
ATOM     35  O   UNL     1       7.748   5.378  34.743  0.00  0.00    -0.276 OA
ENDBRANCH  30  31
BRANCH  27  36
ATOM     36  C   UNL     1       1.646   2.898  37.073  0.00  0.00    +0.414 C 
ATOM     37  O   UNL     1       1.748   1.816  36.495  0.00  0.00    -0.240 OA
ATOM     38  O   UNL     1       1.659   2.927  38.304  0.00  0.00    -0.240 OA
ENDBRANCH  27  36
BRANCH  27  39
ATOM     39  O   UNL     1       0.102   4.571  36.174  0.00  0.00    -0.343 OA
ATOM     40  C   UNL     1      -0.619   3.977  35.065  0.00  0.00    +0.198 C 
ENDBRANCH  27  39
BRANCH  29  41
ATOM     41  O   UNL     1       4.450   6.319  37.399  0.00  0.00    -0.390 OA
ATOM     42  H   UNL     1       4.794   6.110  38.271  0.00  0.00    +0.210 HD
ENDBRANCH  29  41
ENDBRANCH  24  25
BRANCH  24  43
ATOM     43  O   UNL     1       3.944   4.769  32.598  0.00  0.00    -0.387 OA
ATOM     44  H   UNL     1       4.118   4.586  31.672  0.00  0.00    +0.210 HD
ENDBRANCH  24  43
ENDBRANCH   1  24
TORSDOF 15
