REMARK VINA RESULT:    -5.028     18.322     21.740
REMARK INTER + INTRA:         -12.964
REMARK INTER:                  -9.583
REMARK INTRA:                  -3.380
REMARK UNBOUND:                -3.380
REMARK  Name = lig_assembled_62.pdb
REMARK  20 active torsions:
REMARK  status: ('A' for Active; 'I' for Inactive)
REMARK    1  A    between atoms: _2  and  _10
REMARK    2  A    between atoms: _5  and  _19
REMARK    3  A    between atoms: _6  and  _10
REMARK    4  A    between atoms: _7  and  _8
REMARK    5  A    between atoms: _7  and  _19
REMARK    6  A    between atoms: _10  and  _11
REMARK    7  A    between atoms: _11  and  _14
REMARK    8  A    between atoms: _12  and  _14
REMARK    9  A    between atoms: _15  and  _35
REMARK   10  A    between atoms: _17  and  _23
REMARK   11  A    between atoms: _18  and  _22
REMARK   12  A    between atoms: _22  and  _23
REMARK   13  A    between atoms: _25  and  _26
REMARK   14  A    between atoms: _27  and  _28
REMARK   15  A    between atoms: _29  and  _31
REMARK   16  A    between atoms: _31  and  _32
REMARK   17  A    between atoms: _31  and  _33
REMARK   18  A    between atoms: _33  and  _34
REMARK   19  A    between atoms: _33  and  _35
REMARK   20  A    between atoms: _36  and  _38
REMARK                            x       y       z     vdW  Elec       q    Type
REMARK                         _______ _______ _______ _____ _____    ______ ____
ROOT
ATOM      1  C   UNL     1       3.324   5.574  37.842  0.00  0.00    +0.163 C 
ENDROOT
BRANCH   1   2
ATOM      2  O   UNL     1       3.008   6.219  36.598  0.00  0.00    -0.388 OA
ATOM      3  H   UNL     1       2.318   6.872  36.741  0.00  0.00    +0.210 HD
ENDBRANCH   1   2
BRANCH   1   4
ATOM      4  C   UNL     1       4.602   6.166  38.460  0.00  0.00    +0.175 C 
BRANCH   4   5
ATOM      5  C   UNL     1       5.729   6.313  37.427  0.00  0.00    +0.176 C 
ATOM      6  O   UNL     1       5.633   5.197  36.500  0.00  0.00    -0.332 OA
ATOM      7  C   UNL     1       6.571   5.227  35.374  0.00  0.00    +0.277 C 
ATOM      8  C   UNL     1       8.027   5.359  35.885  0.00  0.00    +0.110 C 
ATOM      9  C   UNL     1       8.171   6.514  36.899  0.00  0.00    +0.143 C 
ATOM     10  C   UNL     1       7.146   6.386  38.026  0.00  0.00    +0.133 C 
BRANCH  10  11
ATOM     11  N   UNL     1       7.236   7.537  38.938  0.00  0.00    -0.308 N 
ATOM     12  H   UNL     1       6.921   8.434  38.597  0.00  0.00    +0.149 HD
ATOM     13  C   UNL     1       7.707   7.474  40.186  0.00  0.00    +0.210 C 
ATOM     14  C   UNL     1       8.203   6.097  40.667  0.00  0.00    +0.109 C 
ATOM     15  O   UNL     1       7.756   8.452  40.932  0.00  0.00    -0.276 OA
ENDBRANCH  10  11
BRANCH   7  16
ATOM     16  C   UNL     1       6.249   6.400  34.425  0.00  0.00    +0.414 C 
ATOM     17  O   UNL     1       5.082   6.660  34.135  0.00  0.00    -0.240 OA
ATOM     18  O   UNL     1       7.155   7.085  33.949  0.00  0.00    -0.240 OA
ENDBRANCH   7  16
BRANCH   7  19
ATOM     19  O   UNL     1       6.451   3.971  34.656  0.00  0.00    -0.343 OA
ATOM     20  C   UNL     1       7.552   3.669  33.763  0.00  0.00    +0.198 C 
ENDBRANCH   7  19
BRANCH   9  21
ATOM     21  O   UNL     1       9.486   6.504  37.455  0.00  0.00    -0.390 OA
ATOM     22  H   UNL     1       9.918   5.674  37.243  0.00  0.00    +0.210 HD
ENDBRANCH   9  21
ENDBRANCH   4   5
BRANCH   4  23
ATOM     23  O   UNL     1       5.043   5.352  39.565  0.00  0.00    -0.387 OA
ATOM     24  H   UNL     1       5.062   5.881  40.366  0.00  0.00    +0.210 HD
ENDBRANCH   4  23
ENDBRANCH   1   4
BRANCH   1  25
ATOM     25  C   UNL     1       2.164   5.731  38.821  0.00  0.00    +0.141 C 
BRANCH  25  28
ATOM     26  C   UNL     1       2.015   7.037  40.913  0.00  0.00    +0.401 C 
ATOM     27  O   UNL     1       1.643   6.079  41.595  0.00  0.00    -0.226 OA
ATOM     28  N   UNL     1       2.275   6.966  39.607  0.00  0.00    -0.279 N 
ATOM     29  H   UNL     1       2.566   7.809  39.132  0.00  0.00    +0.152 HD
BRANCH  26  30
ATOM     30  O   UNL     1       2.180   8.312  41.538  0.00  0.00    -0.444 OA
BRANCH  30  31
ATOM     31  C   UNL     1       2.537   9.285  40.553  0.00  0.00    +0.292 C 
BRANCH  31  33
ATOM     32  N   UNL     1       4.173  11.128  40.315  0.00  0.00    -0.131 NA
ATOM     33  C   UNL     1       3.473  10.272  41.122  0.00  0.00    +0.120 A 
ATOM     34  C   UNL     1       3.806  10.521  42.435  0.00  0.00    +0.138 A 
ATOM     35  N   UNL     1       4.724  11.528  42.362  0.00  0.00    -0.237 N 
ATOM     36  N   UNL     1       4.935  11.895  41.083  0.00  0.00    -0.065 NA
BRANCH  35  37
ATOM     37  C   UNL     1       5.422  12.224  43.429  0.00  0.00    +0.219 C 
BRANCH  37  38
ATOM     38  C   UNL     1       6.908  12.312  43.119  0.00  0.00    +0.237 C 
ATOM     39  O   UNL     1       7.620  13.271  43.406  0.00  0.00    -0.274 OA
ATOM     40  N   UNL     1       7.467  11.206  42.537  0.00  0.00    -0.328 N 
ATOM     41  H   UNL     1       6.961  10.348  42.357  0.00  0.00    +0.145 HD
ATOM     42  H   UNL     1       8.458  11.234  42.328  0.00  0.00    +0.145 HD
ENDBRANCH  37  38
BRANCH  37  43
ATOM     43  C   UNL     1       5.184  11.534  44.771  0.00  0.00    +0.195 C 
BRANCH  43  44
ATOM     44  O   UNL     1       6.305  10.693  45.079  0.00  0.00    -0.380 OA
ATOM     45  C   UNL     1       5.892   9.400  45.504  0.00  0.00    +0.194 C 
ENDBRANCH  43  44
ENDBRANCH  37  43
ENDBRANCH  35  37
ENDBRANCH  31  33
ENDBRANCH  30  31
ENDBRANCH  26  30
ENDBRANCH  25  28
ENDBRANCH   1  25
TORSDOF 17
