REMARK VINA RESULT:    -6.263      3.371      9.366
REMARK INTER + INTRA:         -13.140
REMARK INTER:                 -10.891
REMARK INTRA:                  -2.249
REMARK UNBOUND:                -1.933
REMARK  Name = lig_assembled_39.pdb
REMARK  17 active torsions:
REMARK  status: ('A' for Active; 'I' for Inactive)
REMARK    1  A    between atoms: _2  and  _9
REMARK    2  A    between atoms: _4  and  _19
REMARK    3  A    between atoms: _6  and  _7
REMARK    4  A    between atoms: _6  and  _19
REMARK    5  A    between atoms: _9  and  _10
REMARK    6  A    between atoms: _15  and  _35
REMARK    7  A    between atoms: _17  and  _23
REMARK    8  A    between atoms: _18  and  _22
REMARK    9  A    between atoms: _22  and  _23
REMARK   10  A    between atoms: _25  and  _26
REMARK   11  A    between atoms: _27  and  _28
REMARK   12  A    between atoms: _29  and  _31
REMARK   13  A    between atoms: _31  and  _32
REMARK   14  A    between atoms: _31  and  _33
REMARK   15  A    between atoms: _33  and  _34
REMARK   16  A    between atoms: _33  and  _35
REMARK   17  A    between atoms: _36  and  _38
REMARK                            x       y       z     vdW  Elec       q    Type
REMARK                         _______ _______ _______ _____ _____    ______ ____
ROOT
ATOM      1  C   UNL     1      17.538   4.569  23.417  0.00  0.00    +0.163 C 
ENDROOT
BRANCH   1   2
ATOM      2  O   UNL     1      16.672   4.305  22.301  0.00  0.00    -0.388 OA
ATOM      3  H   UNL     1      15.924   3.779  22.593  0.00  0.00    +0.210 HD
ENDBRANCH   1   2
BRANCH   1   4
ATOM      4  C   UNL     1      18.272   5.890  23.207  0.00  0.00    +0.141 C 
BRANCH   4   7
ATOM      5  C   UNL     1      18.894   7.089  25.276  0.00  0.00    +0.401 C 
ATOM      6  O   UNL     1      19.999   6.549  25.369  0.00  0.00    -0.226 OA
ATOM      7  N   UNL     1      18.020   6.836  24.301  0.00  0.00    -0.279 N 
ATOM      8  H   UNL     1      17.135   7.323  24.315  0.00  0.00    +0.152 HD
BRANCH   5   9
ATOM      9  O   UNL     1      18.503   8.046  26.264  0.00  0.00    -0.444 OA
BRANCH   9  10
ATOM     10  C   UNL     1      19.608   8.315  27.132  0.00  0.00    +0.292 C 
BRANCH  10  12
ATOM     11  N   UNL     1      18.994   6.723  28.926  0.00  0.00    -0.131 NA
ATOM     12  C   UNL     1      19.250   8.010  28.529  0.00  0.00    +0.120 A 
ATOM     13  C   UNL     1      19.134   8.848  29.616  0.00  0.00    +0.137 A 
ATOM     14  N   UNL     1      18.886   8.000  30.655  0.00  0.00    -0.247 N 
ATOM     15  N   UNL     1      18.742   6.733  30.227  0.00  0.00    -0.065 NA
BRANCH  14  16
ATOM     16  C   UNL     1      18.845   8.315  32.076  0.00  0.00    +0.181 C 
BRANCH  16  17
ATOM     17  C   UNL     1      17.549   8.980  32.505  0.00  0.00    -0.012 A 
ATOM     18  C   UNL     1      17.402  10.381  32.458  0.00  0.00    +0.006 A 
ATOM     19  C   UNL     1      16.217  11.006  32.855  0.00  0.00    +0.000 A 
ATOM     20  C   UNL     1      15.157  10.247  33.332  0.00  0.00    +0.001 A 
ATOM     21  C   UNL     1      15.289   8.864  33.431  0.00  0.00    +0.015 A 
ATOM     22  C   UNL     1      16.478   8.235  33.033  0.00  0.00    +0.023 A 
ATOM     23 BR   UNL     1      16.563   6.349  33.268  0.00  0.00    -0.050 Br
ENDBRANCH  16  17
ENDBRANCH  14  16
ENDBRANCH  10  12
ENDBRANCH   9  10
ENDBRANCH   5   9
ENDBRANCH   4   7
ENDBRANCH   1   4
BRANCH   1  24
ATOM     24  C   UNL     1      18.562   3.436  23.599  0.00  0.00    +0.175 C 
BRANCH  24  25
ATOM     25  C   UNL     1      17.922   2.167  24.181  0.00  0.00    +0.176 C 
ATOM     26  O   UNL     1      18.558   1.892  25.459  0.00  0.00    -0.332 OA
ATOM     27  C   UNL     1      17.998   0.768  26.216  0.00  0.00    +0.277 C 
ATOM     28  C   UNL     1      17.987  -0.516  25.351  0.00  0.00    +0.110 C 
ATOM     29  C   UNL     1      17.349  -0.265  23.968  0.00  0.00    +0.143 C 
ATOM     30  C   UNL     1      18.004   0.928  23.270  0.00  0.00    +0.133 C 
BRANCH  30  31
ATOM     31  N   UNL     1      17.330   1.211  21.993  0.00  0.00    -0.308 N 
ATOM     32  H   UNL     1      16.336   1.390  22.014  0.00  0.00    +0.149 HD
ATOM     33  C   UNL     1      17.947   1.246  20.808  0.00  0.00    +0.210 C 
ATOM     34  C   UNL     1      19.457   0.943  20.807  0.00  0.00    +0.109 C 
ATOM     35  O   UNL     1      17.359   1.501  19.756  0.00  0.00    -0.276 OA
ENDBRANCH  30  31
BRANCH  27  36
ATOM     36  C   UNL     1      16.564   1.085  26.687  0.00  0.00    +0.414 C 
ATOM     37  O   UNL     1      16.221   2.249  26.892  0.00  0.00    -0.240 OA
ATOM     38  O   UNL     1      15.749   0.178  26.861  0.00  0.00    -0.240 OA
ENDBRANCH  27  36
BRANCH  27  39
ATOM     39  O   UNL     1      18.849   0.535  27.368  0.00  0.00    -0.343 OA
ATOM     40  C   UNL     1      20.149   1.176  27.309  0.00  0.00    +0.198 C 
ENDBRANCH  27  39
BRANCH  29  41
ATOM     41  O   UNL     1      17.496  -1.427  23.151  0.00  0.00    -0.390 OA
ATOM     42  H   UNL     1      18.368  -1.429  22.751  0.00  0.00    +0.210 HD
ENDBRANCH  29  41
ENDBRANCH  24  25
BRANCH  24  43
ATOM     43  O   UNL     1      19.646   3.876  24.440  0.00  0.00    -0.387 OA
ATOM     44  H   UNL     1      19.423   4.723  24.834  0.00  0.00    +0.210 HD
ENDBRANCH  24  43
ENDBRANCH   1  24
TORSDOF 15
