REMARK VINA RESULT:    -6.148      5.284      7.919
REMARK INTER + INTRA:         -12.905
REMARK INTER:                 -10.580
REMARK INTRA:                  -2.325
REMARK UNBOUND:                -1.905
REMARK  Name = lig_assembled_38.pdb
REMARK  17 active torsions:
REMARK  status: ('A' for Active; 'I' for Inactive)
REMARK    1  A    between atoms: _2  and  _9
REMARK    2  A    between atoms: _4  and  _19
REMARK    3  A    between atoms: _6  and  _7
REMARK    4  A    between atoms: _6  and  _19
REMARK    5  A    between atoms: _9  and  _10
REMARK    6  A    between atoms: _15  and  _35
REMARK    7  A    between atoms: _17  and  _23
REMARK    8  A    between atoms: _18  and  _22
REMARK    9  A    between atoms: _22  and  _23
REMARK   10  A    between atoms: _25  and  _26
REMARK   11  A    between atoms: _27  and  _28
REMARK   12  A    between atoms: _29  and  _31
REMARK   13  A    between atoms: _31  and  _32
REMARK   14  A    between atoms: _31  and  _33
REMARK   15  A    between atoms: _33  and  _34
REMARK   16  A    between atoms: _33  and  _35
REMARK   17  A    between atoms: _36  and  _38
REMARK                            x       y       z     vdW  Elec       q    Type
REMARK                         _______ _______ _______ _____ _____    ______ ____
ROOT
ATOM      1  C   UNL     1      -1.125   3.363  31.467  0.00  0.00    +0.163 C 
ENDROOT
BRANCH   1   2
ATOM      2  O   UNL     1      -1.474   2.792  32.739  0.00  0.00    -0.388 OA
ATOM      3  H   UNL     1      -2.429   2.792  32.839  0.00  0.00    +0.210 HD
ENDBRANCH   1   2
BRANCH   1   4
ATOM      4  C   UNL     1       0.255   2.875  31.037  0.00  0.00    +0.141 C 
BRANCH   4   7
ATOM      5  C   UNL     1       0.120   1.960  28.746  0.00  0.00    +0.401 C 
ATOM      6  O   UNL     1      -0.341   0.874  29.105  0.00  0.00    -0.226 OA
ATOM      7  N   UNL     1       0.433   2.950  29.582  0.00  0.00    -0.279 N 
ATOM      8  H   UNL     1       0.815   3.801  29.192  0.00  0.00    +0.152 HD
BRANCH   5   9
ATOM      9  O   UNL     1       0.345   2.192  27.353  0.00  0.00    -0.444 OA
BRANCH   9  10
ATOM     10  C   UNL     1       1.308   3.236  27.192  0.00  0.00    +0.292 C 
BRANCH  10  12
ATOM     11  N   UNL     1       0.070   4.925  25.869  0.00  0.00    -0.131 NA
ATOM     12  C   UNL     1       1.058   3.979  25.941  0.00  0.00    +0.120 A 
ATOM     13  C   UNL     1       1.711   3.918  24.730  0.00  0.00    +0.137 A 
ATOM     14  N   UNL     1       1.112   4.890  23.982  0.00  0.00    -0.247 N 
ATOM     15  N   UNL     1       0.116   5.483  24.667  0.00  0.00    -0.065 NA
BRANCH  14  16
ATOM     16  C   UNL     1       1.577   5.457  22.729  0.00  0.00    +0.180 C 
BRANCH  16  17
ATOM     17  C   UNL     1       1.139   4.675  21.515  0.00  0.00    -0.025 A 
ATOM     18  C   UNL     1       2.032   3.823  20.846  0.00  0.00    +0.005 A 
ATOM     19  C   UNL     1       1.595   3.032  19.778  0.00  0.00    +0.001 A 
ATOM     20  C   UNL     1       0.264   3.084  19.367  0.00  0.00    +0.015 A 
ATOM     21  C   UNL     1      -0.624   3.933  20.019  0.00  0.00    +0.018 A 
ATOM     22 BR   UNL     1      -2.432   3.999  19.471  0.00  0.00    -0.050 Br
ATOM     23  C   UNL     1      -0.197   4.726  21.087  0.00  0.00    +0.020 A 
ENDBRANCH  16  17
ENDBRANCH  14  16
ENDBRANCH  10  12
ENDBRANCH   9  10
ENDBRANCH   5   9
ENDBRANCH   4   7
ENDBRANCH   1   4
BRANCH   1  24
ATOM     24  C   UNL     1      -1.129   4.900  31.533  0.00  0.00    +0.175 C 
BRANCH  24  25
ATOM     25  C   UNL     1      -2.550   5.470  31.643  0.00  0.00    +0.176 C 
ATOM     26  O   UNL     1      -2.987   5.319  33.022  0.00  0.00    -0.332 OA
ATOM     27  C   UNL     1      -4.291   5.907  33.342  0.00  0.00    +0.277 C 
ATOM     28  C   UNL     1      -5.380   5.363  32.385  0.00  0.00    +0.110 C 
ATOM     29  C   UNL     1      -4.947   5.473  30.908  0.00  0.00    +0.143 C 
ATOM     30  C   UNL     1      -3.576   4.832  30.689  0.00  0.00    +0.133 C 
BRANCH  30  31
ATOM     31  N   UNL     1      -3.136   5.019  29.297  0.00  0.00    -0.308 N 
ATOM     32  H   UNL     1      -2.873   5.951  29.007  0.00  0.00    +0.149 HD
ATOM     33  C   UNL     1      -3.062   4.039  28.392  0.00  0.00    +0.210 C 
ATOM     34  C   UNL     1      -3.495   2.636  28.858  0.00  0.00    +0.109 C 
ATOM     35  O   UNL     1      -2.675   4.223  27.238  0.00  0.00    -0.276 OA
ENDBRANCH  30  31
BRANCH  27  36
ATOM     36  C   UNL     1      -4.237   7.446  33.239  0.00  0.00    +0.414 C 
ATOM     37  O   UNL     1      -5.265   8.090  33.034  0.00  0.00    -0.240 OA
ATOM     38  O   UNL     1      -3.167   8.042  33.360  0.00  0.00    -0.240 OA
ENDBRANCH  27  36
BRANCH  27  39
ATOM     39  O   UNL     1      -4.638   5.521  34.697  0.00  0.00    -0.343 OA
ATOM     40  C   UNL     1      -3.516   5.136  35.530  0.00  0.00    +0.198 C 
ENDBRANCH  27  39
BRANCH  29  41
ATOM     41  O   UNL     1      -5.909   4.824  30.074  0.00  0.00    -0.390 OA
ATOM     42  H   UNL     1      -6.640   5.423  29.903  0.00  0.00    +0.210 HD
ENDBRANCH  29  41
ENDBRANCH  24  25
BRANCH  24  43
ATOM     43  O   UNL     1      -0.461   5.448  30.379  0.00  0.00    -0.387 OA
ATOM     44  H   UNL     1      -0.882   5.122  29.581  0.00  0.00    +0.210 HD
ENDBRANCH  24  43
ENDBRANCH   1  24
TORSDOF 15
