REMARK VINA RESULT:    -6.176      1.743      2.397
REMARK INTER + INTRA:         -13.561
REMARK INTER:                 -12.121
REMARK INTRA:                  -1.440
REMARK UNBOUND:                -2.511
REMARK  Name = lig_assembled_6.pdb
REMARK  17 active torsions:
REMARK  status: ('A' for Active; 'I' for Inactive)
REMARK    1  A    between atoms: _2  and  _10
REMARK    2  A    between atoms: _3  and  _13
REMARK    3  A    between atoms: _5  and  _21
REMARK    4  A    between atoms: _7  and  _8
REMARK    5  A    between atoms: _7  and  _21
REMARK    6  A    between atoms: _17  and  _37
REMARK    7  A    between atoms: _19  and  _25
REMARK    8  A    between atoms: _20  and  _24
REMARK    9  A    between atoms: _24  and  _25
REMARK   10  A    between atoms: _27  and  _28
REMARK   11  A    between atoms: _29  and  _30
REMARK   12  A    between atoms: _31  and  _33
REMARK   13  A    between atoms: _33  and  _34
REMARK   14  A    between atoms: _33  and  _35
REMARK   15  A    between atoms: _35  and  _36
REMARK   16  A    between atoms: _35  and  _37
REMARK   17  A    between atoms: _38  and  _40
REMARK                            x       y       z     vdW  Elec       q    Type
REMARK                         _______ _______ _______ _____ _____    ______ ____
ROOT
ATOM      1  C   UNL     1       6.524   2.520  33.397  0.00  0.00    +0.163 C 
ENDROOT
BRANCH   1   2
ATOM      2  O   UNL     1       6.692   1.693  32.234  0.00  0.00    -0.388 OA
ATOM      3  H   UNL     1       6.915   0.799  32.505  0.00  0.00    +0.210 HD
ENDBRANCH   1   2
BRANCH   1   4
ATOM      4  C   UNL     1       5.259   3.361  33.262  0.00  0.00    +0.141 C 
BRANCH   4   7
ATOM      5  C   UNL     1       3.430   2.912  31.662  0.00  0.00    +0.401 C 
ATOM      6  O   UNL     1       2.618   2.596  32.535  0.00  0.00    -0.226 OA
ATOM      7  N   UNL     1       4.688   3.276  31.912  0.00  0.00    -0.279 N 
ATOM      8  H   UNL     1       5.282   3.508  31.128  0.00  0.00    +0.152 HD
BRANCH   5   9
ATOM      9  O   UNL     1       3.021   2.888  30.292  0.00  0.00    -0.444 OA
BRANCH   9  10
ATOM     10  C   UNL     1       1.597   2.995  30.217  0.00  0.00    +0.292 C 
BRANCH  10  12
ATOM     11  N   UNL     1       0.070   4.003  28.549  0.00  0.00    -0.131 NA
ATOM     12  C   UNL     1       1.175   3.252  28.827  0.00  0.00    +0.121 A 
ATOM     13  C   UNL     1       1.749   2.844  27.645  0.00  0.00    +0.143 A 
ATOM     14  N   UNL     1       0.969   3.403  26.659  0.00  0.00    -0.220 N 
ATOM     15  N   UNL     1      -0.053   4.085  27.231  0.00  0.00    -0.060 NA
BRANCH  14  16
ATOM     16  C   UNL     1       1.152   3.363  25.251  0.00  0.00    +0.067 A 
ATOM     17  C   UNL     1       0.950   2.172  24.537  0.00  0.00    +0.034 A 
ATOM     18  C   UNL     1       1.193   2.129  23.160  0.00  0.00    +0.086 A 
ATOM     19  C   UNL     1       1.637   3.279  22.495  0.00  0.00    +0.273 A 
ATOM     20  C   UNL     1       1.817   4.478  23.194  0.00  0.00    +0.086 A 
ATOM     21  C   UNL     1       1.572   4.518  24.571  0.00  0.00    +0.034 A 
BRANCH  19  22
ATOM     22  N   UNL     1       1.932   3.216  21.058  0.00  0.00    +0.080 N 
ATOM     23  O   UNL     1       1.863   4.270  20.409  0.00  0.00    +0.041 OA
ATOM     24  O   UNL     1       2.226   2.112  20.577  0.00  0.00    -0.576 OA
ENDBRANCH  19  22
ENDBRANCH  14  16
ENDBRANCH  10  12
ENDBRANCH   9  10
ENDBRANCH   5   9
ENDBRANCH   4   7
ENDBRANCH   1   4
BRANCH   1  25
ATOM     25  C   UNL     1       7.738   3.445  33.594  0.00  0.00    +0.175 C 
BRANCH  25  26
ATOM     26  C   UNL     1       7.762   4.077  34.994  0.00  0.00    +0.176 C 
ATOM     27  O   UNL     1       7.684   5.520  34.834  0.00  0.00    -0.332 OA
ATOM     28  C   UNL     1       7.588   6.291  36.078  0.00  0.00    +0.277 C 
ATOM     29  C   UNL     1       8.756   5.932  37.028  0.00  0.00    +0.110 C 
ATOM     30  C   UNL     1       8.899   4.405  37.204  0.00  0.00    +0.143 C 
ATOM     31  C   UNL     1       8.987   3.703  35.848  0.00  0.00    +0.133 C 
BRANCH  31  32
ATOM     32  N   UNL     1       9.035   2.243  36.026  0.00  0.00    -0.308 N 
ATOM     33  H   UNL     1       8.216   1.787  36.403  0.00  0.00    +0.149 HD
ATOM     34  C   UNL     1      10.090   1.482  35.723  0.00  0.00    +0.210 C 
ATOM     35  C   UNL     1      11.332   2.211  35.175  0.00  0.00    +0.109 C 
ATOM     36  O   UNL     1      10.097   0.259  35.869  0.00  0.00    -0.276 OA
ENDBRANCH  31  32
BRANCH  28  37
ATOM     37  C   UNL     1       6.244   6.020  36.787  0.00  0.00    +0.414 C 
ATOM     38  O   UNL     1       6.120   6.253  37.988  0.00  0.00    -0.240 OA
ATOM     39  O   UNL     1       5.286   5.570  36.157  0.00  0.00    -0.240 OA
ENDBRANCH  28  37
BRANCH  30  40
ATOM     40  O   UNL     1      10.074   4.115  37.961  0.00  0.00    -0.390 OA
ATOM     41  H   UNL     1      10.852   4.281  37.423  0.00  0.00    +0.210 HD
ENDBRANCH  30  40
BRANCH  28  42
ATOM     42  O   UNL     1       7.688   7.699  35.742  0.00  0.00    -0.343 OA
ATOM     43  C   UNL     1       7.251   8.041  34.402  0.00  0.00    +0.198 C 
ENDBRANCH  28  42
ENDBRANCH  25  26
BRANCH  25  44
ATOM     44  O   UNL     1       7.747   4.474  32.584  0.00  0.00    -0.387 OA
ATOM     45  H   UNL     1       7.263   4.170  31.813  0.00  0.00    +0.210 HD
ENDBRANCH  25  44
ENDBRANCH   1  25
TORSDOF 15
