REMARK VINA RESULT:    -6.002      3.387      5.960
REMARK INTER + INTRA:         -12.644
REMARK INTER:                 -10.739
REMARK INTRA:                  -1.905
REMARK UNBOUND:                -1.905
REMARK  Name = lig_assembled_38.pdb
REMARK  17 active torsions:
REMARK  status: ('A' for Active; 'I' for Inactive)
REMARK    1  A    between atoms: _2  and  _9
REMARK    2  A    between atoms: _4  and  _19
REMARK    3  A    between atoms: _6  and  _7
REMARK    4  A    between atoms: _6  and  _19
REMARK    5  A    between atoms: _9  and  _10
REMARK    6  A    between atoms: _15  and  _35
REMARK    7  A    between atoms: _17  and  _23
REMARK    8  A    between atoms: _18  and  _22
REMARK    9  A    between atoms: _22  and  _23
REMARK   10  A    between atoms: _25  and  _26
REMARK   11  A    between atoms: _27  and  _28
REMARK   12  A    between atoms: _29  and  _31
REMARK   13  A    between atoms: _31  and  _32
REMARK   14  A    between atoms: _31  and  _33
REMARK   15  A    between atoms: _33  and  _34
REMARK   16  A    between atoms: _33  and  _35
REMARK   17  A    between atoms: _36  and  _38
REMARK                            x       y       z     vdW  Elec       q    Type
REMARK                         _______ _______ _______ _____ _____    ______ ____
ROOT
ATOM      1  C   UNL     1       7.511   2.358  34.285  0.00  0.00    +0.163 C 
ENDROOT
BRANCH   1   2
ATOM      2  O   UNL     1       8.020   2.398  35.628  0.00  0.00    -0.388 OA
ATOM      3  H   UNL     1       7.773   1.593  36.089  0.00  0.00    +0.210 HD
ENDBRANCH   1   2
BRANCH   1   4
ATOM      4  C   UNL     1       8.164   1.216  33.514  0.00  0.00    +0.141 C 
BRANCH   4   7
ATOM      5  C   UNL     1       6.211   0.199  32.393  0.00  0.00    +0.401 C 
ATOM      6  O   UNL     1       5.953   1.203  31.725  0.00  0.00    -0.226 OA
ATOM      7  N   UNL     1       7.222   0.119  33.259  0.00  0.00    -0.279 N 
ATOM      8  H   UNL     1       7.347  -0.745  33.768  0.00  0.00    +0.152 HD
BRANCH   5   9
ATOM      9  O   UNL     1       5.386  -0.960  32.250  0.00  0.00    -0.444 OA
BRANCH   9  10
ATOM     10  C   UNL     1       4.010  -0.571  32.250  0.00  0.00    +0.292 C 
BRANCH  10  12
ATOM     11  N   UNL     1       4.143  -1.071  29.827  0.00  0.00    -0.131 NA
ATOM     12  C   UNL     1       3.514  -0.437  30.866  0.00  0.00    +0.120 A 
ATOM     13  C   UNL     1       2.417   0.241  30.381  0.00  0.00    +0.137 A 
ATOM     14  N   UNL     1       2.401  -0.065  29.051  0.00  0.00    -0.247 N 
ATOM     15  N   UNL     1       3.449  -0.843  28.721  0.00  0.00    -0.065 NA
BRANCH  14  16
ATOM     16  C   UNL     1       1.318   0.143  28.107  0.00  0.00    +0.180 C 
BRANCH  16  17
ATOM     17  C   UNL     1       1.570   1.277  27.143  0.00  0.00    -0.025 A 
ATOM     18  C   UNL     1       1.771   2.587  27.609  0.00  0.00    +0.005 A 
ATOM     19  C   UNL     1       2.094   3.616  26.718  0.00  0.00    +0.001 A 
ATOM     20  C   UNL     1       2.219   3.350  25.356  0.00  0.00    +0.015 A 
ATOM     21  C   UNL     1       2.012   2.057  24.887  0.00  0.00    +0.018 A 
ATOM     22 BR   UNL     1       2.191   1.689  23.041  0.00  0.00    -0.050 Br
ATOM     23  C   UNL     1       1.689   1.023  25.768  0.00  0.00    +0.020 A 
ENDBRANCH  16  17
ENDBRANCH  14  16
ENDBRANCH  10  12
ENDBRANCH   9  10
ENDBRANCH   5   9
ENDBRANCH   4   7
ENDBRANCH   1   4
BRANCH   1  24
ATOM     24  C   UNL     1       7.776   3.687  33.557  0.00  0.00    +0.175 C 
BRANCH  24  25
ATOM     25  C   UNL     1       7.123   4.879  34.273  0.00  0.00    +0.176 C 
ATOM     26  O   UNL     1       7.858   5.118  35.504  0.00  0.00    -0.332 OA
ATOM     27  C   UNL     1       7.440   6.293  36.274  0.00  0.00    +0.277 C 
ATOM     28  C   UNL     1       5.923   6.231  36.575  0.00  0.00    +0.110 C 
ATOM     29  C   UNL     1       5.101   5.947  35.300  0.00  0.00    +0.143 C 
ATOM     30  C   UNL     1       5.623   4.705  34.576  0.00  0.00    +0.133 C 
BRANCH  30  31
ATOM     31  N   UNL     1       4.889   4.495  33.318  0.00  0.00    -0.308 N 
ATOM     32  H   UNL     1       5.060   5.139  32.559  0.00  0.00    +0.149 HD
ATOM     33  C   UNL     1       4.010   3.510  33.115  0.00  0.00    +0.210 C 
ATOM     34  C   UNL     1       3.752   2.561  34.301  0.00  0.00    +0.109 C 
ATOM     35  O   UNL     1       3.421   3.349  32.046  0.00  0.00    -0.276 OA
ENDBRANCH  30  31
BRANCH  27  36
ATOM     36  C   UNL     1       7.761   7.592  35.507  0.00  0.00    +0.414 C 
ATOM     37  O   UNL     1       6.902   8.128  34.808  0.00  0.00    -0.240 OA
ATOM     38  O   UNL     1       8.878   8.105  35.587  0.00  0.00    -0.240 OA
ENDBRANCH  27  36
BRANCH  27  39
ATOM     39  O   UNL     1       8.157   6.281  37.536  0.00  0.00    -0.343 OA
ATOM     40  C   UNL     1       8.244   4.984  38.179  0.00  0.00    +0.198 C 
ENDBRANCH  27  39
BRANCH  29  41
ATOM     41  O   UNL     1       3.729   5.748  35.645  0.00  0.00    -0.390 OA
ATOM     42  H   UNL     1       3.573   6.069  36.536  0.00  0.00    +0.210 HD
ENDBRANCH  29  41
ENDBRANCH  24  25
BRANCH  24  43
ATOM     43  O   UNL     1       7.308   3.609  32.195  0.00  0.00    -0.387 OA
ATOM     44  H   UNL     1       6.348   3.628  32.185  0.00  0.00    +0.210 HD
ENDBRANCH  24  43
ENDBRANCH   1  24
TORSDOF 15
