REMARK VINA RESULT:    -6.133      2.226      3.081
REMARK INTER + INTRA:         -14.400
REMARK INTER:                 -12.855
REMARK INTRA:                  -1.545
REMARK UNBOUND:                -1.813
REMARK  Name = lig_assembled_33.pdb
REMARK  22 active torsions:
REMARK  status: ('A' for Active; 'I' for Inactive)
REMARK    1  A    between atoms: _2  and  _9
REMARK    2  A    between atoms: _4  and  _20
REMARK    3  A    between atoms: _5  and  _13
REMARK    4  A    between atoms: _5  and  _14
REMARK    5  A    between atoms: _6  and  _7
REMARK    6  A    between atoms: _6  and  _20
REMARK    7  A    between atoms: _9  and  _10
REMARK    8  A    between atoms: _10  and  _11
REMARK    9  A    between atoms: _11  and  _12
REMARK   10  A    between atoms: _12  and  _13
REMARK   11  A    between atoms: _16  and  _36
REMARK   12  A    between atoms: _18  and  _24
REMARK   13  A    between atoms: _19  and  _23
REMARK   14  A    between atoms: _23  and  _24
REMARK   15  A    between atoms: _26  and  _27
REMARK   16  A    between atoms: _28  and  _29
REMARK   17  A    between atoms: _30  and  _32
REMARK   18  A    between atoms: _32  and  _33
REMARK   19  A    between atoms: _32  and  _34
REMARK   20  A    between atoms: _34  and  _35
REMARK   21  A    between atoms: _34  and  _36
REMARK   22  A    between atoms: _37  and  _39
REMARK                            x       y       z     vdW  Elec       q    Type
REMARK                         _______ _______ _______ _____ _____    ______ ____
ROOT
ATOM      1  C   UNL     1       6.219   2.947  32.841  0.00  0.00    +0.163 C 
ENDROOT
BRANCH   1   2
ATOM      2  O   UNL     1       6.329   2.919  31.409  0.00  0.00    -0.388 OA
ATOM      3  H   UNL     1       5.468   3.087  31.018  0.00  0.00    +0.210 HD
ENDBRANCH   1   2
BRANCH   1   4
ATOM      4  C   UNL     1       7.414   3.684  33.470  0.00  0.00    +0.175 C 
BRANCH   4   5
ATOM      5  C   UNL     1       7.096   4.204  34.880  0.00  0.00    +0.176 C 
ATOM      6  O   UNL     1       7.220   5.652  34.861  0.00  0.00    -0.332 OA
ATOM      7  C   UNL     1       6.848   6.337  36.103  0.00  0.00    +0.277 C 
ATOM      8  C   UNL     1       7.644   5.758  37.299  0.00  0.00    +0.110 C 
ATOM      9  C   UNL     1       7.568   4.217  37.342  0.00  0.00    +0.143 C 
ATOM     10  C   UNL     1       7.973   3.610  35.998  0.00  0.00    +0.133 C 
BRANCH  10  11
ATOM     11  N   UNL     1       7.813   2.148  36.025  0.00  0.00    -0.308 N 
ATOM     12  H   UNL     1       6.908   1.777  36.279  0.00  0.00    +0.149 HD
ATOM     13  C   UNL     1       8.785   1.279  35.734  0.00  0.00    +0.210 C 
ATOM     14  C   UNL     1      10.159   1.876  35.376  0.00  0.00    +0.109 C 
ATOM     15  O   UNL     1       8.618   0.059  35.750  0.00  0.00    -0.276 OA
ENDBRANCH  10  11
BRANCH   7  16
ATOM     16  C   UNL     1       5.336   6.195  36.374  0.00  0.00    +0.414 C 
ATOM     17  O   UNL     1       4.910   6.199  37.528  0.00  0.00    -0.240 OA
ATOM     18  O   UNL     1       4.543   6.077  35.439  0.00  0.00    -0.240 OA
ENDBRANCH   7  16
BRANCH   9  19
ATOM     19  O   UNL     1       8.434   3.721  38.363  0.00  0.00    -0.390 OA
ATOM     20  H   UNL     1       8.773   4.454  38.881  0.00  0.00    +0.210 HD
ENDBRANCH   9  19
BRANCH   7  21
ATOM     21  O   UNL     1       7.190   7.740  35.963  0.00  0.00    -0.343 OA
ATOM     22  C   UNL     1       7.530   8.155  34.616  0.00  0.00    +0.198 C 
ENDBRANCH   7  21
ENDBRANCH   4   5
BRANCH   4  23
ATOM     23  O   UNL     1       7.829   4.773  32.621  0.00  0.00    -0.387 OA
ATOM     24  H   UNL     1       7.151   5.454  32.619  0.00  0.00    +0.210 HD
ENDBRANCH   4  23
ENDBRANCH   1   4
BRANCH   1  25
ATOM     25  C   UNL     1       4.922   3.637  33.252  0.00  0.00    +0.141 C 
BRANCH  25  28
ATOM     26  C   UNL     1       2.619   3.671  32.357  0.00  0.00    +0.401 C 
ATOM     27  O   UNL     1       2.087   3.680  33.470  0.00  0.00    -0.226 OA
ATOM     28  N   UNL     1       3.938   3.644  32.162  0.00  0.00    -0.279 N 
ATOM     29  H   UNL     1       4.279   3.628  31.211  0.00  0.00    +0.152 HD
BRANCH  26  30
ATOM     30  O   UNL     1       1.791   3.684  31.191  0.00  0.00    -0.444 OA
BRANCH  30  31
ATOM     31  C   UNL     1       1.965   2.463  30.468  0.00  0.00    +0.292 C 
BRANCH  31  33
ATOM     32  N   UNL     1       2.280   3.897  28.477  0.00  0.00    -0.131 NA
ATOM     33  C   UNL     1       1.870   2.706  29.017  0.00  0.00    +0.120 A 
ATOM     34  C   UNL     1       1.401   1.892  28.008  0.00  0.00    +0.137 A 
ATOM     35  N   UNL     1       1.562   2.643  26.883  0.00  0.00    -0.251 N 
ATOM     36  N   UNL     1       2.072   3.852  27.169  0.00  0.00    -0.065 NA
BRANCH  35  37
ATOM     37  C   UNL     1       1.243   2.288  25.515  0.00  0.00    +0.145 C 
BRANCH  37  38
ATOM     38  C   UNL     1       2.270   2.835  24.526  0.00  0.00    +0.023 C 
BRANCH  38  39
ATOM     39  C   UNL     1       2.195   2.150  23.159  0.00  0.00    +0.002 C 
BRANCH  39  40
ATOM     40  C   UNL     1       1.469   3.056  22.162  0.00  0.00    +0.011 C 
BRANCH  40  41
ATOM     41  C   UNL     1       1.719   4.540  22.419  0.00  0.00    +0.120 C 
BRANCH  41  42
ATOM     42  C   UNL     1       0.418   5.297  22.569  0.00  0.00    +0.305 C 
ATOM     43  O   UNL     1      -0.152   5.907  21.679  0.00  0.00    -0.251 OA
BRANCH  42  44
ATOM     44  O   UNL     1      -0.077   5.228  23.827  0.00  0.00    -0.481 OA
ATOM     45  H   UNL     1      -1.047   5.154  23.866  0.00  0.00    +0.295 HD
ENDBRANCH  42  44
ENDBRANCH  41  42
ENDBRANCH  40  41
ENDBRANCH  39  40
ENDBRANCH  38  39
ENDBRANCH  37  38
ENDBRANCH  35  37
ENDBRANCH  31  33
ENDBRANCH  30  31
ENDBRANCH  26  30
ENDBRANCH  25  28
ENDBRANCH   1  25
TORSDOF 20
