REMARK VINA RESULT:    -5.811     14.973     18.366
REMARK INTER + INTRA:         -12.549
REMARK INTER:                 -10.242
REMARK INTRA:                  -2.306
REMARK UNBOUND:                -2.491
REMARK  Name = lig_assembled_57.pdb
REMARK  17 active torsions:
REMARK  status: ('A' for Active; 'I' for Inactive)
REMARK    1  A    between atoms: _2  and  _10
REMARK    2  A    between atoms: _3  and  _13
REMARK    3  A    between atoms: _5  and  _19
REMARK    4  A    between atoms: _7  and  _8
REMARK    5  A    between atoms: _7  and  _19
REMARK    6  A    between atoms: _15  and  _35
REMARK    7  A    between atoms: _17  and  _23
REMARK    8  A    between atoms: _18  and  _22
REMARK    9  A    between atoms: _22  and  _23
REMARK   10  A    between atoms: _25  and  _26
REMARK   11  A    between atoms: _27  and  _28
REMARK   12  A    between atoms: _29  and  _31
REMARK   13  A    between atoms: _31  and  _32
REMARK   14  A    between atoms: _31  and  _33
REMARK   15  A    between atoms: _33  and  _34
REMARK   16  A    between atoms: _33  and  _35
REMARK   17  A    between atoms: _36  and  _38
REMARK                            x       y       z     vdW  Elec       q    Type
REMARK                         _______ _______ _______ _____ _____    ______ ____
ROOT
ATOM      1  C   UNL     1      18.579   5.350  24.494  0.00  0.00    +0.163 C 
ENDROOT
BRANCH   1   2
ATOM      2  O   UNL     1      17.733   5.588  23.357  0.00  0.00    -0.388 OA
ATOM      3  H   UNL     1      18.158   5.249  22.565  0.00  0.00    +0.210 HD
ENDBRANCH   1   2
BRANCH   1   4
ATOM      4  C   UNL     1      19.105   6.674  25.040  0.00  0.00    +0.141 C 
BRANCH   4   7
ATOM      5  C   UNL     1      19.427   6.650  27.489  0.00  0.00    +0.401 C 
ATOM      6  O   UNL     1      20.565   6.179  27.429  0.00  0.00    -0.226 OA
ATOM      7  N   UNL     1      18.670   6.908  26.422  0.00  0.00    -0.279 N 
ATOM      8  H   UNL     1      17.745   7.285  26.574  0.00  0.00    +0.152 HD
BRANCH   5   9
ATOM      9  O   UNL     1      18.863   6.942  28.770  0.00  0.00    -0.444 OA
BRANCH   9  10
ATOM     10  C   UNL     1      19.282   8.243  29.192  0.00  0.00    +0.292 C 
BRANCH  10  12
ATOM     11  N   UNL     1      17.907   9.994  30.259  0.00  0.00    -0.131 NA
ATOM     12  C   UNL     1      18.411   8.725  30.279  0.00  0.00    +0.120 A 
ATOM     13  C   UNL     1      17.947   8.073  31.402  0.00  0.00    +0.137 A 
ATOM     14  N   UNL     1      17.095   8.967  31.978  0.00  0.00    -0.248 N 
ATOM     15  N   UNL     1      17.135  10.146  31.322  0.00  0.00    -0.065 NA
BRANCH  14  16
ATOM     16  C   UNL     1      16.158   8.821  33.086  0.00  0.00    +0.111 C 
ATOM     17  C   UNL     1      16.749   7.922  34.183  0.00  0.00    +0.042 C 
ATOM     18  C   UNL     1      17.828   8.670  34.965  0.00  0.00    +0.086 C 
ATOM     19  N   UNL     1      17.327   9.894  35.600  0.00  0.00    -0.305 NA
ATOM     20  C   UNL     1      16.674  10.794  34.648  0.00  0.00    +0.086 C 
ATOM     21  C   UNL     1      16.504   9.614  36.772  0.00  0.00    +0.104 C 
ATOM     22  C   UNL     1      15.648  10.125  33.722  0.00  0.00    +0.042 C 
ENDBRANCH  14  16
ENDBRANCH  10  12
ENDBRANCH   9  10
ENDBRANCH   5   9
ENDBRANCH   4   7
ENDBRANCH   1   4
BRANCH   1  23
ATOM     23  C   UNL     1      19.763   4.443  24.119  0.00  0.00    +0.175 C 
BRANCH  23  24
ATOM     24  C   UNL     1      19.338   2.976  23.956  0.00  0.00    +0.176 C 
ATOM     25  O   UNL     1      18.521   2.878  22.757  0.00  0.00    -0.332 OA
ATOM     26  C   UNL     1      18.108   1.523  22.380  0.00  0.00    +0.277 C 
ATOM     27  C   UNL     1      17.388   0.828  23.562  0.00  0.00    +0.110 C 
ATOM     28  C   UNL     1      18.205   0.934  24.867  0.00  0.00    +0.143 C 
ATOM     29  C   UNL     1      18.583   2.386  25.162  0.00  0.00    +0.133 C 
BRANCH  29  30
ATOM     30  N   UNL     1      19.433   2.464  26.360  0.00  0.00    -0.308 N 
ATOM     31  H   UNL     1      20.385   2.133  26.285  0.00  0.00    +0.149 HD
ATOM     32  C   UNL     1      19.030   2.943  27.539  0.00  0.00    +0.210 C 
ATOM     33  C   UNL     1      17.566   3.416  27.627  0.00  0.00    +0.109 C 
ATOM     34  O   UNL     1      19.769   3.010  28.522  0.00  0.00    -0.276 OA
ENDBRANCH  29  30
BRANCH  26  35
ATOM     35  C   UNL     1      19.327   0.679  21.951  0.00  0.00    +0.414 C 
ATOM     36  O   UNL     1      20.257   1.201  21.338  0.00  0.00    -0.240 OA
ATOM     37  O   UNL     1      19.380  -0.522  22.219  0.00  0.00    -0.240 OA
ENDBRANCH  26  35
BRANCH  28  38
ATOM     38  O   UNL     1      17.439   0.417  25.957  0.00  0.00    -0.390 OA
ATOM     39  H   UNL     1      17.551  -0.535  26.003  0.00  0.00    +0.210 HD
ENDBRANCH  28  38
BRANCH  26  40
ATOM     40  O   UNL     1      17.175   1.629  21.274  0.00  0.00    -0.343 OA
ATOM     41  C   UNL     1      16.429   2.871  21.220  0.00  0.00    +0.198 C 
ENDBRANCH  26  40
ENDBRANCH  23  24
BRANCH  23  42
ATOM     42  O   UNL     1      20.805   4.550  25.110  0.00  0.00    -0.387 OA
ATOM     43  H   UNL     1      21.599   4.118  24.788  0.00  0.00    +0.210 HD
ENDBRANCH  23  42
ENDBRANCH   1  23
TORSDOF 14
