REMARK VINA RESULT:    -6.882     14.887     18.721
REMARK INTER + INTRA:         -13.903
REMARK INTER:                 -11.238
REMARK INTRA:                  -2.665
REMARK UNBOUND:                -1.992
REMARK  Name = lig_assembled_25.pdb
REMARK  16 active torsions:
REMARK  status: ('A' for Active; 'I' for Inactive)
REMARK    1  A    between atoms: _2  and  _9
REMARK    2  A    between atoms: _4  and  _25
REMARK    3  A    between atoms: _6  and  _7
REMARK    4  A    between atoms: _6  and  _25
REMARK    5  A    between atoms: _21  and  _41
REMARK    6  A    between atoms: _23  and  _29
REMARK    7  A    between atoms: _24  and  _28
REMARK    8  A    between atoms: _28  and  _29
REMARK    9  A    between atoms: _31  and  _32
REMARK   10  A    between atoms: _33  and  _34
REMARK   11  A    between atoms: _35  and  _37
REMARK   12  A    between atoms: _37  and  _38
REMARK   13  A    between atoms: _37  and  _39
REMARK   14  A    between atoms: _39  and  _40
REMARK   15  A    between atoms: _39  and  _41
REMARK   16  A    between atoms: _42  and  _44
REMARK                            x       y       z     vdW  Elec       q    Type
REMARK                         _______ _______ _______ _____ _____    ______ ____
ROOT
ATOM      1  C   UNL     1      21.700   8.198  24.103  0.00  0.00    +0.141 C 
ENDROOT
BRANCH   1   4
ATOM      2  C   UNL     1      20.980  10.055  25.566  0.00  0.00    +0.401 C 
ATOM      3  O   UNL     1      22.121  10.315  25.956  0.00  0.00    -0.226 OA
ATOM      4  N   UNL     1      20.691   9.078  24.705  0.00  0.00    -0.279 N 
ATOM      5  H   UNL     1      19.723   8.936  24.452  0.00  0.00    +0.152 HD
BRANCH   2   6
ATOM      6  O   UNL     1      19.884  10.832  26.056  0.00  0.00    -0.444 OA
BRANCH   6   7
ATOM      7  C   UNL     1      20.265  11.479  27.273  0.00  0.00    +0.292 C 
BRANCH   7   9
ATOM      8  N   UNL     1      18.177  10.848  28.431  0.00  0.00    -0.131 NA
ATOM      9  C   UNL     1      19.544  10.889  28.418  0.00  0.00    +0.120 A 
ATOM     10  C   UNL     1      20.023  10.340  29.586  0.00  0.00    +0.138 A 
ATOM     11  N   UNL     1      18.898   9.998  30.282  0.00  0.00    -0.240 N 
ATOM     12  N   UNL     1      17.788  10.298  29.573  0.00  0.00    -0.064 NA
BRANCH  11  13
ATOM     13  C   UNL     1      18.757   9.471  31.629  0.00  0.00    +0.170 C 
ATOM     14  C   UNL     1      18.846   7.952  31.672  0.00  0.00    -0.011 A 
ATOM     15  C   UNL     1      17.693   7.418  32.288  0.00  0.00    -0.012 A 
ATOM     16  C   UNL     1      16.807   8.506  32.651  0.00  0.00    -0.012 A 
ATOM     17  C   UNL     1      15.585   8.487  33.304  0.00  0.00    +0.009 A 
ATOM     18  C   UNL     1      14.950   9.705  33.560  0.00  0.00    +0.001 A 
ATOM     19  C   UNL     1      15.533  10.920  33.161  0.00  0.00    +0.000 A 
ATOM     20  C   UNL     1      16.765  10.942  32.502  0.00  0.00    +0.006 A 
ATOM     21  C   UNL     1      17.559   6.051  32.461  0.00  0.00    +0.009 A 
ATOM     22  C   UNL     1      18.590   5.219  32.013  0.00  0.00    +0.001 A 
ATOM     23  C   UNL     1      19.737   5.754  31.405  0.00  0.00    +0.000 A 
ATOM     24  C   UNL     1      19.877   7.132  31.232  0.00  0.00    +0.006 A 
ATOM     25  C   UNL     1      17.391   9.730  32.251  0.00  0.00    -0.011 A 
ENDBRANCH  11  13
ENDBRANCH   7   9
ENDBRANCH   6   7
ENDBRANCH   2   6
ENDBRANCH   1   4
BRANCH   1  26
ATOM     26  C   UNL     1      21.065   7.008  23.391  0.00  0.00    +0.163 C 
BRANCH  26  27
ATOM     27  O   UNL     1      21.940   5.870  23.459  0.00  0.00    -0.388 OA
ATOM     28  H   UNL     1      22.838   6.166  23.629  0.00  0.00    +0.210 HD
ENDBRANCH  26  27
BRANCH  26  29
ATOM     29  C   UNL     1      19.702   6.693  24.032  0.00  0.00    +0.175 C 
BRANCH  29  30
ATOM     30  C   UNL     1      19.593   5.224  24.466  0.00  0.00    +0.176 C 
ATOM     31  O   UNL     1      18.498   4.619  23.725  0.00  0.00    -0.332 OA
ATOM     32  C   UNL     1      18.310   3.180  23.932  0.00  0.00    +0.277 C 
ATOM     33  C   UNL     1      18.158   2.867  25.441  0.00  0.00    +0.110 C 
ATOM     34  C   UNL     1      19.283   3.516  26.274  0.00  0.00    +0.143 C 
ATOM     35  C   UNL     1      19.392   5.012  25.978  0.00  0.00    +0.133 C 
BRANCH  35  36
ATOM     36  N   UNL     1      20.522   5.602  26.711  0.00  0.00    -0.308 N 
ATOM     37  H   UNL     1      21.429   5.167  26.611  0.00  0.00    +0.149 HD
ATOM     38  C   UNL     1      20.429   6.675  27.502  0.00  0.00    +0.210 C 
ATOM     39  C   UNL     1      19.029   7.299  27.656  0.00  0.00    +0.109 C 
ATOM     40  O   UNL     1      21.396   7.156  28.093  0.00  0.00    -0.276 OA
ENDBRANCH  35  36
BRANCH  32  41
ATOM     41  C   UNL     1      19.501   2.385  23.359  0.00  0.00    +0.414 C 
ATOM     42  O   UNL     1      20.587   2.936  23.180  0.00  0.00    -0.240 OA
ATOM     43  O   UNL     1      19.377   1.193  23.074  0.00  0.00    -0.240 OA
ENDBRANCH  32  41
BRANCH  34  44
ATOM     44  O   UNL     1      19.020   3.330  27.666  0.00  0.00    -0.390 OA
ATOM     45  H   UNL     1      19.781   2.921  28.084  0.00  0.00    +0.210 HD
ENDBRANCH  34  44
BRANCH  32  46
ATOM     46  O   UNL     1      17.089   2.785  23.257  0.00  0.00    -0.343 OA
ATOM     47  C   UNL     1      16.767   3.556  22.072  0.00  0.00    +0.198 C 
ENDBRANCH  32  46
ENDBRANCH  29  30
BRANCH  29  48
ATOM     48  O   UNL     1      18.637   7.022  23.118  0.00  0.00    -0.387 OA
ATOM     49  H   UNL     1      18.515   7.974  23.097  0.00  0.00    +0.210 HD
ENDBRANCH  29  48
ENDBRANCH  26  29
ENDBRANCH   1  26
TORSDOF 14
