REMARK VINA RESULT:    -7.072     15.033     17.584
REMARK INTER + INTRA:         -14.232
REMARK INTER:                 -11.872
REMARK INTRA:                  -2.360
REMARK UNBOUND:                -1.992
REMARK  Name = lig_assembled_25.pdb
REMARK  16 active torsions:
REMARK  status: ('A' for Active; 'I' for Inactive)
REMARK    1  A    between atoms: _2  and  _9
REMARK    2  A    between atoms: _4  and  _25
REMARK    3  A    between atoms: _6  and  _7
REMARK    4  A    between atoms: _6  and  _25
REMARK    5  A    between atoms: _21  and  _41
REMARK    6  A    between atoms: _23  and  _29
REMARK    7  A    between atoms: _24  and  _28
REMARK    8  A    between atoms: _28  and  _29
REMARK    9  A    between atoms: _31  and  _32
REMARK   10  A    between atoms: _33  and  _34
REMARK   11  A    between atoms: _35  and  _37
REMARK   12  A    between atoms: _37  and  _38
REMARK   13  A    between atoms: _37  and  _39
REMARK   14  A    between atoms: _39  and  _40
REMARK   15  A    between atoms: _39  and  _41
REMARK   16  A    between atoms: _42  and  _44
REMARK                            x       y       z     vdW  Elec       q    Type
REMARK                         _______ _______ _______ _____ _____    ______ ____
ROOT
ATOM      1  C   UNL     1      -5.393  19.391  30.544  0.00  0.00    +0.141 C 
ENDROOT
BRANCH   1   4
ATOM      2  C   UNL     1      -4.145  20.508  28.727  0.00  0.00    +0.401 C 
ATOM      3  O   UNL     1      -4.254  21.634  29.217  0.00  0.00    -0.226 OA
ATOM      4  N   UNL     1      -4.652  19.404  29.276  0.00  0.00    -0.279 N 
ATOM      5  H   UNL     1      -4.519  18.526  28.793  0.00  0.00    +0.152 HD
BRANCH   2   6
ATOM      6  O   UNL     1      -3.441  20.353  27.492  0.00  0.00    -0.444 OA
BRANCH   6   7
ATOM      7  C   UNL     1      -3.463  21.587  26.771  0.00  0.00    +0.292 C 
BRANCH   7   9
ATOM      8  N   UNL     1      -3.481  22.376  24.430  0.00  0.00    -0.131 NA
ATOM      9  C   UNL     1      -3.427  21.336  25.317  0.00  0.00    +0.120 A 
ATOM     10  C   UNL     1      -3.362  20.151  24.619  0.00  0.00    +0.138 A 
ATOM     11  N   UNL     1      -3.399  20.533  23.307  0.00  0.00    -0.240 N 
ATOM     12  N   UNL     1      -3.460  21.878  23.203  0.00  0.00    -0.064 NA
BRANCH  11  13
ATOM     13  C   UNL     1      -3.465  19.725  22.101  0.00  0.00    +0.170 C 
ATOM     14  C   UNL     1      -4.431  18.555  22.236  0.00  0.00    -0.011 A 
ATOM     15  C   UNL     1      -3.762  17.342  21.956  0.00  0.00    -0.012 A 
ATOM     16  C   UNL     1      -2.374  17.630  21.654  0.00  0.00    -0.012 A 
ATOM     17  C   UNL     1      -1.343  16.781  21.286  0.00  0.00    +0.009 A 
ATOM     18  C   UNL     1      -0.089  17.337  21.017  0.00  0.00    +0.001 A 
ATOM     19  C   UNL     1       0.123  18.722  21.122  0.00  0.00    +0.000 A 
ATOM     20  C   UNL     1      -0.915  19.580  21.493  0.00  0.00    +0.006 A 
ATOM     21  C   UNL     1      -4.446  16.139  21.994  0.00  0.00    +0.009 A 
ATOM     22  C   UNL     1      -5.807  16.157  22.313  0.00  0.00    +0.001 A 
ATOM     23  C   UNL     1      -6.469  17.365  22.587  0.00  0.00    +0.000 A 
ATOM     24  C   UNL     1      -5.784  18.580  22.547  0.00  0.00    +0.006 A 
ATOM     25  C   UNL     1      -2.157  19.023  21.758  0.00  0.00    -0.011 A 
ENDBRANCH  11  13
ENDBRANCH   7   9
ENDBRANCH   6   7
ENDBRANCH   2   6
ENDBRANCH   1   4
BRANCH   1  26
ATOM     26  C   UNL     1      -4.752  18.460  31.568  0.00  0.00    +0.163 C 
BRANCH  26  27
ATOM     27  O   UNL     1      -4.504  17.175  30.975  0.00  0.00    -0.388 OA
ATOM     28  H   UNL     1      -5.162  16.547  31.282  0.00  0.00    +0.210 HD
ENDBRANCH  26  27
BRANCH  26  29
ATOM     29  C   UNL     1      -3.447  19.088  32.088  0.00  0.00    +0.175 C 
BRANCH  29  30
ATOM     30  C   UNL     1      -3.032  18.512  33.449  0.00  0.00    +0.176 C 
ATOM     31  O   UNL     1      -2.512  17.172  33.228  0.00  0.00    -0.332 OA
ATOM     32  C   UNL     1      -1.965  16.501  34.411  0.00  0.00    +0.277 C 
ATOM     33  C   UNL     1      -3.012  16.475  35.551  0.00  0.00    +0.110 C 
ATOM     34  C   UNL     1      -3.617  17.873  35.802  0.00  0.00    +0.143 C 
ATOM     35  C   UNL     1      -4.153  18.479  34.504  0.00  0.00    +0.133 C 
BRANCH  35  36
ATOM     36  N   UNL     1      -4.647  19.845  34.740  0.00  0.00    -0.308 N 
ATOM     37  H   UNL     1      -3.967  20.563  34.946  0.00  0.00    +0.149 HD
ATOM     38  C   UNL     1      -5.935  20.197  34.698  0.00  0.00    +0.210 C 
ATOM     39  C   UNL     1      -6.948  19.074  34.406  0.00  0.00    +0.109 C 
ATOM     40  O   UNL     1      -6.319  21.352  34.885  0.00  0.00    -0.276 OA
ENDBRANCH  35  36
BRANCH  32  41
ATOM     41  C   UNL     1      -0.687  17.213  34.902  0.00  0.00    +0.414 C 
ATOM     42  O   UNL     1       0.134  17.641  34.092  0.00  0.00    -0.240 OA
ATOM     43  O   UNL     1      -0.477  17.360  36.107  0.00  0.00    -0.240 OA
ENDBRANCH  32  41
BRANCH  34  44
ATOM     44  O   UNL     1      -4.680  17.775  36.750  0.00  0.00    -0.390 OA
ATOM     45  H   UNL     1      -4.343  17.414  37.573  0.00  0.00    +0.210 HD
ENDBRANCH  34  44
BRANCH  32  46
ATOM     46  O   UNL     1      -1.652  15.132  34.046  0.00  0.00    -0.343 OA
ATOM     47  C   UNL     1      -1.918  14.148  35.077  0.00  0.00    +0.198 C 
ENDBRANCH  32  46
ENDBRANCH  29  30
BRANCH  29  48
ATOM     48  O   UNL     1      -3.586  20.520  32.175  0.00  0.00    -0.387 OA
ATOM     49  H   UNL     1      -3.937  20.756  33.037  0.00  0.00    +0.210 HD
ENDBRANCH  29  48
ENDBRANCH  26  29
ENDBRANCH   1  26
TORSDOF 14
