REMARK VINA RESULT:    -5.930      2.065      4.169
REMARK INTER + INTRA:         -12.598
REMARK INTER:                 -10.335
REMARK INTRA:                  -2.263
REMARK UNBOUND:                -2.334
REMARK  Name = lig_assembled_15.pdb
REMARK  16 active torsions:
REMARK  status: ('A' for Active; 'I' for Inactive)
REMARK    1  A    between atoms: _2  and  _9
REMARK    2  A    between atoms: _4  and  _18
REMARK    3  A    between atoms: _6  and  _7
REMARK    4  A    between atoms: _6  and  _18
REMARK    5  A    between atoms: _14  and  _34
REMARK    6  A    between atoms: _16  and  _22
REMARK    7  A    between atoms: _17  and  _21
REMARK    8  A    between atoms: _21  and  _22
REMARK    9  A    between atoms: _24  and  _25
REMARK   10  A    between atoms: _26  and  _27
REMARK   11  A    between atoms: _28  and  _30
REMARK   12  A    between atoms: _30  and  _31
REMARK   13  A    between atoms: _30  and  _32
REMARK   14  A    between atoms: _32  and  _33
REMARK   15  A    between atoms: _32  and  _34
REMARK   16  A    between atoms: _35  and  _37
REMARK                            x       y       z     vdW  Elec       q    Type
REMARK                         _______ _______ _______ _____ _____    ______ ____
ROOT
ATOM      1  C   UNL     1       2.716   1.848  35.124  0.00  0.00    +0.163 C 
ENDROOT
BRANCH   1   2
ATOM      2  O   UNL     1       3.070   0.533  34.665  0.00  0.00    -0.388 OA
ATOM      3  H   UNL     1       2.274   0.054  34.421  0.00  0.00    +0.210 HD
ENDBRANCH   1   2
BRANCH   1   4
ATOM      4  C   UNL     1       1.831   2.540  34.092  0.00  0.00    +0.141 C 
BRANCH   4   7
ATOM      5  C   UNL     1       2.707   3.182  31.873  0.00  0.00    +0.401 C 
ATOM      6  O   UNL     1       2.791   4.381  32.149  0.00  0.00    -0.226 OA
ATOM      7  N   UNL     1       2.262   2.252  32.719  0.00  0.00    -0.279 N 
ATOM      8  H   UNL     1       2.220   1.295  32.397  0.00  0.00    +0.152 HD
BRANCH   5   9
ATOM      9  O   UNL     1       3.099   2.739  30.571  0.00  0.00    -0.444 OA
BRANCH   9  10
ATOM     10  C   UNL     1       2.041   1.972  29.988  0.00  0.00    +0.292 C 
BRANCH  10  12
ATOM     11  N   UNL     1       0.781   3.639  28.663  0.00  0.00    -0.131 NA
ATOM     12  C   UNL     1       1.625   2.567  28.704  0.00  0.00    +0.121 A 
ATOM     13  C   UNL     1       1.967   2.216  27.418  0.00  0.00    +0.143 A 
ATOM     14  N   UNL     1       1.324   3.131  26.617  0.00  0.00    -0.220 N 
ATOM     15  N   UNL     1       0.598   3.971  27.392  0.00  0.00    -0.060 NA
BRANCH  14  16
ATOM     16  C   UNL     1       1.380   3.267  25.204  0.00  0.00    +0.067 A 
ATOM     17  C   UNL     1       1.300   2.145  24.368  0.00  0.00    +0.029 A 
ATOM     18  C   UNL     1       1.398   2.296  22.981  0.00  0.00    +0.017 A 
ATOM     19  C   UNL     1       1.572   3.564  22.430  0.00  0.00    +0.018 A 
ATOM     20 BR   UNL     1       1.731   3.755  20.555  0.00  0.00    -0.050 Br
ATOM     21  C   UNL     1       1.638   4.688  23.250  0.00  0.00    +0.017 A 
ATOM     22  C   UNL     1       1.539   4.542  24.636  0.00  0.00    +0.029 A 
ENDBRANCH  14  16
ENDBRANCH  10  12
ENDBRANCH   9  10
ENDBRANCH   5   9
ENDBRANCH   4   7
ENDBRANCH   1   4
BRANCH   1  23
ATOM     23  C   UNL     1       3.973   2.699  35.376  0.00  0.00    +0.175 C 
BRANCH  23  24
ATOM     24  C   UNL     1       5.078   2.417  34.347  0.00  0.00    +0.176 C 
ATOM     25  O   UNL     1       5.731   1.173  34.722  0.00  0.00    -0.332 OA
ATOM     26  C   UNL     1       6.751   0.686  33.789  0.00  0.00    +0.277 C 
ATOM     27  C   UNL     1       7.817   1.780  33.533  0.00  0.00    +0.110 C 
ATOM     28  C   UNL     1       7.169   3.130  33.162  0.00  0.00    +0.143 C 
ATOM     29  C   UNL     1       6.122   3.539  34.198  0.00  0.00    +0.133 C 
BRANCH  29  30
ATOM     30  N   UNL     1       5.450   4.783  33.789  0.00  0.00    -0.308 N 
ATOM     31  H   UNL     1       4.867   4.755  32.964  0.00  0.00    +0.149 HD
ATOM     32  C   UNL     1       5.561   5.947  34.436  0.00  0.00    +0.210 C 
ATOM     33  C   UNL     1       6.478   5.963  35.673  0.00  0.00    +0.109 C 
ATOM     34  O   UNL     1       4.975   6.969  34.078  0.00  0.00    -0.276 OA
ENDBRANCH  29  30
BRANCH  26  35
ATOM     35  C   UNL     1       6.111   0.266  32.449  0.00  0.00    +0.414 C 
ATOM     36  O   UNL     1       6.801  -0.239  31.564  0.00  0.00    -0.240 OA
ATOM     37  O   UNL     1       4.907   0.433  32.254  0.00  0.00    -0.240 OA
ENDBRANCH  26  35
BRANCH  28  38
ATOM     38  O   UNL     1       8.174   4.142  33.084  0.00  0.00    -0.390 OA
ATOM     39  H   UNL     1       7.847   4.880  32.565  0.00  0.00    +0.210 HD
ENDBRANCH  28  38
BRANCH  26  40
ATOM     40  O   UNL     1       7.406  -0.458  34.397  0.00  0.00    -0.343 OA
ATOM     41  C   UNL     1       8.725  -0.192  34.937  0.00  0.00    +0.198 C 
ENDBRANCH  26  40
ENDBRANCH  23  24
BRANCH  23  42
ATOM     42  O   UNL     1       4.467   2.471  36.711  0.00  0.00    -0.387 OA
ATOM     43  H   UNL     1       3.988   1.741  37.109  0.00  0.00    +0.210 HD
ENDBRANCH  23  42
ENDBRANCH   1  23
TORSDOF 14
