REMARK VINA RESULT:    -6.385     10.197     19.491
REMARK INTER + INTRA:         -14.998
REMARK INTER:                 -12.657
REMARK INTRA:                  -2.340
REMARK UNBOUND:                -3.014
REMARK  Name = lig_assembled_75.pdb
REMARK  19 active torsions:
REMARK  status: ('A' for Active; 'I' for Inactive)
REMARK    1  A    between atoms: _2  and  _9
REMARK    2  A    between atoms: _4  and  _23
REMARK    3  A    between atoms: _6  and  _7
REMARK    4  A    between atoms: _6  and  _23
REMARK    5  A    between atoms: _11  and  _12
REMARK    6  A    between atoms: _13  and  _14
REMARK    7  A    between atoms: _14  and  _17
REMARK    8  A    between atoms: _19  and  _39
REMARK    9  A    between atoms: _21  and  _27
REMARK   10  A    between atoms: _22  and  _26
REMARK   11  A    between atoms: _26  and  _27
REMARK   12  A    between atoms: _29  and  _30
REMARK   13  A    between atoms: _31  and  _32
REMARK   14  A    between atoms: _33  and  _35
REMARK   15  A    between atoms: _35  and  _36
REMARK   16  A    between atoms: _35  and  _37
REMARK   17  A    between atoms: _37  and  _38
REMARK   18  A    between atoms: _37  and  _39
REMARK   19  A    between atoms: _40  and  _42
REMARK                            x       y       z     vdW  Elec       q    Type
REMARK                         _______ _______ _______ _____ _____    ______ ____
ROOT
ATOM      1  C   UNL     1      -3.564   7.737  12.845  0.00  0.00    +0.141 C 
ENDROOT
BRANCH   1   4
ATOM      2  C   UNL     1      -4.847   7.023  14.832  0.00  0.00    +0.401 C 
ATOM      3  O   UNL     1      -5.821   6.637  14.182  0.00  0.00    -0.226 OA
ATOM      4  N   UNL     1      -3.752   7.556  14.290  0.00  0.00    -0.279 N 
ATOM      5  H   UNL     1      -3.009   7.852  14.907  0.00  0.00    +0.152 HD
BRANCH   2   6
ATOM      6  O   UNL     1      -4.873   6.906  16.257  0.00  0.00    -0.444 OA
BRANCH   6   7
ATOM      7  C   UNL     1      -4.523   5.571  16.633  0.00  0.00    +0.292 C 
BRANCH   7   9
ATOM      8  N   UNL     1      -2.209   6.445  16.591  0.00  0.00    -0.131 NA
ATOM      9  C   UNL     1      -3.100   5.502  17.016  0.00  0.00    +0.121 A 
ATOM     10  C   UNL     1      -2.442   4.577  17.793  0.00  0.00    +0.143 A 
ATOM     11  N   UNL     1      -1.132   4.998  17.815  0.00  0.00    -0.220 N 
ATOM     12  N   UNL     1      -1.016   6.131  17.077  0.00  0.00    -0.060 NA
BRANCH  11  13
ATOM     13  C   UNL     1      -0.013   4.397  18.446  0.00  0.00    +0.068 A 
ATOM     14  C   UNL     1       0.068   4.399  19.850  0.00  0.00    +0.035 A 
ATOM     15  C   UNL     1       1.192   3.874  20.505  0.00  0.00    -0.023 A 
ATOM     16  C   UNL     1       2.204   3.286  19.736  0.00  0.00    +0.008 A 
ATOM     17  C   UNL     1       2.117   3.260  18.343  0.00  0.00    +0.003 A 
ATOM     18  C   UNL     1       1.017   3.821  17.695  0.00  0.00    +0.028 A 
BRANCH  15  19
ATOM     19  C   UNL     1       1.336   3.899  21.968  0.00  0.00    +0.015 C 
ATOM     20  C   UNL     1       1.489   5.025  22.684  0.00  0.00    +0.092 C 
BRANCH  20  21
ATOM     21  C   UNL     1       1.680   4.943  24.144  0.00  0.00    +0.330 C 
ATOM     22  O   UNL     1       2.583   4.337  24.693  0.00  0.00    -0.246 OA
BRANCH  21  23
ATOM     23  O   UNL     1       0.736   5.634  24.816  0.00  0.00    -0.478 OA
ATOM     24  H   UNL     1       0.835   6.602  24.803  0.00  0.00    +0.295 HD
ENDBRANCH  21  23
ENDBRANCH  20  21
ENDBRANCH  15  19
ENDBRANCH  11  13
ENDBRANCH   7   9
ENDBRANCH   6   7
ENDBRANCH   2   6
ENDBRANCH   1   4
BRANCH   1  25
ATOM     25  C   UNL     1      -2.721   8.968  12.530  0.00  0.00    +0.163 C 
BRANCH  25  26
ATOM     26  O   UNL     1      -2.844   9.306  11.139  0.00  0.00    -0.388 OA
ATOM     27  H   UNL     1      -2.831   8.503  10.612  0.00  0.00    +0.210 HD
ENDBRANCH  25  26
BRANCH  25  28
ATOM     28  C   UNL     1      -3.168  10.139  13.422  0.00  0.00    +0.175 C 
BRANCH  28  29
ATOM     29  C   UNL     1      -3.062  11.490  12.699  0.00  0.00    +0.176 C 
ATOM     30  O   UNL     1      -1.718  11.602  12.157  0.00  0.00    -0.332 OA
ATOM     31  C   UNL     1      -1.462  12.790  11.337  0.00  0.00    +0.277 C 
ATOM     32  C   UNL     1      -1.820  14.076  12.122  0.00  0.00    +0.110 C 
ATOM     33  C   UNL     1      -3.229  13.991  12.744  0.00  0.00    +0.143 C 
ATOM     34  C   UNL     1      -3.386  12.716  13.573  0.00  0.00    +0.133 C 
BRANCH  34  35
ATOM     35  N   UNL     1      -4.759  12.602  14.089  0.00  0.00    -0.308 N 
ATOM     36  H   UNL     1      -5.512  12.539  13.418  0.00  0.00    +0.149 HD
ATOM     37  C   UNL     1      -5.076  12.578  15.387  0.00  0.00    +0.210 C 
ATOM     38  C   UNL     1      -3.909  12.702  16.384  0.00  0.00    +0.109 C 
ATOM     39  O   UNL     1      -6.235  12.467  15.790  0.00  0.00    -0.276 OA
ENDBRANCH  34  35
BRANCH  31  40
ATOM     40  C   UNL     1      -2.281  12.739  10.030  0.00  0.00    +0.414 C 
ATOM     41  O   UNL     1      -2.756  13.771   9.555  0.00  0.00    -0.240 OA
ATOM     42  O   UNL     1      -2.468  11.668   9.452  0.00  0.00    -0.240 OA
ENDBRANCH  31  40
BRANCH  31  43
ATOM     43  O   UNL     1      -0.046  12.824  11.024  0.00  0.00    -0.343 OA
ATOM     44  C   UNL     1       0.513  14.151  10.858  0.00  0.00    +0.198 C 
ENDBRANCH  31  43
BRANCH  33  45
ATOM     45  O   UNL     1      -3.456  15.126  13.580  0.00  0.00    -0.390 OA
ATOM     46  H   UNL     1      -2.920  15.861  13.275  0.00  0.00    +0.210 HD
ENDBRANCH  33  45
ENDBRANCH  28  29
BRANCH  28  47
ATOM     47  O   UNL     1      -2.391  10.163  14.637  0.00  0.00    -0.387 OA
ATOM     48  H   UNL     1      -1.458  10.213  14.419  0.00  0.00    +0.210 HD
ENDBRANCH  28  47
ENDBRANCH  25  28
ENDBRANCH   1  25
TORSDOF 17
