REMARK VINA RESULT:    -6.001      2.293      3.496
REMARK INTER + INTRA:         -12.755
REMARK INTER:                 -10.152
REMARK INTRA:                  -2.603
REMARK UNBOUND:                -2.370
REMARK  Name = lig_assembled_87.pdb
REMARK  17 active torsions:
REMARK  status: ('A' for Active; 'I' for Inactive)
REMARK    1  A    between atoms: _2  and  _10
REMARK    2  A    between atoms: _3  and  _13
REMARK    3  A    between atoms: _5  and  _21
REMARK    4  A    between atoms: _7  and  _8
REMARK    5  A    between atoms: _7  and  _21
REMARK    6  A    between atoms: _17  and  _37
REMARK    7  A    between atoms: _19  and  _25
REMARK    8  A    between atoms: _20  and  _24
REMARK    9  A    between atoms: _24  and  _25
REMARK   10  A    between atoms: _27  and  _28
REMARK   11  A    between atoms: _29  and  _30
REMARK   12  A    between atoms: _31  and  _33
REMARK   13  A    between atoms: _33  and  _34
REMARK   14  A    between atoms: _33  and  _35
REMARK   15  A    between atoms: _35  and  _36
REMARK   16  A    between atoms: _35  and  _37
REMARK   17  A    between atoms: _38  and  _40
REMARK                            x       y       z     vdW  Elec       q    Type
REMARK                         _______ _______ _______ _____ _____    ______ ____
ROOT
ATOM      1  C   UNL     1       4.912  -0.455  31.547  0.00  0.00    +0.163 C 
ENDROOT
BRANCH   1   2
ATOM      2  O   UNL     1       6.306  -0.157  31.367  0.00  0.00    -0.388 OA
ATOM      3  H   UNL     1       6.636   0.311  32.138  0.00  0.00    +0.210 HD
ENDBRANCH   1   2
BRANCH   1   4
ATOM      4  C   UNL     1       4.374  -1.190  30.324  0.00  0.00    +0.141 C 
BRANCH   4   7
ATOM      5  C   UNL     1       2.718  -0.504  28.623  0.00  0.00    +0.401 C 
ATOM      6  O   UNL     1       3.450  -0.769  27.667  0.00  0.00    -0.226 OA
ATOM      7  N   UNL     1       3.071  -0.664  29.899  0.00  0.00    -0.279 N 
ATOM      8  H   UNL     1       2.404  -0.408  30.614  0.00  0.00    +0.152 HD
BRANCH   5   9
ATOM      9  O   UNL     1       1.408   0.012  28.372  0.00  0.00    -0.444 OA
BRANCH   9  10
ATOM     10  C   UNL     1       1.353   1.386  28.763  0.00  0.00    +0.292 C 
BRANCH  10  12
ATOM     11  N   UNL     1       1.271   3.606  27.680  0.00  0.00    -0.131 NA
ATOM     12  C   UNL     1       1.456   2.255  27.577  0.00  0.00    +0.120 A 
ATOM     13  C   UNL     1       1.744   1.939  26.268  0.00  0.00    +0.137 A 
ATOM     14  N   UNL     1       1.844   3.152  25.641  0.00  0.00    -0.248 N 
ATOM     15  N   UNL     1       1.441   4.130  26.479  0.00  0.00    -0.065 NA
BRANCH  14  16
ATOM     16  C   UNL     1       2.283   3.505  24.278  0.00  0.00    +0.112 C 
ATOM     17  C   UNL     1       1.762   4.873  23.758  0.00  0.00    +0.045 C 
ATOM     18  C   UNL     1       0.909   4.819  22.479  0.00  0.00    +0.059 C 
ATOM     19  C   UNL     1       1.771   4.658  21.219  0.00  0.00    +0.020 C 
ATOM     20  C   UNL     1       1.769   3.156  20.938  0.00  0.00    +0.020 C 
ATOM     21  C   UNL     1       1.061   2.555  22.153  0.00  0.00    +0.059 C 
ATOM     22  N   UNL     1       0.090   3.616  22.401  0.00  0.00    -0.299 NA
ATOM     23  C   UNL     1      -0.886   3.402  23.448  0.00  0.00    +0.105 C 
ATOM     24  C   UNL     1       2.056   2.319  23.292  0.00  0.00    +0.045 C 
ENDBRANCH  14  16
ENDBRANCH  10  12
ENDBRANCH   9  10
ENDBRANCH   5   9
ENDBRANCH   4   7
ENDBRANCH   1   4
BRANCH   1  25
ATOM     25  C   UNL     1       4.099   0.831  31.773  0.00  0.00    +0.175 C 
BRANCH  25  26
ATOM     26  C   UNL     1       4.888   1.882  32.568  0.00  0.00    +0.176 C 
ATOM     27  O   UNL     1       5.546   1.204  33.674  0.00  0.00    -0.332 OA
ATOM     28  C   UNL     1       6.437   2.037  34.487  0.00  0.00    +0.277 C 
ATOM     29  C   UNL     1       5.684   3.285  35.011  0.00  0.00    +0.110 C 
ATOM     30  C   UNL     1       4.942   4.020  33.875  0.00  0.00    +0.143 C 
ATOM     31  C   UNL     1       4.046   3.060  33.092  0.00  0.00    +0.133 C 
BRANCH  31  32
ATOM     32  N   UNL     1       3.413   3.753  31.960  0.00  0.00    -0.308 N 
ATOM     33  H   UNL     1       4.012   4.096  31.222  0.00  0.00    +0.149 HD
ATOM     34  C   UNL     1       2.098   3.960  31.844  0.00  0.00    +0.210 C 
ATOM     35  C   UNL     1       1.215   3.448  32.998  0.00  0.00    +0.109 C 
ATOM     36  O   UNL     1       1.594   4.531  30.876  0.00  0.00    -0.276 OA
ENDBRANCH  31  32
BRANCH  28  37
ATOM     37  C   UNL     1       7.667   2.483  33.670  0.00  0.00    +0.414 C 
ATOM     38  O   UNL     1       8.073   1.794  32.734  0.00  0.00    -0.240 OA
ATOM     39  O   UNL     1       8.253   3.531  33.945  0.00  0.00    -0.240 OA
ENDBRANCH  28  37
BRANCH  30  40
ATOM     40  O   UNL     1       4.142   5.069  34.422  0.00  0.00    -0.390 OA
ATOM     41  H   UNL     1       3.927   5.702  33.733  0.00  0.00    +0.210 HD
ENDBRANCH  30  40
BRANCH  28  42
ATOM     42  O   UNL     1       6.868   1.251  35.628  0.00  0.00    -0.343 OA
ATOM     43  C   UNL     1       6.649   1.874  36.919  0.00  0.00    +0.198 C 
ENDBRANCH  28  42
ENDBRANCH  25  26
BRANCH  25  44
ATOM     44  O   UNL     1       2.862   0.525  32.447  0.00  0.00    -0.387 OA
ATOM     45  H   UNL     1       2.922  -0.347  32.846  0.00  0.00    +0.210 HD
ENDBRANCH  25  44
ENDBRANCH   1  25
TORSDOF 14
