REMARK VINA RESULT:    -6.391      7.322     12.608
REMARK INTER + INTRA:         -13.209
REMARK INTER:                 -10.783
REMARK INTRA:                  -2.426
REMARK UNBOUND:                -1.775
REMARK  Name = lig_assembled_69.pdb
REMARK  18 active torsions:
REMARK  status: ('A' for Active; 'I' for Inactive)
REMARK    1  A    between atoms: _2  and  _9
REMARK    2  A    between atoms: _4  and  _21
REMARK    3  A    between atoms: _6  and  _7
REMARK    4  A    between atoms: _6  and  _21
REMARK    5  A    between atoms: _11  and  _16
REMARK    6  A    between atoms: _14  and  _15
REMARK    7  A    between atoms: _17  and  _37
REMARK    8  A    between atoms: _19  and  _25
REMARK    9  A    between atoms: _20  and  _24
REMARK   10  A    between atoms: _24  and  _25
REMARK   11  A    between atoms: _27  and  _28
REMARK   12  A    between atoms: _29  and  _30
REMARK   13  A    between atoms: _31  and  _33
REMARK   14  A    between atoms: _33  and  _34
REMARK   15  A    between atoms: _33  and  _35
REMARK   16  A    between atoms: _35  and  _36
REMARK   17  A    between atoms: _35  and  _37
REMARK   18  A    between atoms: _38  and  _40
REMARK                            x       y       z     vdW  Elec       q    Type
REMARK                         _______ _______ _______ _____ _____    ______ ____
ROOT
ATOM      1  C   UNL     1       1.688  -0.215  22.896  0.00  0.00    +0.163 C 
ENDROOT
BRANCH   1   2
ATOM      2  O   UNL     1       0.466  -0.330  22.150  0.00  0.00    -0.388 OA
ATOM      3  H   UNL     1       0.420   0.374  21.499  0.00  0.00    +0.210 HD
ENDBRANCH   1   2
BRANCH   1   4
ATOM      4  C   UNL     1       1.601   0.928  23.922  0.00  0.00    +0.175 C 
BRANCH   4   5
ATOM      5  C   UNL     1       1.047   2.220  23.302  0.00  0.00    +0.176 C 
ATOM      6  O   UNL     1       1.724   2.433  22.033  0.00  0.00    -0.332 OA
ATOM      7  C   UNL     1       1.246   3.572  21.243  0.00  0.00    +0.277 C 
ATOM      8  C   UNL     1       1.290   4.871  22.085  0.00  0.00    +0.110 C 
ATOM      9  C   UNL     1       0.609   4.683  23.457  0.00  0.00    +0.143 C 
ATOM     10  C   UNL     1       1.180   3.470  24.191  0.00  0.00    +0.133 C 
BRANCH  10  11
ATOM     11  N   UNL     1       0.464   3.251  25.458  0.00  0.00    -0.308 N 
ATOM     12  H   UNL     1      -0.523   3.038  25.411  0.00  0.00    +0.149 HD
ATOM     13  C   UNL     1       1.033   3.314  26.665  0.00  0.00    +0.210 C 
ATOM     14  C   UNL     1       2.532   3.665  26.703  0.00  0.00    +0.109 C 
ATOM     15  O   UNL     1       0.411   3.111  27.708  0.00  0.00    -0.276 OA
ENDBRANCH  10  11
BRANCH   7  16
ATOM     16  C   UNL     1      -0.194   3.327  20.747  0.00  0.00    +0.414 C 
ATOM     17  O   UNL     1      -0.871   4.263  20.324  0.00  0.00    -0.240 OA
ATOM     18  O   UNL     1      -0.678   2.195  20.769  0.00  0.00    -0.240 OA
ENDBRANCH   7  16
BRANCH   7  19
ATOM     19  O   UNL     1       2.134   3.733  20.106  0.00  0.00    -0.343 OA
ATOM     20  C   UNL     1       2.385   2.523  19.349  0.00  0.00    +0.198 C 
ENDBRANCH   7  19
BRANCH   9  21
ATOM     21  O   UNL     1       0.805   5.852  24.255  0.00  0.00    -0.390 OA
ATOM     22  H   UNL     1       1.070   6.583  23.693  0.00  0.00    +0.210 HD
ENDBRANCH   9  21
ENDBRANCH   4   5
BRANCH   4  23
ATOM     23  O   UNL     1       2.897   1.173  24.504  0.00  0.00    -0.387 OA
ATOM     24  H   UNL     1       3.504   0.480  24.236  0.00  0.00    +0.210 HD
ENDBRANCH   4  23
ENDBRANCH   1   4
BRANCH   1  25
ATOM     25  C   UNL     1       1.985  -1.525  23.618  0.00  0.00    +0.141 C 
BRANCH  25  28
ATOM     26  C   UNL     1       4.278  -1.786  24.500  0.00  0.00    +0.401 C 
ATOM     27  O   UNL     1       4.001  -1.337  25.615  0.00  0.00    -0.226 OA
ATOM     28  N   UNL     1       3.399  -1.905  23.505  0.00  0.00    -0.279 N 
ATOM     29  H   UNL     1       3.723  -2.276  22.623  0.00  0.00    +0.152 HD
BRANCH  26  30
ATOM     30  O   UNL     1       5.618  -2.209  24.235  0.00  0.00    -0.444 OA
BRANCH  30  31
ATOM     31  C   UNL     1       5.695  -3.634  24.320  0.00  0.00    +0.292 C 
BRANCH  31  33
ATOM     32  N   UNL     1       5.111  -3.904  21.934  0.00  0.00    -0.131 NA
ATOM     33  C   UNL     1       5.929  -4.217  22.986  0.00  0.00    +0.120 A 
ATOM     34  C   UNL     1       6.894  -5.101  22.559  0.00  0.00    +0.137 A 
ATOM     35  N   UNL     1       6.600  -5.297  21.242  0.00  0.00    -0.248 N 
ATOM     36  N   UNL     1       5.528  -4.575  20.872  0.00  0.00    -0.065 NA
BRANCH  35  37
ATOM     37  C   UNL     1       7.263  -6.191  20.295  0.00  0.00    +0.114 C 
ATOM     38  C   UNL     1       8.725  -6.442  20.685  0.00  0.00    +0.062 C 
ATOM     39  C   UNL     1       9.739  -5.398  20.214  0.00  0.00    +0.139 C 
ATOM     40  C   UNL     1      10.027  -5.362  18.739  0.00  0.00    +0.002 C 
ATOM     41  C   UNL     1       9.275  -5.821  17.726  0.00  0.00    +0.002 C 
ATOM     42  C   UNL     1       7.879  -6.360  17.791  0.00  0.00    +0.139 C 
ATOM     43  C   UNL     1       7.001  -5.716  18.858  0.00  0.00    +0.062 C 
BRANCH  39  44
ATOM     44  O   UNL     1      10.989  -5.716  20.839  0.00  0.00    -0.388 OA
ATOM     45  H   UNL     1      10.990  -5.296  21.716  0.00  0.00    +0.210 HD
ENDBRANCH  39  44
BRANCH  42  46
ATOM     46  O   UNL     1       7.925  -7.767  17.968  0.00  0.00    -0.388 OA
ATOM     47  H   UNL     1       7.035  -8.112  17.779  0.00  0.00    +0.210 HD
ENDBRANCH  42  46
ENDBRANCH  35  37
ENDBRANCH  31  33
ENDBRANCH  30  31
ENDBRANCH  26  30
ENDBRANCH  25  28
ENDBRANCH   1  25
TORSDOF 16
