REMARK VINA RESULT:    -5.948      3.619      5.666
REMARK INTER + INTRA:         -12.486
REMARK INTER:                 -10.283
REMARK INTRA:                  -2.203
REMARK UNBOUND:                -2.191
REMARK  Name = lig_assembled_48.pdb
REMARK  16 active torsions:
REMARK  status: ('A' for Active; 'I' for Inactive)
REMARK    1  A    between atoms: _2  and  _9
REMARK    2  A    between atoms: _4  and  _18
REMARK    3  A    between atoms: _6  and  _7
REMARK    4  A    between atoms: _6  and  _18
REMARK    5  A    between atoms: _14  and  _34
REMARK    6  A    between atoms: _16  and  _22
REMARK    7  A    between atoms: _17  and  _21
REMARK    8  A    between atoms: _21  and  _22
REMARK    9  A    between atoms: _24  and  _25
REMARK   10  A    between atoms: _26  and  _27
REMARK   11  A    between atoms: _28  and  _30
REMARK   12  A    between atoms: _30  and  _31
REMARK   13  A    between atoms: _30  and  _32
REMARK   14  A    between atoms: _32  and  _33
REMARK   15  A    between atoms: _32  and  _34
REMARK   16  A    between atoms: _35  and  _37
REMARK                            x       y       z     vdW  Elec       q    Type
REMARK                         _______ _______ _______ _____ _____    ______ ____
ROOT
ATOM      1  C   UNL     1       7.763   2.350  34.099  0.00  0.00    +0.163 C 
ENDROOT
BRANCH   1   2
ATOM      2  O   UNL     1       8.658   2.470  35.216  0.00  0.00    -0.388 OA
ATOM      3  H   UNL     1       9.563   2.516  34.899  0.00  0.00    +0.210 HD
ENDBRANCH   1   2
BRANCH   1   4
ATOM      4  C   UNL     1       8.173   1.168  33.226  0.00  0.00    +0.141 C 
BRANCH   4   7
ATOM      5  C   UNL     1       7.074  -0.724  32.078  0.00  0.00    +0.401 C 
ATOM      6  O   UNL     1       8.118  -1.365  31.934  0.00  0.00    -0.226 OA
ATOM      7  N   UNL     1       7.009   0.472  32.665  0.00  0.00    -0.279 N 
ATOM      8  H   UNL     1       6.108   0.924  32.727  0.00  0.00    +0.152 HD
BRANCH   5   9
ATOM      9  O   UNL     1       5.848  -1.274  31.589  0.00  0.00    -0.444 OA
BRANCH   9  10
ATOM     10  C   UNL     1       5.990  -1.602  30.205  0.00  0.00    +0.292 C 
BRANCH  10  12
ATOM     11  N   UNL     1       4.743  -1.289  28.095  0.00  0.00    -0.131 NA
ATOM     12  C   UNL     1       4.854  -1.060  29.437  0.00  0.00    +0.120 A 
ATOM     13  C   UNL     1       3.774  -0.316  29.859  0.00  0.00    +0.137 A 
ATOM     14  N   UNL     1       2.991  -0.204  28.748  0.00  0.00    -0.248 N 
ATOM     15  N   UNL     1       3.619  -0.729  27.673  0.00  0.00    -0.065 NA
BRANCH  14  16
ATOM     16  C   UNL     1       1.638   0.316  28.586  0.00  0.00    +0.109 C 
ATOM     17  C   UNL     1       1.399   1.531  29.502  0.00  0.00    +0.027 C 
ATOM     18  C   UNL     1       2.152   2.763  29.005  0.00  0.00    +0.002 C 
ATOM     19  C   UNL     1       1.709   3.138  27.596  0.00  0.00    +0.000 C 
ATOM     20  C   UNL     1       1.831   1.975  26.615  0.00  0.00    +0.002 C 
ATOM     21  C   UNL     1       1.224   0.670  27.144  0.00  0.00    +0.027 C 
ENDBRANCH  14  16
ENDBRANCH  10  12
ENDBRANCH   9  10
ENDBRANCH   5   9
ENDBRANCH   4   7
ENDBRANCH   1   4
BRANCH   1  22
ATOM     22  C   UNL     1       7.762   3.636  33.254  0.00  0.00    +0.175 C 
BRANCH  22  23
ATOM     23  C   UNL     1       6.940   4.756  33.909  0.00  0.00    +0.176 C 
ATOM     24  O   UNL     1       7.722   5.302  35.006  0.00  0.00    -0.332 OA
ATOM     25  C   UNL     1       7.137   6.461  35.687  0.00  0.00    +0.277 C 
ATOM     26  C   UNL     1       5.705   6.134  36.177  0.00  0.00    +0.110 C 
ATOM     27  C   UNL     1       4.844   5.521  35.052  0.00  0.00    +0.143 C 
ATOM     28  C   UNL     1       5.549   4.325  34.412  0.00  0.00    +0.133 C 
BRANCH  28  29
ATOM     29  N   UNL     1       4.759   3.804  33.285  0.00  0.00    -0.308 N 
ATOM     30  H   UNL     1       4.702   4.368  32.448  0.00  0.00    +0.149 HD
ATOM     31  C   UNL     1       4.113   2.636  33.296  0.00  0.00    +0.210 C 
ATOM     32  C   UNL     1       4.198   1.812  34.595  0.00  0.00    +0.109 C 
ATOM     33  O   UNL     1       3.470   2.218  32.332  0.00  0.00    -0.276 OA
ENDBRANCH  28  29
BRANCH  25  34
ATOM     34  C   UNL     1       7.094   7.683  34.746  0.00  0.00    +0.414 C 
ATOM     35  O   UNL     1       8.139   8.204  34.358  0.00  0.00    -0.240 OA
ATOM     36  O   UNL     1       6.015   8.149  34.377  0.00  0.00    -0.240 OA
ENDBRANCH  25  34
BRANCH  27  37
ATOM     37  O   UNL     1       3.588   5.098  35.584  0.00  0.00    -0.390 OA
ATOM     38  H   UNL     1       2.876   5.457  35.049  0.00  0.00    +0.210 HD
ENDBRANCH  27  37
BRANCH  25  39
ATOM     39  O   UNL     1       7.959   6.764  36.844  0.00  0.00    -0.343 OA
ATOM     40  C   UNL     1       8.323   5.617  37.653  0.00  0.00    +0.198 C 
ENDBRANCH  25  39
ENDBRANCH  22  23
BRANCH  22  41
ATOM     41  O   UNL     1       7.261   3.360  31.931  0.00  0.00    -0.387 OA
ATOM     42  H   UNL     1       6.320   3.176  31.976  0.00  0.00    +0.210 HD
ENDBRANCH  22  41
ENDBRANCH   1  22
TORSDOF 14
