REMARK VINA RESULT:    -5.952      2.698      4.890
REMARK INTER + INTRA:         -14.028
REMARK INTER:                 -12.129
REMARK INTRA:                  -1.899
REMARK UNBOUND:                -1.813
REMARK  Name = lig_assembled_33.pdb
REMARK  22 active torsions:
REMARK  status: ('A' for Active; 'I' for Inactive)
REMARK    1  A    between atoms: _2  and  _9
REMARK    2  A    between atoms: _4  and  _20
REMARK    3  A    between atoms: _5  and  _13
REMARK    4  A    between atoms: _5  and  _14
REMARK    5  A    between atoms: _6  and  _7
REMARK    6  A    between atoms: _6  and  _20
REMARK    7  A    between atoms: _9  and  _10
REMARK    8  A    between atoms: _10  and  _11
REMARK    9  A    between atoms: _11  and  _12
REMARK   10  A    between atoms: _12  and  _13
REMARK   11  A    between atoms: _16  and  _36
REMARK   12  A    between atoms: _18  and  _24
REMARK   13  A    between atoms: _19  and  _23
REMARK   14  A    between atoms: _23  and  _24
REMARK   15  A    between atoms: _26  and  _27
REMARK   16  A    between atoms: _28  and  _29
REMARK   17  A    between atoms: _30  and  _32
REMARK   18  A    between atoms: _32  and  _33
REMARK   19  A    between atoms: _32  and  _34
REMARK   20  A    between atoms: _34  and  _35
REMARK   21  A    between atoms: _34  and  _36
REMARK   22  A    between atoms: _37  and  _39
REMARK                            x       y       z     vdW  Elec       q    Type
REMARK                         _______ _______ _______ _____ _____    ______ ____
ROOT
ATOM      1  C   UNL     1       6.282   3.147  33.745  0.00  0.00    +0.163 C 
ENDROOT
BRANCH   1   2
ATOM      2  O   UNL     1       6.222   2.009  34.621  0.00  0.00    -0.388 OA
ATOM      3  H   UNL     1       6.951   2.048  35.246  0.00  0.00    +0.210 HD
ENDBRANCH   1   2
BRANCH   1   4
ATOM      4  C   UNL     1       7.737   3.596  33.524  0.00  0.00    +0.175 C 
BRANCH   4   5
ATOM      5  C   UNL     1       8.464   3.872  34.848  0.00  0.00    +0.176 C 
ATOM      6  O   UNL     1       8.747   2.592  35.478  0.00  0.00    -0.332 OA
ATOM      7  C   UNL     1       9.537   2.654  36.711  0.00  0.00    +0.277 C 
ATOM      8  C   UNL     1       8.870   3.605  37.735  0.00  0.00    +0.110 C 
ATOM      9  C   UNL     1       8.522   4.969  37.101  0.00  0.00    +0.143 C 
ATOM     10  C   UNL     1       7.702   4.787  35.823  0.00  0.00    +0.133 C 
BRANCH  10  11
ATOM     11  N   UNL     1       7.451   6.088  35.183  0.00  0.00    -0.308 N 
ATOM     12  H   UNL     1       8.234   6.562  34.756  0.00  0.00    +0.149 HD
ATOM     13  C   UNL     1       6.256   6.682  35.129  0.00  0.00    +0.210 C 
ATOM     14  C   UNL     1       5.088   5.946  35.812  0.00  0.00    +0.109 C 
ATOM     15  O   UNL     1       6.072   7.765  34.573  0.00  0.00    -0.276 OA
ENDBRANCH  10  11
BRANCH   7  16
ATOM     16  C   UNL     1      10.972   3.137  36.418  0.00  0.00    +0.414 C 
ATOM     17  O   UNL     1      11.471   2.959  35.307  0.00  0.00    -0.240 OA
ATOM     18  O   UNL     1      11.631   3.704  37.290  0.00  0.00    -0.240 OA
ENDBRANCH   7  16
BRANCH   9  19
ATOM     19  O   UNL     1       7.776   5.756  38.031  0.00  0.00    -0.390 OA
ATOM     20  H   UNL     1       8.255   5.810  38.861  0.00  0.00    +0.210 HD
ENDBRANCH   9  19
BRANCH   7  21
ATOM     21  O   UNL     1       9.578   1.321  37.285  0.00  0.00    -0.343 OA
ATOM     22  C   UNL     1       9.130   1.233  38.661  0.00  0.00    +0.198 C 
ENDBRANCH   7  21
ENDBRANCH   4   5
BRANCH   4  23
ATOM     23  O   UNL     1       7.773   4.766  32.683  0.00  0.00    -0.387 OA
ATOM     24  H   UNL     1       7.566   4.518  31.779  0.00  0.00    +0.210 HD
ENDBRANCH   4  23
ENDBRANCH   1   4
BRANCH   1  25
ATOM     25  C   UNL     1       5.644   2.806  32.403  0.00  0.00    +0.141 C 
BRANCH  25  28
ATOM     26  C   UNL     1       3.215   3.211  32.199  0.00  0.00    +0.401 C 
ATOM     27  O   UNL     1       2.902   2.056  32.499  0.00  0.00    -0.226 OA
ATOM     28  N   UNL     1       4.473   3.646  32.124  0.00  0.00    -0.279 N 
ATOM     29  H   UNL     1       4.629   4.609  31.860  0.00  0.00    +0.152 HD
BRANCH  26  30
ATOM     30  O   UNL     1       2.183   4.156  31.906  0.00  0.00    -0.444 OA
BRANCH  30  31
ATOM     31  C   UNL     1       0.956   3.464  31.659  0.00  0.00    +0.292 C 
BRANCH  31  33
ATOM     32  N   UNL     1      -0.398   4.386  29.807  0.00  0.00    -0.131 NA
ATOM     33  C   UNL     1       0.596   3.545  30.232  0.00  0.00    +0.120 A 
ATOM     34  C   UNL     1       1.113   2.872  29.145  0.00  0.00    +0.137 A 
ATOM     35  N   UNL     1       0.396   3.356  28.092  0.00  0.00    -0.251 N 
ATOM     36  N   UNL     1      -0.521   4.251  28.494  0.00  0.00    -0.065 NA
BRANCH  35  37
ATOM     37  C   UNL     1       0.516   3.009  26.691  0.00  0.00    +0.145 C 
BRANCH  37  38
ATOM     38  C   UNL     1       1.666   2.037  26.436  0.00  0.00    +0.023 C 
BRANCH  38  39
ATOM     39  C   UNL     1       2.348   2.272  25.086  0.00  0.00    +0.002 C 
BRANCH  39  40
ATOM     40  C   UNL     1       2.278   3.757  24.720  0.00  0.00    +0.011 C 
BRANCH  40  41
ATOM     41  C   UNL     1       1.818   3.992  23.283  0.00  0.00    +0.120 C 
BRANCH  41  42
ATOM     42  C   UNL     1       0.868   5.166  23.197  0.00  0.00    +0.305 C 
ATOM     43  O   UNL     1       0.276   5.524  22.192  0.00  0.00    -0.251 OA
BRANCH  42  44
ATOM     44  O   UNL     1       0.726   5.802  24.383  0.00  0.00    -0.481 OA
ATOM     45  H   UNL     1       1.181   5.362  25.123  0.00  0.00    +0.295 HD
ENDBRANCH  42  44
ENDBRANCH  41  42
ENDBRANCH  40  41
ENDBRANCH  39  40
ENDBRANCH  38  39
ENDBRANCH  37  38
ENDBRANCH  35  37
ENDBRANCH  31  33
ENDBRANCH  30  31
ENDBRANCH  26  30
ENDBRANCH  25  28
ENDBRANCH   1  25
TORSDOF 20
