REMARK VINA RESULT:    -6.134     13.185     15.781
REMARK INTER + INTRA:         -14.331
REMARK INTER:                 -11.959
REMARK INTRA:                  -2.373
REMARK UNBOUND:                -2.640
REMARK  Name = lig_assembled_29.pdb
REMARK  21 active torsions:
REMARK  status: ('A' for Active; 'I' for Inactive)
REMARK    1  A    between atoms: _2  and  _9
REMARK    2  A    between atoms: _4  and  _23
REMARK    3  A    between atoms: _6  and  _7
REMARK    4  A    between atoms: _6  and  _23
REMARK    5  A    between atoms: _9  and  _10
REMARK    6  A    between atoms: _12  and  _18
REMARK    7  A    between atoms: _13  and  _18
REMARK    8  A    between atoms: _14  and  _17
REMARK    9  A    between atoms: _15  and  _17
REMARK   10  A    between atoms: _19  and  _39
REMARK   11  A    between atoms: _21  and  _27
REMARK   12  A    between atoms: _22  and  _26
REMARK   13  A    between atoms: _26  and  _27
REMARK   14  A    between atoms: _29  and  _30
REMARK   15  A    between atoms: _31  and  _32
REMARK   16  A    between atoms: _33  and  _35
REMARK   17  A    between atoms: _35  and  _36
REMARK   18  A    between atoms: _35  and  _37
REMARK   19  A    between atoms: _37  and  _38
REMARK   20  A    between atoms: _37  and  _39
REMARK   21  A    between atoms: _40  and  _42
REMARK                            x       y       z     vdW  Elec       q    Type
REMARK                         _______ _______ _______ _____ _____    ______ ____
ROOT
ATOM      1  C   UNL     1       8.579   2.726  35.822  0.00  0.00    +0.163 C 
ENDROOT
BRANCH   1   2
ATOM      2  O   UNL     1       8.819   3.477  37.023  0.00  0.00    -0.388 OA
ATOM      3  H   UNL     1       8.636   2.926  37.788  0.00  0.00    +0.210 HD
ENDBRANCH   1   2
BRANCH   1   4
ATOM      4  C   UNL     1       8.508   3.655  34.598  0.00  0.00    +0.175 C 
BRANCH   4   5
ATOM      5  C   UNL     1       7.393   4.702  34.730  0.00  0.00    +0.176 C 
ATOM      6  O   UNL     1       7.792   5.654  35.754  0.00  0.00    -0.332 OA
ATOM      7  C   UNL     1       6.891   6.795  35.946  0.00  0.00    +0.277 C 
ATOM      8  C   UNL     1       5.449   6.303  36.223  0.00  0.00    +0.110 C 
ATOM      9  C   UNL     1       4.991   5.264  35.178  0.00  0.00    +0.143 C 
ATOM     10  C   UNL     1       6.003   4.124  35.057  0.00  0.00    +0.133 C 
BRANCH  10  11
ATOM     11  N   UNL     1       5.599   3.187  33.998  0.00  0.00    -0.308 N 
ATOM     12  H   UNL     1       5.628   3.514  33.042  0.00  0.00    +0.149 HD
ATOM     13  C   UNL     1       5.197   1.932  34.216  0.00  0.00    +0.210 C 
ATOM     14  C   UNL     1       5.139   1.472  35.685  0.00  0.00    +0.109 C 
ATOM     15  O   UNL     1       4.878   1.164  33.308  0.00  0.00    -0.276 OA
ENDBRANCH  10  11
BRANCH   7  16
ATOM     16  C   UNL     1       6.894   7.710  34.704  0.00  0.00    +0.414 C 
ATOM     17  O   UNL     1       7.958   8.082  34.210  0.00  0.00    -0.240 OA
ATOM     18  O   UNL     1       5.834   8.076  34.195  0.00  0.00    -0.240 OA
ENDBRANCH   7  16
BRANCH   7  19
ATOM     19  O   UNL     1       7.350   7.540  37.103  0.00  0.00    -0.343 OA
ATOM     20  C   UNL     1       8.504   6.976  37.776  0.00  0.00    +0.198 C 
ENDBRANCH   7  19
BRANCH   9  21
ATOM     21  O   UNL     1       3.722   4.729  35.555  0.00  0.00    -0.390 OA
ATOM     22  H   UNL     1       3.025   5.328  35.277  0.00  0.00    +0.210 HD
ENDBRANCH   9  21
ENDBRANCH   4   5
BRANCH   4  23
ATOM     23  O   UNL     1       8.322   2.880  33.396  0.00  0.00    -0.387 OA
ATOM     24  H   UNL     1       9.041   3.059  32.786  0.00  0.00    +0.210 HD
ENDBRANCH   4  23
ENDBRANCH   1   4
BRANCH   1  25
ATOM     25  C   UNL     1       9.688   1.699  35.619  0.00  0.00    +0.141 C 
BRANCH  25  28
ATOM     26  C   UNL     1      11.904   2.757  35.342  0.00  0.00    +0.401 C 
ATOM     27  O   UNL     1      12.116   2.850  36.553  0.00  0.00    -0.226 OA
ATOM     28  N   UNL     1      10.794   2.239  34.817  0.00  0.00    -0.279 N 
ATOM     29  H   UNL     1      10.708   2.215  33.810  0.00  0.00    +0.152 HD
BRANCH  26  30
ATOM     30  O   UNL     1      12.894   3.233  34.426  0.00  0.00    -0.444 OA
BRANCH  30  31
ATOM     31  C   UNL     1      14.183   3.172  35.041  0.00  0.00    +0.292 C 
BRANCH  31  33
ATOM     32  N   UNL     1      14.171   5.627  35.390  0.00  0.00    -0.131 NA
ATOM     33  C   UNL     1      14.836   4.494  35.003  0.00  0.00    +0.120 A 
ATOM     34  C   UNL     1      16.120   4.829  34.639  0.00  0.00    +0.137 A 
ATOM     35  N   UNL     1      16.201   6.163  34.916  0.00  0.00    -0.247 N 
ATOM     36  N   UNL     1      15.015   6.649  35.323  0.00  0.00    -0.065 NA
BRANCH  35  37
ATOM     37  C   UNL     1      17.372   7.018  34.866  0.00  0.00    +0.180 C 
BRANCH  37  38
ATOM     38  C   UNL     1      17.360   7.875  33.620  0.00  0.00    -0.022 A 
ATOM     39  C   UNL     1      17.133   9.259  33.717  0.00  0.00    +0.054 A 
ATOM     40  C   UNL     1      17.196  10.077  32.580  0.00  0.00    +0.162 A 
ATOM     41  C   UNL     1      17.482   9.503  31.325  0.00  0.00    +0.162 A 
ATOM     42  C   UNL     1      17.707   8.127  31.231  0.00  0.00    +0.050 A 
ATOM     43  C   UNL     1      17.644   7.319  32.370  0.00  0.00    +0.009 A 
BRANCH  40  44
ATOM     44  O   UNL     1      17.008  11.438  32.594  0.00  0.00    -0.491 OA
ATOM     45  C   UNL     1      17.563  12.173  33.676  0.00  0.00    +0.277 C 
ENDBRANCH  40  44
BRANCH  41  46
ATOM     46  O   UNL     1      17.520  10.369  30.259  0.00  0.00    -0.491 OA
ATOM     47  C   UNL     1      18.755  10.517  29.572  0.00  0.00    +0.277 C 
ENDBRANCH  41  46
ENDBRANCH  37  38
ENDBRANCH  35  37
ENDBRANCH  31  33
ENDBRANCH  30  31
ENDBRANCH  26  30
ENDBRANCH  25  28
ENDBRANCH   1  25
TORSDOF 17
