REMARK VINA RESULT:    -6.342     14.674     18.479
REMARK INTER + INTRA:         -12.829
REMARK INTER:                 -10.856
REMARK INTRA:                  -1.973
REMARK UNBOUND:                -1.853
REMARK  Name = lig_assembled_86.pdb
REMARK  17 active torsions:
REMARK  status: ('A' for Active; 'I' for Inactive)
REMARK    1  A    between atoms: _2  and  _10
REMARK    2  A    between atoms: _3  and  _13
REMARK    3  A    between atoms: _5  and  _21
REMARK    4  A    between atoms: _7  and  _8
REMARK    5  A    between atoms: _7  and  _21
REMARK    6  A    between atoms: _17  and  _37
REMARK    7  A    between atoms: _19  and  _25
REMARK    8  A    between atoms: _20  and  _24
REMARK    9  A    between atoms: _24  and  _25
REMARK   10  A    between atoms: _27  and  _28
REMARK   11  A    between atoms: _29  and  _30
REMARK   12  A    between atoms: _31  and  _33
REMARK   13  A    between atoms: _33  and  _34
REMARK   14  A    between atoms: _33  and  _35
REMARK   15  A    between atoms: _35  and  _36
REMARK   16  A    between atoms: _35  and  _37
REMARK   17  A    between atoms: _38  and  _40
REMARK                            x       y       z     vdW  Elec       q    Type
REMARK                         _______ _______ _______ _____ _____    ______ ____
ROOT
ATOM      1  C   UNL     1      18.668   4.100  25.656  0.00  0.00    +0.163 C 
ENDROOT
BRANCH   1   2
ATOM      2  O   UNL     1      19.690   4.110  24.647  0.00  0.00    -0.388 OA
ATOM      3  H   UNL     1      20.290   3.374  24.790  0.00  0.00    +0.210 HD
ENDBRANCH   1   2
BRANCH   1   4
ATOM      4  C   UNL     1      19.166   4.811  26.910  0.00  0.00    +0.141 C 
BRANCH   4   7
ATOM      5  C   UNL     1      19.249   7.216  26.350  0.00  0.00    +0.401 C 
ATOM      6  O   UNL     1      20.253   7.112  25.641  0.00  0.00    -0.226 OA
ATOM      7  N   UNL     1      18.677   6.193  26.987  0.00  0.00    -0.279 N 
ATOM      8  H   UNL     1      17.862   6.380  27.553  0.00  0.00    +0.152 HD
BRANCH   5   9
ATOM      9  O   UNL     1      18.647   8.502  26.518  0.00  0.00    -0.444 OA
BRANCH   9  10
ATOM     10  C   UNL     1      19.464   9.304  27.375  0.00  0.00    +0.292 C 
BRANCH  10  12
ATOM     11  N   UNL     1      17.967  10.364  29.044  0.00  0.00    -0.131 NA
ATOM     12  C   UNL     1      18.866   9.382  28.722  0.00  0.00    +0.120 A 
ATOM     13  C   UNL     1      19.049   8.569  29.815  0.00  0.00    +0.137 A 
ATOM     14  N   UNL     1      18.210   9.084  30.755  0.00  0.00    -0.248 N 
ATOM     15  N   UNL     1      17.583  10.183  30.301  0.00  0.00    -0.065 NA
BRANCH  14  16
ATOM     16  C   UNL     1      17.961   8.569  32.093  0.00  0.00    +0.112 C 
ATOM     17  C   UNL     1      18.542   9.494  33.183  0.00  0.00    +0.045 C 
ATOM     18  C   UNL     1      17.592   9.781  34.349  0.00  0.00    +0.059 C 
ATOM     19  C   UNL     1      16.519  10.800  33.951  0.00  0.00    +0.020 C 
ATOM     20  C   UNL     1      15.333   9.953  33.499  0.00  0.00    +0.020 C 
ATOM     21  C   UNL     1      15.835   8.510  33.590  0.00  0.00    +0.059 C 
ATOM     22  N   UNL     1      16.771   8.625  34.708  0.00  0.00    -0.299 NA
ATOM     23  C   UNL     1      17.475   7.415  35.088  0.00  0.00    +0.105 C 
ATOM     24  C   UNL     1      16.510   8.071  32.284  0.00  0.00    +0.045 C 
ENDBRANCH  14  16
ENDBRANCH  10  12
ENDBRANCH   9  10
ENDBRANCH   5   9
ENDBRANCH   4   7
ENDBRANCH   1   4
BRANCH   1  25
ATOM     25  C   UNL     1      18.259   2.660  26.011  0.00  0.00    +0.175 C 
BRANCH  25  26
ATOM     26  C   UNL     1      18.442   1.699  24.827  0.00  0.00    +0.176 C 
ATOM     27  O   UNL     1      17.803   2.295  23.664  0.00  0.00    -0.332 OA
ATOM     28  C   UNL     1      17.968   1.562  22.405  0.00  0.00    +0.277 C 
ATOM     29  C   UNL     1      17.499   0.095  22.567  0.00  0.00    +0.110 C 
ATOM     30  C   UNL     1      18.129  -0.570  23.808  0.00  0.00    +0.143 C 
ATOM     31  C   UNL     1      17.900   0.277  25.060  0.00  0.00    +0.133 C 
BRANCH  31  32
ATOM     32  N   UNL     1      18.578  -0.323  26.220  0.00  0.00    -0.308 N 
ATOM     33  H   UNL     1      19.587  -0.279  26.251  0.00  0.00    +0.149 HD
ATOM     34  C   UNL     1      17.948  -0.923  27.234  0.00  0.00    +0.210 C 
ATOM     35  C   UNL     1      16.412  -0.997  27.144  0.00  0.00    +0.109 C 
ATOM     36  O   UNL     1      18.541  -1.404  28.200  0.00  0.00    -0.276 OA
ENDBRANCH  31  32
BRANCH  28  37
ATOM     37  C   UNL     1      19.442   1.585  21.949  0.00  0.00    +0.414 C 
ATOM     38  O   UNL     1      19.764   1.094  20.867  0.00  0.00    -0.240 OA
ATOM     39  O   UNL     1      20.308   2.095  22.661  0.00  0.00    -0.240 OA
ENDBRANCH  28  37
BRANCH  30  40
ATOM     40  O   UNL     1      17.556  -1.864  24.004  0.00  0.00    -0.390 OA
ATOM     41  H   UNL     1      17.294  -2.230  23.156  0.00  0.00    +0.210 HD
ENDBRANCH  30  40
BRANCH  28  42
ATOM     42  O   UNL     1      17.136   2.200  21.402  0.00  0.00    -0.343 OA
ATOM     43  C   UNL     1      16.798   3.584  21.677  0.00  0.00    +0.198 C 
ENDBRANCH  28  42
ENDBRANCH  25  26
BRANCH  25  44
ATOM     44  O   UNL     1      16.891   2.630  26.467  0.00  0.00    -0.387 OA
ATOM     45  H   UNL     1      16.820   2.046  27.226  0.00  0.00    +0.210 HD
ENDBRANCH  25  44
ENDBRANCH   1  25
TORSDOF 14
