REMARK VINA RESULT:    -6.778     15.744     17.717
REMARK INTER + INTRA:         -16.136
REMARK INTER:                 -12.115
REMARK INTRA:                  -4.021
REMARK UNBOUND:                -2.424
REMARK  Name = lig_assembled_81.pdb
REMARK  22 active torsions:
REMARK  status: ('A' for Active; 'I' for Inactive)
REMARK    1  A    between atoms: _2  and  _12
REMARK    2  A    between atoms: _7  and  _30
REMARK    3  A    between atoms: _8  and  _24
REMARK    4  A    between atoms: _9  and  _10
REMARK    5  A    between atoms: _9  and  _30
REMARK    6  A    between atoms: _14  and  _15
REMARK    7  A    between atoms: _21  and  _22
REMARK    8  A    between atoms: _22  and  _23
REMARK    9  A    between atoms: _23  and  _25
REMARK   10  A    between atoms: _24  and  _25
REMARK   11  A    between atoms: _26  and  _46
REMARK   12  A    between atoms: _28  and  _34
REMARK   13  A    between atoms: _29  and  _33
REMARK   14  A    between atoms: _33  and  _34
REMARK   15  A    between atoms: _36  and  _37
REMARK   16  A    between atoms: _38  and  _39
REMARK   17  A    between atoms: _40  and  _42
REMARK   18  A    between atoms: _42  and  _43
REMARK   19  A    between atoms: _42  and  _44
REMARK   20  A    between atoms: _44  and  _45
REMARK   21  A    between atoms: _44  and  _46
REMARK   22  A    between atoms: _47  and  _49
REMARK                            x       y       z     vdW  Elec       q    Type
REMARK                         _______ _______ _______ _____ _____    ______ ____
ROOT
ATOM      1  C   UNL     1       5.124   1.171  32.069  0.00  0.00    +0.401 C 
ATOM      2  O   UNL     1       5.893   0.289  31.678  0.00  0.00    -0.226 OA
ATOM      3  N   UNL     1       5.510   2.404  32.398  0.00  0.00    -0.279 N 
ATOM      4  H   UNL     1       4.803   3.061  32.698  0.00  0.00    +0.152 HD
ENDROOT
BRANCH   1   5
ATOM      5  O   UNL     1       3.729   0.877  32.179  0.00  0.00    -0.444 OA
BRANCH   5   6
ATOM      6  C   UNL     1       3.074   1.928  32.893  0.00  0.00    +0.289 C 
BRANCH   6   8
ATOM      7  N   UNL     1       2.334   4.079  31.976  0.00  0.00    -0.130 NA
ATOM      8  C   UNL     1       2.228   2.721  31.978  0.00  0.00    +0.100 C 
ATOM      9  C   UNL     1       1.252   2.353  31.071  0.00  0.00    +0.124 C 
ATOM     10  N   UNL     1       0.896   3.537  30.438  0.00  0.00    -0.187 N 
ATOM     11  N   UNL     1       1.428   4.557  31.142  0.00  0.00    -0.010 NA
BRANCH  10  12
ATOM     12  C   UNL     1      -0.044   3.721  29.369  0.00  0.00    +0.150 A 
ATOM     13  C   UNL     1       0.242   3.594  27.987  0.00  0.00    +0.022 A 
ATOM     14  C   UNL     1      -0.864   3.912  27.155  0.00  0.00    +0.081 A 
ATOM     15  N   UNL     1      -2.039   4.365  27.670  0.00  0.00    -0.214 NA
ATOM     16  C   UNL     1      -2.177   4.468  28.981  0.00  0.00    +0.215 A 
ATOM     17  N   UNL     1      -3.339   5.012  29.474  0.00  0.00    -0.327 N 
ATOM     18  H   UNL     1      -4.091   4.938  28.806  0.00  0.00    +0.145 HD
ATOM     19  H   UNL     1      -3.505   4.736  30.430  0.00  0.00    +0.145 HD
ATOM     20  N   UNL     1      -1.267   4.077  29.851  0.00  0.00    -0.198 NA
BRANCH  14  21
ATOM     21  C   UNL     1      -0.943   3.845  25.646  0.00  0.00    +0.001 A 
ATOM     22  C   UNL     1      -0.477   4.840  24.767  0.00  0.00    +0.010 A 
ATOM     23  C   UNL     1      -0.568   4.715  23.371  0.00  0.00    +0.001 A 
ATOM     24  C   UNL     1      -1.072   3.562  22.798  0.00  0.00    +0.000 A 
ATOM     25  C   UNL     1      -1.495   2.525  23.626  0.00  0.00    +0.001 A 
ATOM     26  C   UNL     1      -1.440   2.677  25.019  0.00  0.00    +0.010 A 
ENDBRANCH  14  21
BRANCH  13  27
ATOM     27  C   UNL     1       1.515   3.067  27.319  0.00  0.00    +0.069 C 
BRANCH  27  28
ATOM     28  C   UNL     1       1.743   1.580  27.125  0.00  0.00    +0.164 C 
BRANCH  28  29
ATOM     29  O   UNL     1       2.184   1.169  25.826  0.00  0.00    -0.380 OA
BRANCH  29  30
ATOM     30  C   UNL     1       2.436   2.379  25.084  0.00  0.00    +0.156 C 
ATOM     31  C   UNL     1       2.250   2.172  23.598  0.00  0.00    +0.034 C 
ENDBRANCH  29  30
ENDBRANCH  28  29
ENDBRANCH  27  28
ENDBRANCH  13  27
ENDBRANCH  10  12
ENDBRANCH   6   8
ENDBRANCH   5   6
ENDBRANCH   1   5
BRANCH   3  32
ATOM     32  C   UNL     1       6.904   2.862  32.349  0.00  0.00    +0.141 C 
BRANCH  32  33
ATOM     33  C   UNL     1       7.279   3.675  33.584  0.00  0.00    +0.163 C 
BRANCH  33  34
ATOM     34  O   UNL     1       7.733   4.981  33.193  0.00  0.00    -0.388 OA
ATOM     35  H   UNL     1       8.340   5.321  33.854  0.00  0.00    +0.210 HD
ENDBRANCH  33  34
BRANCH  33  36
ATOM     36  C   UNL     1       6.065   3.773  34.523  0.00  0.00    +0.175 C 
BRANCH  36  37
ATOM     37  C   UNL     1       6.149   4.994  35.451  0.00  0.00    +0.176 C 
ATOM     38  O   UNL     1       7.458   4.983  36.086  0.00  0.00    -0.332 OA
ATOM     39  C   UNL     1       7.760   6.140  36.934  0.00  0.00    +0.277 C 
ATOM     40  C   UNL     1       6.660   6.328  38.007  0.00  0.00    +0.110 C 
ATOM     41  C   UNL     1       5.248   6.314  37.383  0.00  0.00    +0.143 C 
ATOM     42  C   UNL     1       5.042   5.069  36.519  0.00  0.00    +0.133 C 
BRANCH  42  43
ATOM     43  N   UNL     1       3.727   5.111  35.861  0.00  0.00    -0.308 N 
ATOM     44  H   UNL     1       3.560   5.843  35.186  0.00  0.00    +0.149 HD
ATOM     45  C   UNL     1       2.739   4.243  36.098  0.00  0.00    +0.210 C 
ATOM     46  C   UNL     1       3.015   3.154  37.151  0.00  0.00    +0.109 C 
ATOM     47  O   UNL     1       1.652   4.293  35.521  0.00  0.00    -0.276 OA
ENDBRANCH  42  43
BRANCH  39  48
ATOM     48  C   UNL     1       7.878   7.423  36.086  0.00  0.00    +0.414 C 
ATOM     49  O   UNL     1       8.065   8.511  36.630  0.00  0.00    -0.240 OA
ATOM     50  O   UNL     1       7.787   7.371  34.859  0.00  0.00    -0.240 OA
ENDBRANCH  39  48
BRANCH  39  51
ATOM     51  O   UNL     1       9.019   5.884  37.610  0.00  0.00    -0.343 OA
ATOM     52  C   UNL     1       9.860   4.885  36.980  0.00  0.00    +0.198 C 
ENDBRANCH  39  51
BRANCH  41  53
ATOM     53  O   UNL     1       4.264   6.338  38.417  0.00  0.00    -0.390 OA
ATOM     54  H   UNL     1       3.929   7.231  38.521  0.00  0.00    +0.210 HD
ENDBRANCH  41  53
ENDBRANCH  36  37
BRANCH  36  55
ATOM     55  O   UNL     1       5.939   2.566  35.300  0.00  0.00    -0.387 OA
ATOM     56  H   UNL     1       6.615   2.552  35.983  0.00  0.00    +0.210 HD
ENDBRANCH  36  55
ENDBRANCH  33  36
ENDBRANCH  32  33
ENDBRANCH   3  32
TORSDOF 19
