REMARK VINA RESULT:    -5.680     15.728     17.311
REMARK INTER + INTRA:         -14.083
REMARK INTER:                 -11.502
REMARK INTRA:                  -2.581
REMARK UNBOUND:                -3.588
REMARK  Name = lig_assembled_58.pdb
REMARK  18 active torsions:
REMARK  status: ('A' for Active; 'I' for Inactive)
REMARK    1  A    between atoms: _2  and  _9
REMARK    2  A    between atoms: _4  and  _25
REMARK    3  A    between atoms: _6  and  _7
REMARK    4  A    between atoms: _6  and  _25
REMARK    5  A    between atoms: _9  and  _10
REMARK    6  A    between atoms: _9  and  _16
REMARK    7  A    between atoms: _21  and  _41
REMARK    8  A    between atoms: _23  and  _29
REMARK    9  A    between atoms: _24  and  _28
REMARK   10  A    between atoms: _28  and  _29
REMARK   11  A    between atoms: _31  and  _32
REMARK   12  A    between atoms: _33  and  _34
REMARK   13  A    between atoms: _35  and  _37
REMARK   14  A    between atoms: _37  and  _38
REMARK   15  A    between atoms: _37  and  _39
REMARK   16  A    between atoms: _39  and  _40
REMARK   17  A    between atoms: _39  and  _41
REMARK   18  A    between atoms: _42  and  _44
REMARK                            x       y       z     vdW  Elec       q    Type
REMARK                         _______ _______ _______ _____ _____    ______ ____
ROOT
ATOM      1  C   UNL     1      -1.909   4.014  32.131  0.00  0.00    +0.141 C 
ENDROOT
BRANCH   1   4
ATOM      2  C   UNL     1      -2.672   4.548  29.842  0.00  0.00    +0.401 C 
ATOM      3  O   UNL     1      -3.649   5.199  30.219  0.00  0.00    -0.226 OA
ATOM      4  N   UNL     1      -1.809   3.953  30.667  0.00  0.00    -0.279 N 
ATOM      5  H   UNL     1      -1.043   3.433  30.263  0.00  0.00    +0.152 HD
BRANCH   2   6
ATOM      6  O   UNL     1      -2.432   4.403  28.440  0.00  0.00    -0.444 OA
BRANCH   6   7
ATOM      7  C   UNL     1      -1.907   3.099  28.177  0.00  0.00    +0.292 C 
BRANCH   7   9
ATOM      8  N   UNL     1       0.510   3.682  28.184  0.00  0.00    -0.131 NA
ATOM      9  C   UNL     1      -0.589   3.202  27.523  0.00  0.00    +0.120 A 
ATOM     10  C   UNL     1      -0.219   2.835  26.249  0.00  0.00    +0.138 A 
ATOM     11  N   UNL     1       1.143   2.966  26.243  0.00  0.00    -0.240 N 
ATOM     12  N   UNL     1       1.563   3.554  27.386  0.00  0.00    -0.064 NA
BRANCH  11  13
ATOM     13  C   UNL     1       2.119   2.535  25.226  0.00  0.00    +0.169 C 
BRANCH  13  14
ATOM     14  C   UNL     1       2.111   1.004  25.108  0.00  0.00    -0.019 A 
ATOM     15  C   UNL     1       3.307   0.308  24.860  0.00  0.00    +0.006 A 
ATOM     16  C   UNL     1       3.301  -1.080  24.693  0.00  0.00    +0.000 A 
ATOM     17  C   UNL     1       2.108  -1.795  24.785  0.00  0.00    +0.000 A 
ATOM     18  C   UNL     1       0.914  -1.124  25.027  0.00  0.00    +0.000 A 
ATOM     19  C   UNL     1       0.915   0.262  25.175  0.00  0.00    +0.006 A 
ENDBRANCH  13  14
BRANCH  13  20
ATOM     20  C   UNL     1       1.964   3.287  23.896  0.00  0.00    -0.019 A 
ATOM     21  C   UNL     1       1.872   2.596  22.675  0.00  0.00    +0.006 A 
ATOM     22  C   UNL     1       1.733   3.286  21.467  0.00  0.00    +0.000 A 
ATOM     23  C   UNL     1       1.659   4.676  21.460  0.00  0.00    +0.000 A 
ATOM     24  C   UNL     1       1.692   5.376  22.659  0.00  0.00    +0.000 A 
ATOM     25  C   UNL     1       1.824   4.688  23.864  0.00  0.00    +0.006 A 
ENDBRANCH  13  20
ENDBRANCH  11  13
ENDBRANCH   7   9
ENDBRANCH   6   7
ENDBRANCH   2   6
ENDBRANCH   1   4
BRANCH   1  26
ATOM     26  C   UNL     1      -0.535   4.038  32.794  0.00  0.00    +0.163 C 
BRANCH  26  27
ATOM     27  O   UNL     1      -0.468   3.037  33.822  0.00  0.00    -0.388 OA
ATOM     28  H   UNL     1      -0.718   2.185  33.457  0.00  0.00    +0.210 HD
ENDBRANCH  26  27
BRANCH  26  29
ATOM     29  C   UNL     1       0.553   3.809  31.731  0.00  0.00    +0.175 C 
BRANCH  29  30
ATOM     30  C   UNL     1       1.858   3.280  32.344  0.00  0.00    +0.176 C 
ATOM     31  O   UNL     1       2.072   3.973  33.604  0.00  0.00    -0.332 OA
ATOM     32  C   UNL     1       3.225   3.520  34.389  0.00  0.00    +0.277 C 
ATOM     33  C   UNL     1       4.516   3.575  33.535  0.00  0.00    +0.110 C 
ATOM     34  C   UNL     1       4.326   2.878  32.171  0.00  0.00    +0.143 C 
ATOM     35  C   UNL     1       3.098   3.424  31.442  0.00  0.00    +0.133 C 
BRANCH  35  36
ATOM     36  N   UNL     1       2.878   2.692  30.185  0.00  0.00    -0.308 N 
ATOM     37  H   UNL     1       2.860   3.225  29.326  0.00  0.00    +0.149 HD
ATOM     38  C   UNL     1       2.702   1.371  30.103  0.00  0.00    +0.210 C 
ATOM     39  C   UNL     1       2.710   0.591  31.432  0.00  0.00    +0.109 C 
ATOM     40  O   UNL     1       2.535   0.783  29.034  0.00  0.00    -0.276 OA
ENDBRANCH  35  36
BRANCH  32  41
ATOM     41  C   UNL     1       3.006   2.081  34.901  0.00  0.00    +0.414 C 
ATOM     42  O   UNL     1       3.965   1.396  35.254  0.00  0.00    -0.240 OA
ATOM     43  O   UNL     1       1.872   1.606  34.961  0.00  0.00    -0.240 OA
ENDBRANCH  32  41
BRANCH  34  44
ATOM     44  O   UNL     1       5.484   3.083  31.361  0.00  0.00    -0.390 OA
ATOM     45  H   UNL     1       6.249   2.690  31.788  0.00  0.00    +0.210 HD
ENDBRANCH  34  44
BRANCH  32  46
ATOM     46  O   UNL     1       3.383   4.421  35.515  0.00  0.00    -0.343 OA
ATOM     47  C   UNL     1       4.683   5.055  35.615  0.00  0.00    +0.198 C 
ENDBRANCH  32  46
ENDBRANCH  29  30
BRANCH  29  48
ATOM     48  O   UNL     1       0.803   5.029  31.005  0.00  0.00    -0.387 OA
ATOM     49  H   UNL     1       0.375   4.985  30.147  0.00  0.00    +0.210 HD
ENDBRANCH  29  48
ENDBRANCH  26  29
ENDBRANCH   1  26
TORSDOF 16
