REMARK VINA RESULT:    -5.580     11.486     15.278
REMARK INTER + INTRA:         -14.140
REMARK INTER:                 -12.360
REMARK INTRA:                  -1.781
REMARK UNBOUND:                -2.852
REMARK  Name = lig_assembled_11.pdb
REMARK  22 active torsions:
REMARK  status: ('A' for Active; 'I' for Inactive)
REMARK    1  A    between atoms: _2  and  _9
REMARK    2  A    between atoms: _4  and  _21
REMARK    3  A    between atoms: _5  and  _9
REMARK    4  A    between atoms: _5  and  _13
REMARK    5  A    between atoms: _6  and  _7
REMARK    6  A    between atoms: _6  and  _21
REMARK    7  A    between atoms: _9  and  _10
REMARK    8  A    between atoms: _10  and  _11
REMARK    9  A    between atoms: _11  and  _12
REMARK   10  A    between atoms: _12  and  _15
REMARK   11  A    between atoms: _17  and  _37
REMARK   12  A    between atoms: _19  and  _25
REMARK   13  A    between atoms: _20  and  _24
REMARK   14  A    between atoms: _24  and  _25
REMARK   15  A    between atoms: _27  and  _28
REMARK   16  A    between atoms: _29  and  _30
REMARK   17  A    between atoms: _31  and  _33
REMARK   18  A    between atoms: _33  and  _34
REMARK   19  A    between atoms: _33  and  _35
REMARK   20  A    between atoms: _35  and  _36
REMARK   21  A    between atoms: _35  and  _37
REMARK   22  A    between atoms: _38  and  _40
REMARK                            x       y       z     vdW  Elec       q    Type
REMARK                         _______ _______ _______ _____ _____    ______ ____
ROOT
ATOM      1  C   UNL     1       7.347   2.461  34.477  0.00  0.00    +0.163 C 
ENDROOT
BRANCH   1   2
ATOM      2  O   UNL     1       7.304   2.538  35.912  0.00  0.00    -0.388 OA
ATOM      3  H   UNL     1       6.961   1.714  36.267  0.00  0.00    +0.210 HD
ENDBRANCH   1   2
BRANCH   1   4
ATOM      4  C   UNL     1       7.786   3.803  33.867  0.00  0.00    +0.175 C 
BRANCH   4   5
ATOM      5  C   UNL     1       7.159   5.001  34.595  0.00  0.00    +0.176 C 
ATOM      6  O   UNL     1       7.857   5.172  35.859  0.00  0.00    -0.332 OA
ATOM      7  C   UNL     1       7.461   6.343  36.648  0.00  0.00    +0.277 C 
ATOM      8  C   UNL     1       5.931   6.339  36.891  0.00  0.00    +0.110 C 
ATOM      9  C   UNL     1       5.147   6.128  35.578  0.00  0.00    +0.143 C 
ATOM     10  C   UNL     1       5.643   4.886  34.837  0.00  0.00    +0.133 C 
BRANCH  10  11
ATOM     11  N   UNL     1       4.948   4.745  33.547  0.00  0.00    -0.308 N 
ATOM     12  H   UNL     1       5.159   5.416  32.822  0.00  0.00    +0.149 HD
ATOM     13  C   UNL     1       4.058   3.787  33.273  0.00  0.00    +0.210 C 
ATOM     14  C   UNL     1       3.740   2.795  34.407  0.00  0.00    +0.109 C 
ATOM     15  O   UNL     1       3.503   3.684  32.178  0.00  0.00    -0.276 OA
ENDBRANCH  10  11
BRANCH   7  16
ATOM     16  C   UNL     1       7.866   7.648  35.933  0.00  0.00    +0.414 C 
ATOM     17  O   UNL     1       7.872   7.705  34.703  0.00  0.00    -0.240 OA
ATOM     18  O   UNL     1       8.188   8.643  36.584  0.00  0.00    -0.240 OA
ENDBRANCH   7  16
BRANCH   7  19
ATOM     19  O   UNL     1       8.128   6.263  37.934  0.00  0.00    -0.343 OA
ATOM     20  C   UNL     1       9.485   5.754  37.890  0.00  0.00    +0.198 C 
ENDBRANCH   7  19
BRANCH   9  21
ATOM     21  O   UNL     1       3.756   5.981  35.867  0.00  0.00    -0.390 OA
ATOM     22  H   UNL     1       3.242   6.203  35.087  0.00  0.00    +0.210 HD
ENDBRANCH   9  21
ENDBRANCH   4   5
BRANCH   4  23
ATOM     23  O   UNL     1       7.455   3.844  32.465  0.00  0.00    -0.387 OA
ATOM     24  H   UNL     1       6.688   4.406  32.333  0.00  0.00    +0.210 HD
ENDBRANCH   4  23
ENDBRANCH   1   4
BRANCH   1  25
ATOM     25  C   UNL     1       8.312   1.363  34.042  0.00  0.00    +0.141 C 
BRANCH  25  28
ATOM     26  C   UNL     1      10.549   1.975  34.896  0.00  0.00    +0.401 C 
ATOM     27  O   UNL     1      10.289   1.673  36.063  0.00  0.00    -0.226 OA
ATOM     28  N   UNL     1       9.682   1.868  33.888  0.00  0.00    -0.279 N 
ATOM     29  H   UNL     1       9.985   2.150  32.966  0.00  0.00    +0.152 HD
BRANCH  26  30
ATOM     30  O   UNL     1      11.850   2.477  34.581  0.00  0.00    -0.444 OA
BRANCH  30  31
ATOM     31  C   UNL     1      12.525   2.846  35.787  0.00  0.00    +0.292 C 
BRANCH  31  33
ATOM     32  N   UNL     1      13.503   5.120  35.793  0.00  0.00    -0.131 NA
ATOM     33  C   UNL     1      13.620   3.789  35.497  0.00  0.00    +0.120 A 
ATOM     34  C   UNL     1      14.857   3.562  34.938  0.00  0.00    +0.138 A 
ATOM     35  N   UNL     1      15.433   4.799  34.878  0.00  0.00    -0.238 N 
ATOM     36  N   UNL     1      14.623   5.726  35.423  0.00  0.00    -0.065 NA
BRANCH  35  37
ATOM     37  C   UNL     1      16.774   5.198  34.467  0.00  0.00    +0.217 C 
BRANCH  37  38
ATOM     38  C   UNL     1      17.886   4.494  35.230  0.00  0.00    +0.330 C 
ATOM     39  O   UNL     1      18.332   4.829  36.317  0.00  0.00    -0.249 OA
BRANCH  38  40
ATOM     40  O   UNL     1      18.392   3.409  34.591  0.00  0.00    -0.479 OA
ATOM     41  H   UNL     1      17.955   3.135  33.761  0.00  0.00    +0.295 HD
ENDBRANCH  38  40
ENDBRANCH  37  38
BRANCH  37  42
ATOM     42  C   UNL     1      16.939   6.728  34.457  0.00  0.00    +0.049 C 
BRANCH  42  43
ATOM     43  C   UNL     1      17.531   7.306  33.165  0.00  0.00    +0.123 C 
BRANCH  43  44
ATOM     44  C   UNL     1      16.519   8.166  32.443  0.00  0.00    +0.305 C 
ATOM     45  O   UNL     1      16.643   9.362  32.236  0.00  0.00    -0.251 OA
BRANCH  44  46
ATOM     46  O   UNL     1      15.425   7.471  32.060  0.00  0.00    -0.481 OA
ATOM     47  H   UNL     1      15.513   7.018  31.201  0.00  0.00    +0.295 HD
ENDBRANCH  44  46
ENDBRANCH  43  44
ENDBRANCH  42  43
ENDBRANCH  37  42
ENDBRANCH  35  37
ENDBRANCH  31  33
ENDBRANCH  30  31
ENDBRANCH  26  30
ENDBRANCH  25  28
ENDBRANCH   1  25
TORSDOF 20
