REMARK VINA RESULT:    -6.566      0.000      0.000
REMARK INTER + INTRA:         -13.733
REMARK INTER:                 -11.982
REMARK INTRA:                  -1.751
REMARK UNBOUND:                -2.370
REMARK  Name = lig_assembled_87.pdb
REMARK  17 active torsions:
REMARK  status: ('A' for Active; 'I' for Inactive)
REMARK    1  A    between atoms: _2  and  _10
REMARK    2  A    between atoms: _3  and  _13
REMARK    3  A    between atoms: _5  and  _21
REMARK    4  A    between atoms: _7  and  _8
REMARK    5  A    between atoms: _7  and  _21
REMARK    6  A    between atoms: _17  and  _37
REMARK    7  A    between atoms: _19  and  _25
REMARK    8  A    between atoms: _20  and  _24
REMARK    9  A    between atoms: _24  and  _25
REMARK   10  A    between atoms: _27  and  _28
REMARK   11  A    between atoms: _29  and  _30
REMARK   12  A    between atoms: _31  and  _33
REMARK   13  A    between atoms: _33  and  _34
REMARK   14  A    between atoms: _33  and  _35
REMARK   15  A    between atoms: _35  and  _36
REMARK   16  A    between atoms: _35  and  _37
REMARK   17  A    between atoms: _38  and  _40
REMARK                            x       y       z     vdW  Elec       q    Type
REMARK                         _______ _______ _______ _____ _____    ______ ____
ROOT
ATOM      1  C   UNL     1       3.259   3.000  32.642  0.00  0.00    +0.163 C 
ENDROOT
BRANCH   1   2
ATOM      2  O   UNL     1       4.005   2.273  31.653  0.00  0.00    -0.388 OA
ATOM      3  H   UNL     1       4.584   1.642  32.087  0.00  0.00    +0.210 HD
ENDBRANCH   1   2
BRANCH   1   4
ATOM      4  C   UNL     1       2.105   3.746  31.981  0.00  0.00    +0.141 C 
BRANCH   4   7
ATOM      5  C   UNL     1       1.107   3.770  29.721  0.00  0.00    +0.401 C 
ATOM      6  O   UNL     1      -0.047   3.918  30.129  0.00  0.00    -0.226 OA
ATOM      7  N   UNL     1       2.173   3.674  30.517  0.00  0.00    -0.279 N 
ATOM      8  H   UNL     1       3.078   3.543  30.088  0.00  0.00    +0.152 HD
BRANCH   5   9
ATOM      9  O   UNL     1       1.341   3.689  28.312  0.00  0.00    -0.444 OA
BRANCH   9  10
ATOM     10  C   UNL     1       0.134   3.300  27.650  0.00  0.00    +0.292 C 
BRANCH  10  12
ATOM     11  N   UNL     1      -0.596   5.211  26.264  0.00  0.00    -0.131 NA
ATOM     12  C   UNL     1       0.021   3.994  26.354  0.00  0.00    +0.120 A 
ATOM     13  C   UNL     1       0.473   3.625  25.108  0.00  0.00    +0.137 A 
ATOM     14  N   UNL     1       0.213   4.712  24.317  0.00  0.00    -0.248 N 
ATOM     15  N   UNL     1      -0.533   5.603  25.004  0.00  0.00    -0.065 NA
BRANCH  14  16
ATOM     16  C   UNL     1       0.595   5.011  22.924  0.00  0.00    +0.112 C 
ATOM     17  C   UNL     1      -0.597   5.162  21.939  0.00  0.00    +0.045 C 
ATOM     18  C   UNL     1      -0.611   4.181  20.755  0.00  0.00    +0.059 C 
ATOM     19  C   UNL     1       0.368   4.598  19.649  0.00  0.00    +0.020 C 
ATOM     20  C   UNL     1       1.635   3.791  19.930  0.00  0.00    +0.020 C 
ATOM     21  C   UNL     1       1.350   3.113  21.271  0.00  0.00    +0.059 C 
ATOM     22  N   UNL     1      -0.080   2.870  21.107  0.00  0.00    -0.299 NA
ATOM     23  C   UNL     1      -0.759   2.129  22.148  0.00  0.00    +0.105 C 
ATOM     24  C   UNL     1       1.712   4.043  22.430  0.00  0.00    +0.045 C 
ENDBRANCH  14  16
ENDBRANCH  10  12
ENDBRANCH   9  10
ENDBRANCH   5   9
ENDBRANCH   4   7
ENDBRANCH   1   4
BRANCH   1  25
ATOM     25  C   UNL     1       4.161   4.002  33.384  0.00  0.00    +0.175 C 
BRANCH  25  26
ATOM     26  C   UNL     1       5.568   3.440  33.631  0.00  0.00    +0.176 C 
ATOM     27  O   UNL     1       5.427   2.074  34.110  0.00  0.00    -0.332 OA
ATOM     28  C   UNL     1       6.679   1.336  34.300  0.00  0.00    +0.277 C 
ATOM     29  C   UNL     1       7.633   2.122  35.233  0.00  0.00    +0.110 C 
ATOM     30  C   UNL     1       7.790   3.589  34.782  0.00  0.00    +0.143 C 
ATOM     31  C   UNL     1       6.427   4.260  34.611  0.00  0.00    +0.133 C 
BRANCH  31  32
ATOM     32  N   UNL     1       6.587   5.629  34.098  0.00  0.00    -0.308 N 
ATOM     33  H   UNL     1       6.903   5.742  33.145  0.00  0.00    +0.149 HD
ATOM     34  C   UNL     1       6.342   6.733  34.809  0.00  0.00    +0.210 C 
ATOM     35  C   UNL     1       5.886   6.528  36.266  0.00  0.00    +0.109 C 
ATOM     36  O   UNL     1       6.470   7.868  34.348  0.00  0.00    -0.276 OA
ENDBRANCH  31  32
BRANCH  28  37
ATOM     37  C   UNL     1       7.375   1.081  32.947  0.00  0.00    +0.414 C 
ATOM     38  O   UNL     1       8.568   1.342  32.805  0.00  0.00    -0.240 OA
ATOM     39  O   UNL     1       6.743   0.613  31.999  0.00  0.00    -0.240 OA
ENDBRANCH  28  37
BRANCH  30  40
ATOM     40  O   UNL     1       8.553   4.311  35.749  0.00  0.00    -0.390 OA
ATOM     41  H   UNL     1       8.325   5.243  35.706  0.00  0.00    +0.210 HD
ENDBRANCH  30  40
BRANCH  28  42
ATOM     42  O   UNL     1       6.361   0.069  34.933  0.00  0.00    -0.343 OA
ATOM     43  C   UNL     1       7.470  -0.569  35.616  0.00  0.00    +0.198 C 
ENDBRANCH  28  42
ENDBRANCH  25  26
BRANCH  25  44
ATOM     44  O   UNL     1       3.553   4.386  34.634  0.00  0.00    -0.387 OA
ATOM     45  H   UNL     1       2.777   4.924  34.460  0.00  0.00    +0.210 HD
ENDBRANCH  25  44
ENDBRANCH   1  25
TORSDOF 14
