REMARK VINA RESULT:    -4.902      4.953      8.743
REMARK INTER + INTRA:         -13.520
REMARK INTER:                 -10.941
REMARK INTRA:                  -2.579
REMARK UNBOUND:                -4.177
REMARK  Name = lig_assembled_50.pdb
REMARK  20 active torsions:
REMARK  status: ('A' for Active; 'I' for Inactive)
REMARK    1  A    between atoms: _2  and  _9
REMARK    2  A    between atoms: _4  and  _17
REMARK    3  A    between atoms: _5  and  _10
REMARK    4  A    between atoms: _5  and  _11
REMARK    5  A    between atoms: _6  and  _7
REMARK    6  A    between atoms: _6  and  _17
REMARK    7  A    between atoms: _9  and  _10
REMARK    8  A    between atoms: _10  and  _12
REMARK    9  A    between atoms: _13  and  _33
REMARK   10  A    between atoms: _15  and  _21
REMARK   11  A    between atoms: _16  and  _20
REMARK   12  A    between atoms: _20  and  _21
REMARK   13  A    between atoms: _23  and  _24
REMARK   14  A    between atoms: _25  and  _26
REMARK   15  A    between atoms: _27  and  _29
REMARK   16  A    between atoms: _29  and  _30
REMARK   17  A    between atoms: _29  and  _31
REMARK   18  A    between atoms: _31  and  _32
REMARK   19  A    between atoms: _31  and  _33
REMARK   20  A    between atoms: _34  and  _36
REMARK                            x       y       z     vdW  Elec       q    Type
REMARK                         _______ _______ _______ _____ _____    ______ ____
ROOT
ATOM      1  C   UNL     1      18.666   5.273  24.605  0.00  0.00    +0.163 C 
ENDROOT
BRANCH   1   2
ATOM      2  O   UNL     1      17.765   5.455  23.500  0.00  0.00    -0.388 OA
ATOM      3  H   UNL     1      18.220   5.255  22.679  0.00  0.00    +0.210 HD
ENDBRANCH   1   2
BRANCH   1   4
ATOM      4  C   UNL     1      19.830   4.345  24.218  0.00  0.00    +0.175 C 
BRANCH   4   5
ATOM      5  C   UNL     1      19.365   2.899  23.989  0.00  0.00    +0.176 C 
ATOM      6  O   UNL     1      18.578   2.871  22.767  0.00  0.00    -0.332 OA
ATOM      7  C   UNL     1      18.134   1.544  22.330  0.00  0.00    +0.277 C 
ATOM      8  C   UNL     1      17.363   0.829  23.467  0.00  0.00    +0.110 C 
ATOM      9  C   UNL     1      18.147   0.862  24.795  0.00  0.00    +0.143 C 
ATOM     10  C   UNL     1      18.562   2.289  25.153  0.00  0.00    +0.133 C 
BRANCH  10  11
ATOM     11  N   UNL     1      19.383   2.297  26.374  0.00  0.00    -0.308 N 
ATOM     12  H   UNL     1      20.317   1.916  26.317  0.00  0.00    +0.149 HD
ATOM     13  C   UNL     1      18.974   2.775  27.553  0.00  0.00    +0.210 C 
ATOM     14  C   UNL     1      17.536   3.324  27.613  0.00  0.00    +0.109 C 
ATOM     15  O   UNL     1      19.688   2.782  28.556  0.00  0.00    -0.276 OA
ENDBRANCH  10  11
BRANCH   7  16
ATOM     16  C   UNL     1      19.337   0.679  21.901  0.00  0.00    +0.414 C 
ATOM     17  O   UNL     1      19.349  -0.529  22.136  0.00  0.00    -0.240 OA
ATOM     18  O   UNL     1      20.296   1.188  21.319  0.00  0.00    -0.240 OA
ENDBRANCH   7  16
BRANCH   9  19
ATOM     19  O   UNL     1      17.339   0.329  25.845  0.00  0.00    -0.390 OA
ATOM     20  H   UNL     1      16.787   1.025  26.210  0.00  0.00    +0.210 HD
ENDBRANCH   9  19
BRANCH   7  21
ATOM     21  O   UNL     1      17.233   1.719  21.206  0.00  0.00    -0.343 OA
ATOM     22  C   UNL     1      16.445   2.936  21.238  0.00  0.00    +0.198 C 
ENDBRANCH   7  21
ENDBRANCH   4   5
BRANCH   4  23
ATOM     23  O   UNL     1      20.854   4.383  25.232  0.00  0.00    -0.387 OA
ATOM     24  H   UNL     1      20.848   3.559  25.724  0.00  0.00    +0.210 HD
ENDBRANCH   4  23
ENDBRANCH   1   4
BRANCH   1  25
ATOM     25  C   UNL     1      19.217   6.622  25.055  0.00  0.00    +0.141 C 
BRANCH  25  28
ATOM     26  C   UNL     1      19.349   6.687  27.522  0.00  0.00    +0.401 C 
ATOM     27  O   UNL     1      20.400   6.043  27.577  0.00  0.00    -0.226 OA
ATOM     28  N   UNL     1      18.724   6.998  26.386  0.00  0.00    -0.279 N 
ATOM     29  H   UNL     1      17.862   7.522  26.444  0.00  0.00    +0.152 HD
BRANCH  26  30
ATOM     30  O   UNL     1      18.745   7.135  28.738  0.00  0.00    -0.444 OA
BRANCH  30  31
ATOM     31  C   UNL     1      19.136   8.487  28.996  0.00  0.00    +0.292 C 
BRANCH  31  33
ATOM     32  N   UNL     1      17.706  10.193  30.087  0.00  0.00    -0.131 NA
ATOM     33  C   UNL     1      18.411   9.018  30.168  0.00  0.00    +0.120 A 
ATOM     34  C   UNL     1      18.288   8.506  31.443  0.00  0.00    +0.137 A 
ATOM     35  N   UNL     1      17.509   9.414  32.085  0.00  0.00    -0.249 N 
ATOM     36  N   UNL     1      17.145  10.418  31.265  0.00  0.00    -0.065 NA
BRANCH  35  37
ATOM     37  C   UNL     1      17.074   9.409  33.464  0.00  0.00    +0.178 C 
BRANCH  37  38
ATOM     38  C   UNL     1      15.665   8.841  33.673  0.00  0.00    +0.161 C 
BRANCH  38  39
ATOM     39  O   UNL     1      14.727   9.324  32.707  0.00  0.00    -0.388 OA
ATOM     40  H   UNL     1      14.715  10.302  32.747  0.00  0.00    +0.210 HD
ENDBRANCH  38  39
BRANCH  38  41
ATOM     41  C   UNL     1      15.622   7.308  33.716  0.00  0.00    +0.189 C 
BRANCH  41  42
ATOM     42  O   UNL     1      15.301   6.761  32.437  0.00  0.00    -0.392 OA
ATOM     43  H   UNL     1      15.477   5.802  32.464  0.00  0.00    +0.210 HD
ENDBRANCH  41  42
ENDBRANCH  38  41
ENDBRANCH  37  38
ENDBRANCH  35  37
ENDBRANCH  31  33
ENDBRANCH  30  31
ENDBRANCH  26  30
ENDBRANCH  25  28
ENDBRANCH   1  25
TORSDOF 18
