REMARK VINA RESULT:    -5.556      1.808      2.455
REMARK INTER + INTRA:         -15.752
REMARK INTER:                 -12.853
REMARK INTRA:                  -2.899
REMARK UNBOUND:                -2.725
REMARK  Name = lig_assembled_30.pdb
REMARK  27 active torsions:
REMARK  status: ('A' for Active; 'I' for Inactive)
REMARK    1  A    between atoms: _2  and  _9
REMARK    2  A    between atoms: _4  and  _25
REMARK    3  A    between atoms: _5  and  _18
REMARK    4  A    between atoms: _5  and  _19
REMARK    5  A    between atoms: _6  and  _7
REMARK    6  A    between atoms: _6  and  _25
REMARK    7  A    between atoms: _9  and  _10
REMARK    8  A    between atoms: _10  and  _11
REMARK    9  A    between atoms: _11  and  _12
REMARK   10  A    between atoms: _12  and  _13
REMARK   11  A    between atoms: _13  and  _14
REMARK   12  A    between atoms: _14  and  _15
REMARK   13  A    between atoms: _15  and  _16
REMARK   14  A    between atoms: _16  and  _17
REMARK   15  A    between atoms: _17  and  _18
REMARK   16  A    between atoms: _21  and  _41
REMARK   17  A    between atoms: _23  and  _29
REMARK   18  A    between atoms: _24  and  _28
REMARK   19  A    between atoms: _28  and  _29
REMARK   20  A    between atoms: _31  and  _32
REMARK   21  A    between atoms: _33  and  _34
REMARK   22  A    between atoms: _35  and  _37
REMARK   23  A    between atoms: _37  and  _38
REMARK   24  A    between atoms: _37  and  _39
REMARK   25  A    between atoms: _39  and  _40
REMARK   26  A    between atoms: _39  and  _41
REMARK   27  A    between atoms: _42  and  _44
REMARK                            x       y       z     vdW  Elec       q    Type
REMARK                         _______ _______ _______ _____ _____    ______ ____
ROOT
ATOM      1  C   UNL     1      20.398   9.218  26.494  0.00  0.00    +0.401 C 
ATOM      2  O   UNL     1      20.844  10.087  25.741  0.00  0.00    -0.226 OA
ATOM      3  N   UNL     1      20.012   9.446  27.750  0.00  0.00    -0.279 N 
ATOM      4  H   UNL     1      19.651   8.670  28.287  0.00  0.00    +0.152 HD
ENDROOT
BRANCH   1   5
ATOM      5  O   UNL     1      20.274   7.877  26.012  0.00  0.00    -0.444 OA
BRANCH   5   6
ATOM      6  C   UNL     1      18.964   7.682  25.473  0.00  0.00    +0.292 C 
BRANCH   6   8
ATOM      7  N   UNL     1      18.339   6.110  23.667  0.00  0.00    -0.131 NA
ATOM      8  C   UNL     1      18.832   6.319  24.928  0.00  0.00    +0.120 A 
ATOM      9  C   UNL     1      19.137   5.104  25.501  0.00  0.00    +0.137 A 
ATOM     10  N   UNL     1      18.805   4.199  24.539  0.00  0.00    -0.251 N 
ATOM     11  N   UNL     1      18.325   4.802  23.439  0.00  0.00    -0.065 NA
BRANCH  10  12
ATOM     12  C   UNL     1      18.878   2.756  24.613  0.00  0.00    +0.145 C 
BRANCH  12  13
ATOM     13  C   UNL     1      17.488   2.138  24.713  0.00  0.00    +0.023 C 
BRANCH  13  14
ATOM     14  C   UNL     1      17.548   0.624  24.906  0.00  0.00    +0.002 C 
BRANCH  14  15
ATOM     15  C   UNL     1      16.135   0.044  24.968  0.00  0.00    +0.000 C 
BRANCH  15  16
ATOM     16  C   UNL     1      16.103  -1.419  24.535  0.00  0.00    +0.000 C 
BRANCH  16  17
ATOM     17  C   UNL     1      17.519  -1.945  24.293  0.00  0.00    +0.000 C 
BRANCH  17  18
ATOM     18  C   UNL     1      17.728  -2.293  22.822  0.00  0.00    +0.000 C 
BRANCH  18  19
ATOM     19  C   UNL     1      18.909  -1.529  22.224  0.00  0.00    +0.001 C 
BRANCH  19  20
ATOM     20  C   UNL     1      18.430  -0.581  21.124  0.00  0.00    +0.011 C 
BRANCH  20  21
ATOM     21  C   UNL     1      18.824   0.866  21.408  0.00  0.00    +0.120 C 
BRANCH  21  22
ATOM     22  C   UNL     1      17.860   1.837  20.767  0.00  0.00    +0.305 C 
ATOM     23  O   UNL     1      16.837   2.263  21.281  0.00  0.00    -0.251 OA
BRANCH  22  24
ATOM     24  O   UNL     1      18.249   2.205  19.526  0.00  0.00    -0.481 OA
ATOM     25  H   UNL     1      19.110   1.833  19.258  0.00  0.00    +0.295 HD
ENDBRANCH  22  24
ENDBRANCH  21  22
ENDBRANCH  20  21
ENDBRANCH  19  20
ENDBRANCH  18  19
ENDBRANCH  17  18
ENDBRANCH  16  17
ENDBRANCH  15  16
ENDBRANCH  14  15
ENDBRANCH  13  14
ENDBRANCH  12  13
ENDBRANCH  10  12
ENDBRANCH   6   8
ENDBRANCH   5   6
ENDBRANCH   1   5
BRANCH   3  26
ATOM     26  C   UNL     1      20.084  10.762  28.397  0.00  0.00    +0.141 C 
BRANCH  26  27
ATOM     27  C   UNL     1      18.989  10.941  29.444  0.00  0.00    +0.163 C 
BRANCH  27  28
ATOM     28  O   UNL     1      17.743  10.430  28.944  0.00  0.00    -0.388 OA
ATOM     29  H   UNL     1      17.059  11.096  29.048  0.00  0.00    +0.210 HD
ENDBRANCH  27  28
BRANCH  27  30
ATOM     30  C   UNL     1      19.397  10.223  30.742  0.00  0.00    +0.175 C 
BRANCH  30  31
ATOM     31  C   UNL     1      18.190   9.615  31.471  0.00  0.00    +0.176 C 
ATOM     32  O   UNL     1      18.133  10.195  32.803  0.00  0.00    -0.332 OA
ATOM     33  C   UNL     1      16.974   9.809  33.614  0.00  0.00    +0.277 C 
ATOM     34  C   UNL     1      16.870   8.267  33.709  0.00  0.00    +0.110 C 
ATOM     35  C   UNL     1      16.957   7.603  32.319  0.00  0.00    +0.143 C 
ATOM     36  C   UNL     1      18.198   8.078  31.561  0.00  0.00    +0.133 C 
BRANCH  36  37
ATOM     37  N   UNL     1      18.224   7.506  30.205  0.00  0.00    -0.308 N 
ATOM     38  H   UNL     1      17.476   7.756  29.574  0.00  0.00    +0.149 HD
ATOM     39  C   UNL     1      19.171   6.679  29.755  0.00  0.00    +0.210 C 
ATOM     40  C   UNL     1      20.283   6.298  30.750  0.00  0.00    +0.109 C 
ATOM     41  O   UNL     1      19.175   6.227  28.610  0.00  0.00    -0.276 OA
ENDBRANCH  36  37
BRANCH  33  42
ATOM     42  C   UNL     1      15.672  10.377  33.013  0.00  0.00    +0.414 C 
ATOM     43  O   UNL     1      14.608   9.778  33.159  0.00  0.00    -0.240 OA
ATOM     44  O   UNL     1      15.686  11.435  32.381  0.00  0.00    -0.240 OA
ENDBRANCH  33  42
BRANCH  35  45
ATOM     45  O   UNL     1      17.010   6.183  32.465  0.00  0.00    -0.390 OA
ATOM     46  H   UNL     1      16.292   5.893  33.032  0.00  0.00    +0.210 HD
ENDBRANCH  35  45
BRANCH  33  47
ATOM     47  O   UNL     1      17.166  10.338  34.951  0.00  0.00    -0.343 OA
ATOM     48  C   UNL     1      16.917   9.395  36.024  0.00  0.00    +0.198 C 
ENDBRANCH  33  47
ENDBRANCH  30  31
BRANCH  30  49
ATOM     49  O   UNL     1      20.097  11.133  31.614  0.00  0.00    -0.387 OA
ATOM     50  H   UNL     1      20.401  11.890  31.109  0.00  0.00    +0.210 HD
ENDBRANCH  30  49
ENDBRANCH  27  30
ENDBRANCH  26  27
ENDBRANCH   3  26
TORSDOF 25
