REMARK VINA RESULT:    -6.122      3.596      5.422
REMARK INTER + INTRA:         -12.930
REMARK INTER:                 -11.115
REMARK INTRA:                  -1.815
REMARK UNBOUND:                -2.334
REMARK  Name = lig_assembled_15.pdb
REMARK  16 active torsions:
REMARK  status: ('A' for Active; 'I' for Inactive)
REMARK    1  A    between atoms: _2  and  _9
REMARK    2  A    between atoms: _4  and  _18
REMARK    3  A    between atoms: _6  and  _7
REMARK    4  A    between atoms: _6  and  _18
REMARK    5  A    between atoms: _14  and  _34
REMARK    6  A    between atoms: _16  and  _22
REMARK    7  A    between atoms: _17  and  _21
REMARK    8  A    between atoms: _21  and  _22
REMARK    9  A    between atoms: _24  and  _25
REMARK   10  A    between atoms: _26  and  _27
REMARK   11  A    between atoms: _28  and  _30
REMARK   12  A    between atoms: _30  and  _31
REMARK   13  A    between atoms: _30  and  _32
REMARK   14  A    between atoms: _32  and  _33
REMARK   15  A    between atoms: _32  and  _34
REMARK   16  A    between atoms: _35  and  _37
REMARK                            x       y       z     vdW  Elec       q    Type
REMARK                         _______ _______ _______ _____ _____    ______ ____
ROOT
ATOM      1  C   UNL     1       7.632   2.488  34.293  0.00  0.00    +0.163 C 
ENDROOT
BRANCH   1   2
ATOM      2  O   UNL     1       8.261   2.482  35.585  0.00  0.00    -0.388 OA
ATOM      3  H   UNL     1       9.104   2.025  35.529  0.00  0.00    +0.210 HD
ENDBRANCH   1   2
BRANCH   1   4
ATOM      4  C   UNL     1       8.203   1.368  33.429  0.00  0.00    +0.141 C 
BRANCH   4   7
ATOM      5  C   UNL     1       6.228   0.223  32.485  0.00  0.00    +0.401 C 
ATOM      6  O   UNL     1       5.925   1.158  31.739  0.00  0.00    -0.226 OA
ATOM      7  N   UNL     1       7.273   0.238  33.313  0.00  0.00    -0.279 N 
ATOM      8  H   UNL     1       7.434  -0.573  33.892  0.00  0.00    +0.152 HD
BRANCH   5   9
ATOM      9  O   UNL     1       5.421  -0.957  32.481  0.00  0.00    -0.444 OA
BRANCH   9  10
ATOM     10  C   UNL     1       6.087  -1.989  31.749  0.00  0.00    +0.292 C 
BRANCH  10  12
ATOM     11  N   UNL     1       6.946  -1.883  29.431  0.00  0.00    -0.131 NA
ATOM     12  C   UNL     1       5.898  -1.792  30.299  0.00  0.00    +0.121 A 
ATOM     13  C   UNL     1       4.751  -1.516  29.590  0.00  0.00    +0.143 A 
ATOM     14  N   UNL     1       5.148  -1.476  28.274  0.00  0.00    -0.220 N 
ATOM     15  N   UNL     1       6.485  -1.684  28.204  0.00  0.00    -0.060 NA
BRANCH  14  16
ATOM     16  C   UNL     1       4.353  -1.287  27.112  0.00  0.00    +0.067 A 
ATOM     17  C   UNL     1       4.784  -1.752  25.861  0.00  0.00    +0.029 A 
ATOM     18  C   UNL     1       4.006  -1.520  24.722  0.00  0.00    +0.017 A 
ATOM     19  C   UNL     1       2.801  -0.829  24.831  0.00  0.00    +0.018 A 
ATOM     20 BR   UNL     1       1.770  -0.496  23.281  0.00  0.00    -0.050 Br
ATOM     21  C   UNL     1       2.356  -0.376  26.071  0.00  0.00    +0.017 A 
ATOM     22  C   UNL     1       3.129  -0.606  27.212  0.00  0.00    +0.029 A 
ENDBRANCH  14  16
ENDBRANCH  10  12
ENDBRANCH   9  10
ENDBRANCH   5   9
ENDBRANCH   4   7
ENDBRANCH   1   4
BRANCH   1  23
ATOM     23  C   UNL     1       7.839   3.839  33.586  0.00  0.00    +0.175 C 
BRANCH  23  24
ATOM     24  C   UNL     1       7.186   4.998  34.352  0.00  0.00    +0.176 C 
ATOM     25  O   UNL     1       7.928   5.192  35.588  0.00  0.00    -0.332 OA
ATOM     26  C   UNL     1       7.510   6.334  36.406  0.00  0.00    +0.277 C 
ATOM     27  C   UNL     1       5.994   6.254  36.713  0.00  0.00    +0.110 C 
ATOM     28  C   UNL     1       5.166   6.016  35.433  0.00  0.00    +0.143 C 
ATOM     29  C   UNL     1       5.689   4.807  34.657  0.00  0.00    +0.133 C 
BRANCH  29  30
ATOM     30  N   UNL     1       4.948   4.643  33.397  0.00  0.00    -0.308 N 
ATOM     31  H   UNL     1       5.097   5.328  32.669  0.00  0.00    +0.149 HD
ATOM     32  C   UNL     1       4.090   3.649  33.152  0.00  0.00    +0.210 C 
ATOM     33  C   UNL     1       3.864   2.636  34.290  0.00  0.00    +0.109 C 
ATOM     34  O   UNL     1       3.494   3.529  32.081  0.00  0.00    -0.276 OA
ENDBRANCH  29  30
BRANCH  26  35
ATOM     35  C   UNL     1       7.821   7.664  35.689  0.00  0.00    +0.414 C 
ATOM     36  O   UNL     1       7.767   7.734  34.462  0.00  0.00    -0.240 OA
ATOM     37  O   UNL     1       8.124   8.667  36.337  0.00  0.00    -0.240 OA
ENDBRANCH  26  35
BRANCH  28  38
ATOM     38  O   UNL     1       3.797   5.798  35.778  0.00  0.00    -0.390 OA
ATOM     39  H   UNL     1       3.340   6.641  35.823  0.00  0.00    +0.210 HD
ENDBRANCH  28  38
BRANCH  26  40
ATOM     40  O   UNL     1       8.234   6.276  37.662  0.00  0.00    -0.343 OA
ATOM     41  C   UNL     1       8.176   4.998  38.344  0.00  0.00    +0.198 C 
ENDBRANCH  26  40
ENDBRANCH  23  24
BRANCH  23  42
ATOM     42  O   UNL     1       7.325   3.780  32.241  0.00  0.00    -0.387 OA
ATOM     43  H   UNL     1       7.610   4.557  31.754  0.00  0.00    +0.210 HD
ENDBRANCH  23  42
ENDBRANCH   1  23
TORSDOF 14
