REMARK VINA RESULT:    -5.790     11.723     16.455
REMARK INTER + INTRA:         -14.228
REMARK INTER:                 -12.253
REMARK INTRA:                  -1.975
REMARK UNBOUND:                -3.868
REMARK  Name = lig_assembled_85.pdb
REMARK  19 active torsions:
REMARK  status: ('A' for Active; 'I' for Inactive)
REMARK    1  A    between atoms: _2  and  _10
REMARK    2  A    between atoms: _3  and  _6
REMARK    3  A    between atoms: _3  and  _17
REMARK    4  A    between atoms: _5  and  _23
REMARK    5  A    between atoms: _7  and  _8
REMARK    6  A    between atoms: _7  and  _23
REMARK    7  A    between atoms: _15  and  _16
REMARK    8  A    between atoms: _19  and  _39
REMARK    9  A    between atoms: _21  and  _27
REMARK   10  A    between atoms: _22  and  _26
REMARK   11  A    between atoms: _26  and  _27
REMARK   12  A    between atoms: _29  and  _30
REMARK   13  A    between atoms: _31  and  _32
REMARK   14  A    between atoms: _33  and  _35
REMARK   15  A    between atoms: _35  and  _36
REMARK   16  A    between atoms: _35  and  _37
REMARK   17  A    between atoms: _37  and  _38
REMARK   18  A    between atoms: _37  and  _39
REMARK   19  A    between atoms: _40  and  _42
REMARK                            x       y       z     vdW  Elec       q    Type
REMARK                         _______ _______ _______ _____ _____    ______ ____
ROOT
ATOM      1  C   UNL     1      11.427   2.843  36.032  0.00  0.00    +0.141 C 
ENDROOT
BRANCH   1   4
ATOM      2  C   UNL     1      13.399   4.157  35.330  0.00  0.00    +0.401 C 
ATOM      3  O   UNL     1      13.612   3.476  34.325  0.00  0.00    -0.226 OA
ATOM      4  N   UNL     1      12.403   3.929  36.188  0.00  0.00    -0.279 N 
ATOM      5  H   UNL     1      12.315   4.537  36.989  0.00  0.00    +0.152 HD
BRANCH   2   6
ATOM      6  O   UNL     1      14.260   5.261  35.617  0.00  0.00    -0.444 OA
BRANCH   6   7
ATOM      7  C   UNL     1      15.457   5.148  34.842  0.00  0.00    +0.292 C 
BRANCH   7   9
ATOM      8  N   UNL     1      15.215   6.712  32.947  0.00  0.00    -0.131 NA
ATOM      9  C   UNL     1      15.752   6.425  34.170  0.00  0.00    +0.121 A 
ATOM     10  C   UNL     1      16.494   7.499  34.605  0.00  0.00    +0.143 A 
ATOM     11  N   UNL     1      16.375   8.432  33.605  0.00  0.00    -0.219 N 
ATOM     12  N   UNL     1      15.577   7.945  32.625  0.00  0.00    -0.060 NA
BRANCH  11  13
ATOM     13  C   UNL     1      16.868   9.754  33.544  0.00  0.00    +0.080 A 
ATOM     14  C   UNL     1      17.643  10.259  32.488  0.00  0.00    +0.062 A 
ATOM     15  C   UNL     1      18.273  11.511  32.676  0.00  0.00    +0.016 A 
ATOM     16  C   UNL     1      18.121  12.246  33.856  0.00  0.00    +0.021 A 
ATOM     17  C   UNL     1      17.292  11.763  34.858  0.00  0.00    +0.043 A 
ATOM     18 CL   UNL     1      17.121  12.636  36.329  0.00  0.00    -0.083 Cl
ATOM     19  C   UNL     1      16.646  10.541  34.697  0.00  0.00    +0.048 A 
BRANCH  14  20
ATOM     20  C   UNL     1      17.972   9.612  31.182  0.00  0.00    +0.248 C 
ATOM     21  O   UNL     1      17.445  10.132  30.195  0.00  0.00    -0.270 OA
ATOM     22  N   UNL     1      18.760   8.463  31.058  0.00  0.00    -0.304 N 
ATOM     23  C   UNL     1      19.552   7.806  32.089  0.00  0.00    +0.132 C 
ATOM     24  C   UNL     1      18.968   7.964  29.702  0.00  0.00    +0.132 C 
ENDBRANCH  14  20
ENDBRANCH  11  13
ENDBRANCH   7   9
ENDBRANCH   6   7
ENDBRANCH   2   6
ENDBRANCH   1   4
BRANCH   1  25
ATOM     25  C   UNL     1      10.263   3.249  35.135  0.00  0.00    +0.163 C 
BRANCH  25  26
ATOM     26  O   UNL     1      10.114   2.301  34.065  0.00  0.00    -0.388 OA
ATOM     27  H   UNL     1       9.244   2.398  33.669  0.00  0.00    +0.210 HD
ENDBRANCH  25  26
BRANCH  25  28
ATOM     28  C   UNL     1       8.976   3.340  35.972  0.00  0.00    +0.175 C 
BRANCH  28  29
ATOM     29  C   UNL     1       8.068   4.490  35.513  0.00  0.00    +0.176 C 
ATOM     30  O   UNL     1       7.704   5.269  36.686  0.00  0.00    -0.332 OA
ATOM     31  C   UNL     1       6.919   6.479  36.425  0.00  0.00    +0.277 C 
ATOM     32  C   UNL     1       5.648   6.134  35.612  0.00  0.00    +0.110 C 
ATOM     33  C   UNL     1       5.980   5.279  34.371  0.00  0.00    +0.143 C 
ATOM     34  C   UNL     1       6.801   4.048  34.756  0.00  0.00    +0.133 C 
BRANCH  34  35
ATOM     35  N   UNL     1       7.185   3.288  33.556  0.00  0.00    -0.308 N 
ATOM     36  H   UNL     1       7.743   3.760  32.858  0.00  0.00    +0.149 HD
ATOM     37  C   UNL     1       6.845   2.017  33.329  0.00  0.00    +0.210 C 
ATOM     38  C   UNL     1       5.973   1.335  34.400  0.00  0.00    +0.109 C 
ATOM     39  O   UNL     1       7.194   1.401  32.321  0.00  0.00    -0.276 OA
ENDBRANCH  34  35
BRANCH  31  40
ATOM     40  C   UNL     1       7.758   7.520  35.655  0.00  0.00    +0.414 C 
ATOM     41  O   UNL     1       7.262   8.145  34.718  0.00  0.00    -0.240 OA
ATOM     42  O   UNL     1       8.929   7.734  35.970  0.00  0.00    -0.240 OA
ENDBRANCH  31  40
BRANCH  33  43
ATOM     43  O   UNL     1       4.771   4.859  33.737  0.00  0.00    -0.390 OA
ATOM     44  H   UNL     1       4.957   4.599  32.832  0.00  0.00    +0.210 HD
ENDBRANCH  33  43
BRANCH  31  45
ATOM     45  O   UNL     1       6.509   7.031  37.703  0.00  0.00    -0.343 OA
ATOM     46  C   UNL     1       6.962   6.291  38.864  0.00  0.00    +0.198 C 
ENDBRANCH  31  45
ENDBRANCH  28  29
BRANCH  28  47
ATOM     47  O   UNL     1       9.301   3.491  37.368  0.00  0.00    -0.387 OA
ATOM     48  H   UNL     1       9.345   2.626  37.783  0.00  0.00    +0.210 HD
ENDBRANCH  28  47
ENDBRANCH  25  28
ENDBRANCH   1  25
TORSDOF 15
