REMARK VINA RESULT:    -5.300      7.122     12.023
REMARK INTER + INTRA:         -12.109
REMARK INTER:                  -9.173
REMARK INTRA:                  -2.936
REMARK UNBOUND:                -2.936
REMARK  Name = lig_assembled_93.pdb
REMARK  16 active torsions:
REMARK  status: ('A' for Active; 'I' for Inactive)
REMARK    1  A    between atoms: _2  and  _9
REMARK    2  A    between atoms: _4  and  _18
REMARK    3  A    between atoms: _6  and  _7
REMARK    4  A    between atoms: _6  and  _18
REMARK    5  A    between atoms: _14  and  _34
REMARK    6  A    between atoms: _16  and  _22
REMARK    7  A    between atoms: _17  and  _21
REMARK    8  A    between atoms: _21  and  _22
REMARK    9  A    between atoms: _24  and  _25
REMARK   10  A    between atoms: _26  and  _27
REMARK   11  A    between atoms: _28  and  _30
REMARK   12  A    between atoms: _30  and  _31
REMARK   13  A    between atoms: _30  and  _32
REMARK   14  A    between atoms: _32  and  _33
REMARK   15  A    between atoms: _32  and  _34
REMARK   16  A    between atoms: _35  and  _37
REMARK                            x       y       z     vdW  Elec       q    Type
REMARK                         _______ _______ _______ _____ _____    ______ ____
ROOT
ATOM      1  C   UNL     1      -0.868   0.156  22.724  0.00  0.00    +0.163 C 
ENDROOT
BRANCH   1   2
ATOM      2  O   UNL     1      -1.867   0.696  21.844  0.00  0.00    -0.388 OA
ATOM      3  H   UNL     1      -2.741   0.484  22.182  0.00  0.00    +0.210 HD
ENDBRANCH   1   2
BRANCH   1   4
ATOM      4  C   UNL     1      -1.495  -0.876  23.656  0.00  0.00    +0.141 C 
BRANCH   4   7
ATOM      5  C   UNL     1      -0.350  -3.026  23.241  0.00  0.00    +0.401 C 
ATOM      6  O   UNL     1      -0.939  -3.243  22.180  0.00  0.00    -0.226 OA
ATOM      7  N   UNL     1      -0.552  -1.947  23.999  0.00  0.00    -0.279 N 
ATOM      8  H   UNL     1      -0.027  -1.863  24.859  0.00  0.00    +0.152 HD
BRANCH   5   9
ATOM      9  O   UNL     1       0.610  -3.976  23.710  0.00  0.00    -0.444 OA
BRANCH   9  10
ATOM     10  C   UNL     1       1.861  -3.755  23.053  0.00  0.00    +0.292 C 
BRANCH  10  12
ATOM     11  N   UNL     1       2.792  -1.613  23.848  0.00  0.00    -0.131 NA
ATOM     12  C   UNL     1       2.762  -2.970  23.917  0.00  0.00    +0.121 A 
ATOM     13  C   UNL     1       3.656  -3.386  24.875  0.00  0.00    +0.143 A 
ATOM     14  N   UNL     1       4.214  -2.229  25.392  0.00  0.00    -0.219 N 
ATOM     15  N   UNL     1       3.674  -1.178  24.736  0.00  0.00    -0.060 NA
BRANCH  14  16
ATOM     16  C   UNL     1       5.179  -2.105  26.441  0.00  0.00    +0.080 A 
ATOM     17  C   UNL     1       6.515  -2.469  26.149  0.00  0.00    +0.029 A 
ATOM     18  C   UNL     1       7.524  -2.400  27.113  0.00  0.00    +0.002 A 
ATOM     19  C   UNL     1       7.230  -1.964  28.394  0.00  0.00    +0.001 A 
ATOM     20  C   UNL     1       5.925  -1.592  28.708  0.00  0.00    +0.016 A 
ATOM     21  C   UNL     1       4.893  -1.654  27.747  0.00  0.00    +0.039 A 
ATOM     22  I   UNL     1       3.030  -1.020  28.525  0.00  0.00    -0.042 I 
ENDBRANCH  14  16
ENDBRANCH  10  12
ENDBRANCH   9  10
ENDBRANCH   5   9
ENDBRANCH   4   7
ENDBRANCH   1   4
BRANCH   1  23
ATOM     23  C   UNL     1      -0.211   1.270  23.558  0.00  0.00    +0.175 C 
BRANCH  23  24
ATOM     24  C   UNL     1       0.061   2.531  22.726  0.00  0.00    +0.176 C 
ATOM     25  O   UNL     1       0.712   2.121  21.492  0.00  0.00    -0.332 OA
ATOM     26  C   UNL     1       0.956   3.189  20.518  0.00  0.00    +0.277 C 
ATOM     27  C   UNL     1       1.753   4.345  21.171  0.00  0.00    +0.110 C 
ATOM     28  C   UNL     1       1.117   4.794  22.503  0.00  0.00    +0.143 C 
ATOM     29  C   UNL     1       0.905   3.604  23.439  0.00  0.00    +0.133 C 
BRANCH  29  30
ATOM     30  N   UNL     1       0.220   4.031  24.669  0.00  0.00    -0.308 N 
ATOM     31  H   UNL     1      -0.727   4.374  24.586  0.00  0.00    +0.149 HD
ATOM     32  C   UNL     1       0.766   3.995  25.887  0.00  0.00    +0.210 C 
ATOM     33  C   UNL     1       2.219   3.491  25.977  0.00  0.00    +0.109 C 
ATOM     34  O   UNL     1       0.163   4.345  26.902  0.00  0.00    -0.276 OA
ENDBRANCH  29  30
BRANCH  26  35
ATOM     35  C   UNL     1      -0.375   3.733  19.958  0.00  0.00    +0.414 C 
ATOM     36  O   UNL     1      -1.289   2.961  19.673  0.00  0.00    -0.240 OA
ATOM     37  O   UNL     1      -0.534   4.943  19.792  0.00  0.00    -0.240 OA
ENDBRANCH  26  35
BRANCH  28  38
ATOM     38  O   UNL     1       1.963   5.751  23.143  0.00  0.00    -0.390 OA
ATOM     39  H   UNL     1       2.738   5.908  22.598  0.00  0.00    +0.210 HD
ENDBRANCH  28  38
BRANCH  26  40
ATOM     40  O   UNL     1       1.752   2.638  19.437  0.00  0.00    -0.343 OA
ATOM     41  C   UNL     1       2.284   3.616  18.508  0.00  0.00    +0.198 C 
ENDBRANCH  26  40
ENDBRANCH  23  24
BRANCH  23  42
ATOM     42  O   UNL     1       1.013   0.791  24.150  0.00  0.00    -0.387 OA
ATOM     43  H   UNL     1       1.506   1.531  24.511  0.00  0.00    +0.210 HD
ENDBRANCH  23  42
ENDBRANCH   1  23
TORSDOF 14
