REMARK VINA RESULT:    -5.457      4.406      6.476
REMARK INTER + INTRA:         -12.831
REMARK INTER:                 -10.652
REMARK INTRA:                  -2.179
REMARK UNBOUND:                -2.111
REMARK  Name = lig_assembled_17.pdb
REMARK  22 active torsions:
REMARK  status: ('A' for Active; 'I' for Inactive)
REMARK    1  A    between atoms: _2  and  _10
REMARK    2  A    between atoms: _3  and  _11
REMARK    3  A    between atoms: _3  and  _12
REMARK    4  A    between atoms: _3  and  _14
REMARK    5  A    between atoms: _5  and  _19
REMARK    6  A    between atoms: _6  and  _14
REMARK    7  A    between atoms: _7  and  _8
REMARK    8  A    between atoms: _7  and  _19
REMARK    9  A    between atoms: _10  and  _11
REMARK   10  A    between atoms: _12  and  _13
REMARK   11  A    between atoms: _15  and  _35
REMARK   12  A    between atoms: _17  and  _23
REMARK   13  A    between atoms: _18  and  _22
REMARK   14  A    between atoms: _22  and  _23
REMARK   15  A    between atoms: _25  and  _26
REMARK   16  A    between atoms: _27  and  _28
REMARK   17  A    between atoms: _29  and  _31
REMARK   18  A    between atoms: _31  and  _32
REMARK   19  A    between atoms: _31  and  _33
REMARK   20  A    between atoms: _33  and  _34
REMARK   21  A    between atoms: _33  and  _35
REMARK   22  A    between atoms: _36  and  _38
REMARK                            x       y       z     vdW  Elec       q    Type
REMARK                         _______ _______ _______ _____ _____    ______ ____
ROOT
ATOM      1  C   UNL     1       7.774   2.426  34.098  0.00  0.00    +0.163 C 
ENDROOT
BRANCH   1   2
ATOM      2  O   UNL     1       8.517   2.678  35.302  0.00  0.00    -0.388 OA
ATOM      3  H   UNL     1       8.657   3.623  35.400  0.00  0.00    +0.210 HD
ENDBRANCH   1   2
BRANCH   1   4
ATOM      4  C   UNL     1       7.709   3.686  33.218  0.00  0.00    +0.175 C 
BRANCH   4   5
ATOM      5  C   UNL     1       6.925   4.822  33.892  0.00  0.00    +0.176 C 
ATOM      6  O   UNL     1       7.748   5.358  34.964  0.00  0.00    -0.332 OA
ATOM      7  C   UNL     1       7.202   6.529  35.657  0.00  0.00    +0.277 C 
ATOM      8  C   UNL     1       5.779   6.228  36.189  0.00  0.00    +0.110 C 
ATOM      9  C   UNL     1       4.876   5.626  35.092  0.00  0.00    +0.143 C 
ATOM     10  C   UNL     1       5.542   4.417  34.435  0.00  0.00    +0.133 C 
BRANCH  10  11
ATOM     11  N   UNL     1       4.711   3.906  33.334  0.00  0.00    -0.308 N 
ATOM     12  H   UNL     1       4.629   4.474  32.502  0.00  0.00    +0.149 HD
ATOM     13  C   UNL     1       4.059   2.740  33.361  0.00  0.00    +0.210 C 
ATOM     14  C   UNL     1       4.184   1.910  34.652  0.00  0.00    +0.109 C 
ATOM     15  O   UNL     1       3.382   2.331  32.417  0.00  0.00    -0.276 OA
ENDBRANCH  10  11
BRANCH   7  16
ATOM     16  C   UNL     1       7.152   7.749  34.714  0.00  0.00    +0.414 C 
ATOM     17  O   UNL     1       6.071   8.187  34.323  0.00  0.00    -0.240 OA
ATOM     18  O   UNL     1       8.193   8.295  34.345  0.00  0.00    -0.240 OA
ENDBRANCH   7  16
BRANCH   9  19
ATOM     19  O   UNL     1       3.629   5.226  35.660  0.00  0.00    -0.390 OA
ATOM     20  H   UNL     1       3.670   5.310  36.616  0.00  0.00    +0.210 HD
ENDBRANCH   9  19
BRANCH   7  21
ATOM     21  O   UNL     1       8.061   6.821  36.789  0.00  0.00    -0.343 OA
ATOM     22  C   UNL     1       7.455   6.608  38.089  0.00  0.00    +0.198 C 
ENDBRANCH   7  21
ENDBRANCH   4   5
BRANCH   4  23
ATOM     23  O   UNL     1       7.123   3.369  31.939  0.00  0.00    -0.387 OA
ATOM     24  H   UNL     1       7.749   2.860  31.418  0.00  0.00    +0.210 HD
ENDBRANCH   4  23
ENDBRANCH   1   4
BRANCH   1  25
ATOM     25  C   UNL     1       8.420   1.289  33.314  0.00  0.00    +0.141 C 
BRANCH  25  28
ATOM     26  C   UNL     1       6.563  -0.146  32.542  0.00  0.00    +0.401 C 
ATOM     27  O   UNL     1       6.167   0.660  31.697  0.00  0.00    -0.226 OA
ATOM     28  N   UNL     1       7.605   0.069  33.346  0.00  0.00    -0.279 N 
ATOM     29  H   UNL     1       7.848  -0.649  34.015  0.00  0.00    +0.152 HD
BRANCH  26  30
ATOM     30  O   UNL     1       5.876  -1.391  32.691  0.00  0.00    -0.444 OA
BRANCH  30  31
ATOM     31  C   UNL     1       6.646  -2.437  32.093  0.00  0.00    +0.292 C 
BRANCH  31  33
ATOM     32  N   UNL     1       7.470  -2.240  29.770  0.00  0.00    -0.131 NA
ATOM     33  C   UNL     1       6.430  -2.459  30.635  0.00  0.00    +0.120 A 
ATOM     34  C   UNL     1       5.282  -2.691  29.910  0.00  0.00    +0.137 A 
ATOM     35  N   UNL     1       5.696  -2.618  28.615  0.00  0.00    -0.250 N 
ATOM     36  N   UNL     1       7.008  -2.336  28.533  0.00  0.00    -0.065 NA
BRANCH  35  37
ATOM     37  C   UNL     1       4.927  -2.845  27.408  0.00  0.00    +0.160 C 
BRANCH  37  38
ATOM     38  C   UNL     1       5.302  -1.821  26.328  0.00  0.00    +0.107 C 
BRANCH  38  39
ATOM     39  N   UNL     1       4.591  -1.951  25.032  0.00  0.00    -0.301 NA
BRANCH  39  40
ATOM     40  C   UNL     1       3.751  -0.783  24.708  0.00  0.00    +0.081 C 
ATOM     41  C   UNL     1       2.769  -0.331  25.784  0.00  0.00    +0.020 C 
ENDBRANCH  39  40
BRANCH  39  42
ATOM     42  C   UNL     1       5.575  -2.275  23.979  0.00  0.00    +0.081 C 
ATOM     43  C   UNL     1       5.191  -3.446  23.081  0.00  0.00    +0.020 C 
ENDBRANCH  39  42
ENDBRANCH  38  39
ENDBRANCH  37  38
ENDBRANCH  35  37
ENDBRANCH  31  33
ENDBRANCH  30  31
ENDBRANCH  26  30
ENDBRANCH  25  28
ENDBRANCH   1  25
TORSDOF 18
