REMARK VINA RESULT:    -4.838     14.354     16.822
REMARK INTER + INTRA:         -13.398
REMARK INTER:                 -11.777
REMARK INTRA:                  -1.621
REMARK UNBOUND:                -4.177
REMARK  Name = lig_assembled_50.pdb
REMARK  20 active torsions:
REMARK  status: ('A' for Active; 'I' for Inactive)
REMARK    1  A    between atoms: _2  and  _9
REMARK    2  A    between atoms: _4  and  _17
REMARK    3  A    between atoms: _5  and  _10
REMARK    4  A    between atoms: _5  and  _11
REMARK    5  A    between atoms: _6  and  _7
REMARK    6  A    between atoms: _6  and  _17
REMARK    7  A    between atoms: _9  and  _10
REMARK    8  A    between atoms: _10  and  _12
REMARK    9  A    between atoms: _13  and  _33
REMARK   10  A    between atoms: _15  and  _21
REMARK   11  A    between atoms: _16  and  _20
REMARK   12  A    between atoms: _20  and  _21
REMARK   13  A    between atoms: _23  and  _24
REMARK   14  A    between atoms: _25  and  _26
REMARK   15  A    between atoms: _27  and  _29
REMARK   16  A    between atoms: _29  and  _30
REMARK   17  A    between atoms: _29  and  _31
REMARK   18  A    between atoms: _31  and  _32
REMARK   19  A    between atoms: _31  and  _33
REMARK   20  A    between atoms: _34  and  _36
REMARK                            x       y       z     vdW  Elec       q    Type
REMARK                         _______ _______ _______ _____ _____    ______ ____
ROOT
ATOM      1  C   UNL     1       6.428   2.889  32.758  0.00  0.00    +0.163 C 
ENDROOT
BRANCH   1   2
ATOM      2  O   UNL     1       6.193   3.235  31.383  0.00  0.00    -0.388 OA
ATOM      3  H   UNL     1       5.398   2.795  31.073  0.00  0.00    +0.210 HD
ENDBRANCH   1   2
BRANCH   1   4
ATOM      4  C   UNL     1       7.612   3.686  33.331  0.00  0.00    +0.175 C 
BRANCH   4   5
ATOM      5  C   UNL     1       7.306   4.255  34.725  0.00  0.00    +0.176 C 
ATOM      6  O   UNL     1       7.178   5.698  34.601  0.00  0.00    -0.332 OA
ATOM      7  C   UNL     1       6.778   6.406  35.821  0.00  0.00    +0.277 C 
ATOM      8  C   UNL     1       7.741   6.064  36.985  0.00  0.00    +0.110 C 
ATOM      9  C   UNL     1       7.934   4.540  37.135  0.00  0.00    +0.143 C 
ATOM     10  C   UNL     1       8.345   3.905  35.806  0.00  0.00    +0.133 C 
BRANCH  10  11
ATOM     11  N   UNL     1       8.441   2.443  35.941  0.00  0.00    -0.308 N 
ATOM     12  H   UNL     1       7.635   1.948  36.296  0.00  0.00    +0.149 HD
ATOM     13  C   UNL     1       9.524   1.727  35.625  0.00  0.00    +0.210 C 
ATOM     14  C   UNL     1      10.744   2.514  35.112  0.00  0.00    +0.109 C 
ATOM     15  O   UNL     1       9.570   0.502  35.735  0.00  0.00    -0.276 OA
ENDBRANCH  10  11
BRANCH   7  16
ATOM     16  C   UNL     1       5.335   6.036  36.221  0.00  0.00    +0.414 C 
ATOM     17  O   UNL     1       5.035   5.899  37.406  0.00  0.00    -0.240 OA
ATOM     18  O   UNL     1       4.470   5.875  35.358  0.00  0.00    -0.240 OA
ENDBRANCH   7  16
BRANCH   9  19
ATOM     19  O   UNL     1       8.940   4.276  38.114  0.00  0.00    -0.390 OA
ATOM     20  H   UNL     1       9.727   4.786  37.910  0.00  0.00    +0.210 HD
ENDBRANCH   9  19
BRANCH   7  21
ATOM     21  O   UNL     1       6.863   7.831  35.561  0.00  0.00    -0.343 OA
ATOM     22  C   UNL     1       7.846   8.214  34.566  0.00  0.00    +0.198 C 
ENDBRANCH   7  21
ENDBRANCH   4   5
BRANCH   4  23
ATOM     23  O   UNL     1       7.977   4.751  32.430  0.00  0.00    -0.387 OA
ATOM     24  H   UNL     1       7.224   5.332  32.299  0.00  0.00    +0.210 HD
ENDBRANCH   4  23
ENDBRANCH   1   4
BRANCH   1  25
ATOM     25  C   UNL     1       5.178   3.166  33.587  0.00  0.00    +0.141 C 
BRANCH  25  28
ATOM     26  C   UNL     1       2.967   3.513  32.541  0.00  0.00    +0.401 C 
ATOM     27  O   UNL     1       2.541   2.398  32.850  0.00  0.00    -0.226 OA
ATOM     28  N   UNL     1       4.190   3.953  32.840  0.00  0.00    -0.279 N 
ATOM     29  H   UNL     1       4.451   4.880  32.535  0.00  0.00    +0.152 HD
BRANCH  26  30
ATOM     30  O   UNL     1       2.116   4.404  31.816  0.00  0.00    -0.444 OA
BRANCH  30  31
ATOM     31  C   UNL     1       0.859   3.770  31.568  0.00  0.00    +0.292 C 
BRANCH  31  33
ATOM     32  N   UNL     1      -0.462   4.340  29.549  0.00  0.00    -0.131 NA
ATOM     33  C   UNL     1       0.602   3.684  30.116  0.00  0.00    +0.120 A 
ATOM     34  C   UNL     1       1.297   3.016  29.129  0.00  0.00    +0.137 A 
ATOM     35  N   UNL     1       0.605   3.298  27.996  0.00  0.00    -0.249 N 
ATOM     36  N   UNL     1      -0.442   4.108  28.246  0.00  0.00    -0.065 NA
BRANCH  35  37
ATOM     37  C   UNL     1       0.861   2.839  26.649  0.00  0.00    +0.178 C 
BRANCH  37  38
ATOM     38  C   UNL     1       1.466   3.905  25.729  0.00  0.00    +0.161 C 
BRANCH  38  39
ATOM     39  O   UNL     1       2.517   3.392  24.906  0.00  0.00    -0.388 OA
ATOM     40  H   UNL     1       2.297   3.575  23.970  0.00  0.00    +0.210 HD
ENDBRANCH  38  39
BRANCH  38  41
ATOM     41  C   UNL     1       0.428   4.623  24.856  0.00  0.00    +0.189 C 
BRANCH  41  42
ATOM     42  O   UNL     1       1.006   5.732  24.167  0.00  0.00    -0.392 OA
ATOM     43  H   UNL     1       0.456   5.924  23.385  0.00  0.00    +0.210 HD
ENDBRANCH  41  42
ENDBRANCH  38  41
ENDBRANCH  37  38
ENDBRANCH  35  37
ENDBRANCH  31  33
ENDBRANCH  30  31
ENDBRANCH  26  30
ENDBRANCH  25  28
ENDBRANCH   1  25
TORSDOF 18
