REMARK VINA RESULT:    -5.840     21.724     24.299
REMARK INTER + INTRA:         -12.298
REMARK INTER:                 -10.157
REMARK INTRA:                  -2.142
REMARK UNBOUND:                -2.191
REMARK  Name = lig_assembled_48.pdb
REMARK  16 active torsions:
REMARK  status: ('A' for Active; 'I' for Inactive)
REMARK    1  A    between atoms: _2  and  _9
REMARK    2  A    between atoms: _4  and  _18
REMARK    3  A    between atoms: _6  and  _7
REMARK    4  A    between atoms: _6  and  _18
REMARK    5  A    between atoms: _14  and  _34
REMARK    6  A    between atoms: _16  and  _22
REMARK    7  A    between atoms: _17  and  _21
REMARK    8  A    between atoms: _21  and  _22
REMARK    9  A    between atoms: _24  and  _25
REMARK   10  A    between atoms: _26  and  _27
REMARK   11  A    between atoms: _28  and  _30
REMARK   12  A    between atoms: _30  and  _31
REMARK   13  A    between atoms: _30  and  _32
REMARK   14  A    between atoms: _32  and  _33
REMARK   15  A    between atoms: _32  and  _34
REMARK   16  A    between atoms: _35  and  _37
REMARK                            x       y       z     vdW  Elec       q    Type
REMARK                         _______ _______ _______ _____ _____    ______ ____
ROOT
ATOM      1  C   UNL     1      12.012  26.704  22.244  0.00  0.00    +0.163 C 
ENDROOT
BRANCH   1   2
ATOM      2  O   UNL     1      11.627  28.056  21.947  0.00  0.00    -0.388 OA
ATOM      3  H   UNL     1      12.149  28.384  21.211  0.00  0.00    +0.210 HD
ENDBRANCH   1   2
BRANCH   1   4
ATOM      4  C   UNL     1      12.475  26.002  20.971  0.00  0.00    +0.141 C 
BRANCH   4   7
ATOM      5  C   UNL     1      14.614  24.847  21.415  0.00  0.00    +0.401 C 
ATOM      6  O   UNL     1      15.295  25.870  21.313  0.00  0.00    -0.226 OA
ATOM      7  N   UNL     1      13.289  24.816  21.265  0.00  0.00    -0.279 N 
ATOM      8  H   UNL     1      12.819  23.927  21.358  0.00  0.00    +0.152 HD
BRANCH   5   9
ATOM      9  O   UNL     1      15.262  23.607  21.709  0.00  0.00    -0.444 OA
BRANCH   9  10
ATOM     10  C   UNL     1      15.988  23.164  20.559  0.00  0.00    +0.292 C 
BRANCH  10  12
ATOM     11  N   UNL     1      14.082  22.069  19.429  0.00  0.00    -0.131 NA
ATOM     12  C   UNL     1      15.074  23.009  19.412  0.00  0.00    +0.120 A 
ATOM     13  C   UNL     1      15.010  23.711  18.228  0.00  0.00    +0.137 A 
ATOM     14  N   UNL     1      13.901  23.217  17.607  0.00  0.00    -0.248 N 
ATOM     15  N   UNL     1      13.393  22.178  18.303  0.00  0.00    -0.065 NA
BRANCH  14  16
ATOM     16  C   UNL     1      13.204  23.666  16.407  0.00  0.00    +0.109 C 
ATOM     17  C   UNL     1      14.149  24.458  15.482  0.00  0.00    +0.027 C 
ATOM     18  C   UNL     1      15.161  23.542  14.800  0.00  0.00    +0.002 C 
ATOM     19  C   UNL     1      14.456  22.483  13.960  0.00  0.00    +0.000 C 
ATOM     20  C   UNL     1      13.433  21.685  14.765  0.00  0.00    +0.002 C 
ATOM     21  C   UNL     1      12.492  22.567  15.594  0.00  0.00    +0.027 C 
ENDBRANCH  14  16
ENDBRANCH  10  12
ENDBRANCH   9  10
ENDBRANCH   5   9
ENDBRANCH   4   7
ENDBRANCH   1   4
BRANCH   1  22
ATOM     22  C   UNL     1      10.843  25.922  22.866  0.00  0.00    +0.175 C 
BRANCH  22  23
ATOM     23  C   UNL     1      11.222  25.288  24.212  0.00  0.00    +0.176 C 
ATOM     24  O   UNL     1      12.523  24.657  24.059  0.00  0.00    -0.332 OA
ATOM     25  C   UNL     1      13.099  24.086  25.280  0.00  0.00    +0.277 C 
ATOM     26  C   UNL     1      12.108  23.091  25.932  0.00  0.00    +0.110 C 
ATOM     27  C   UNL     1      10.702  23.707  26.087  0.00  0.00    +0.143 C 
ATOM     28  C   UNL     1      10.201  24.273  24.757  0.00  0.00    +0.133 C 
BRANCH  28  29
ATOM     29  N   UNL     1       8.899  24.933  24.937  0.00  0.00    -0.308 N 
ATOM     30  H   UNL     1       8.872  25.783  25.482  0.00  0.00    +0.149 HD
ATOM     31  C   UNL     1       7.749  24.483  24.426  0.00  0.00    +0.210 C 
ATOM     32  C   UNL     1       7.819  23.171  23.621  0.00  0.00    +0.109 C 
ATOM     33  O   UNL     1       6.675  25.065  24.580  0.00  0.00    -0.276 OA
ENDBRANCH  28  29
BRANCH  25  34
ATOM     34  C   UNL     1      13.452  25.198  26.290  0.00  0.00    +0.414 C 
ATOM     35  O   UNL     1      13.220  25.044  27.488  0.00  0.00    -0.240 OA
ATOM     36  O   UNL     1      13.968  26.249  25.907  0.00  0.00    -0.240 OA
ENDBRANCH  25  34
BRANCH  27  37
ATOM     37  O   UNL     1       9.788  22.711  26.548  0.00  0.00    -0.390 OA
ATOM     38  H   UNL     1       9.280  22.373  25.807  0.00  0.00    +0.210 HD
ENDBRANCH  27  37
BRANCH  25  39
ATOM     39  O   UNL     1      14.301  23.361  24.913  0.00  0.00    -0.343 OA
ATOM     40  C   UNL     1      14.477  22.088  25.584  0.00  0.00    +0.198 C 
ENDBRANCH  25  39
ENDBRANCH  22  23
BRANCH  22  41
ATOM     41  O   UNL     1      10.382  24.907  21.952  0.00  0.00    -0.387 OA
ATOM     42  H   UNL     1       9.487  25.111  21.671  0.00  0.00    +0.210 HD
ENDBRANCH  22  41
ENDBRANCH   1  22
TORSDOF 14
