REMARK VINA RESULT:    -6.488      7.891     13.351
REMARK INTER + INTRA:         -16.448
REMARK INTER:                 -14.185
REMARK INTRA:                  -2.263
REMARK UNBOUND:                -3.133
REMARK  Name = lig_assembled_90.pdb
REMARK  22 active torsions:
REMARK  status: ('A' for Active; 'I' for Inactive)
REMARK    1  A    between atoms: _2  and  _13
REMARK    2  A    between atoms: _3  and  _15
REMARK    3  A    between atoms: _4  and  _17
REMARK    4  A    between atoms: _8  and  _28
REMARK    5  A    between atoms: _10  and  _11
REMARK    6  A    between atoms: _10  and  _28
REMARK    7  A    between atoms: _13  and  _14
REMARK    8  A    between atoms: _15  and  _16
REMARK    9  A    between atoms: _16  and  _17
REMARK   10  A    between atoms: _16  and  _22
REMARK   11  A    between atoms: _24  and  _44
REMARK   12  A    between atoms: _26  and  _32
REMARK   13  A    between atoms: _27  and  _31
REMARK   14  A    between atoms: _31  and  _32
REMARK   15  A    between atoms: _34  and  _35
REMARK   16  A    between atoms: _36  and  _37
REMARK   17  A    between atoms: _38  and  _40
REMARK   18  A    between atoms: _40  and  _41
REMARK   19  A    between atoms: _40  and  _42
REMARK   20  A    between atoms: _42  and  _43
REMARK   21  A    between atoms: _42  and  _44
REMARK   22  A    between atoms: _45  and  _47
REMARK                            x       y       z     vdW  Elec       q    Type
REMARK                         _______ _______ _______ _____ _____    ______ ____
ROOT
ATOM      1  C   UNL     1      10.256   1.513  34.656  0.00  0.00    +0.401 C 
ATOM      2  O   UNL     1       9.954   1.053  35.760  0.00  0.00    -0.226 OA
ATOM      3  N   UNL     1       9.392   1.677  33.654  0.00  0.00    -0.279 N 
ATOM      4  H   UNL     1       9.734   2.072  32.789  0.00  0.00    +0.152 HD
ENDROOT
BRANCH   3   5
ATOM      5  C   UNL     1       7.971   1.316  33.737  0.00  0.00    +0.141 C 
BRANCH   5   6
ATOM      6  C   UNL     1       7.128   2.453  34.305  0.00  0.00    +0.163 C 
BRANCH   6   7
ATOM      7  O   UNL     1       7.143   2.407  35.741  0.00  0.00    -0.388 OA
ATOM      8  H   UNL     1       6.671   3.166  36.091  0.00  0.00    +0.210 HD
ENDBRANCH   6   7
BRANCH   6   9
ATOM      9  C   UNL     1       7.667   3.799  33.792  0.00  0.00    +0.175 C 
BRANCH   9  10
ATOM     10  C   UNL     1       7.073   4.990  34.559  0.00  0.00    +0.176 C 
ATOM     11  O   UNL     1       7.792   5.115  35.816  0.00  0.00    -0.332 OA
ATOM     12  C   UNL     1       7.429   6.272  36.641  0.00  0.00    +0.277 C 
ATOM     13  C   UNL     1       5.904   6.291  36.906  0.00  0.00    +0.110 C 
ATOM     14  C   UNL     1       5.097   6.128  35.601  0.00  0.00    +0.143 C 
ATOM     15  C   UNL     1       5.558   4.896  34.820  0.00  0.00    +0.133 C 
BRANCH  15  16
ATOM     16  N   UNL     1       4.843   4.801  33.538  0.00  0.00    -0.308 N 
ATOM     17  H   UNL     1       5.067   5.477  32.822  0.00  0.00    +0.149 HD
ATOM     18  C   UNL     1       3.917   3.879  33.260  0.00  0.00    +0.210 C 
ATOM     19  C   UNL     1       3.580   2.879  34.382  0.00  0.00    +0.109 C 
ATOM     20  O   UNL     1       3.345   3.814  32.171  0.00  0.00    -0.276 OA
ENDBRANCH  15  16
BRANCH  12  21
ATOM     21  C   UNL     1       7.849   7.588  35.953  0.00  0.00    +0.414 C 
ATOM     22  O   UNL     1       8.198   8.556  36.627  0.00  0.00    -0.240 OA
ATOM     23  O   UNL     1       7.840   7.680  34.725  0.00  0.00    -0.240 OA
ENDBRANCH  12  21
BRANCH  14  24
ATOM     24  O   UNL     1       3.708   5.999  35.906  0.00  0.00    -0.390 OA
ATOM     25  H   UNL     1       3.427   6.743  36.443  0.00  0.00    +0.210 HD
ENDBRANCH  14  24
BRANCH  12  26
ATOM     26  O   UNL     1       8.113   6.147  37.915  0.00  0.00    -0.343 OA
ATOM     27  C   UNL     1       7.466   5.273  38.874  0.00  0.00    +0.198 C 
ENDBRANCH  12  26
ENDBRANCH   9  10
BRANCH   9  28
ATOM     28  O   UNL     1       7.403   3.935  32.381  0.00  0.00    -0.387 OA
ATOM     29  H   UNL     1       8.190   3.698  31.884  0.00  0.00    +0.210 HD
ENDBRANCH   9  28
ENDBRANCH   6   9
ENDBRANCH   5   6
ENDBRANCH   3   5
BRANCH   1  30
ATOM     30  O   UNL     1      11.610   1.906  34.416  0.00  0.00    -0.444 OA
BRANCH  30  31
ATOM     31  C   UNL     1      12.264   2.155  35.663  0.00  0.00    +0.292 C 
BRANCH  31  33
ATOM     32  N   UNL     1      13.738   3.693  34.392  0.00  0.00    -0.131 NA
ATOM     33  C   UNL     1      13.116   3.356  35.567  0.00  0.00    +0.120 A 
ATOM     34  C   UNL     1      13.436   4.289  36.527  0.00  0.00    +0.137 A 
ATOM     35  N   UNL     1      14.235   5.177  35.872  0.00  0.00    -0.242 N 
ATOM     36  N   UNL     1      14.430   4.807  34.594  0.00  0.00    -0.065 NA
BRANCH  35  37
ATOM     37  C   UNL     1      14.926   6.323  36.410  0.00  0.00    +0.240 C 
BRANCH  37  38
ATOM     38  C   UNL     1      16.176   6.634  35.619  0.00  0.00    +0.235 C 
ATOM     39  O   UNL     1      17.249   6.070  35.826  0.00  0.00    -0.274 OA
ATOM     40  N   UNL     1      16.017   7.558  34.603  0.00  0.00    -0.311 N 
ATOM     41  H   UNL     1      15.218   8.187  34.638  0.00  0.00    +0.149 HD
BRANCH  40  42
ATOM     42  C   UNL     1      17.163   8.005  33.824  0.00  0.00    +0.137 C 
BRANCH  42  43
ATOM     43  C   UNL     1      16.962   7.724  32.328  0.00  0.00    +0.151 C 
BRANCH  43  44
ATOM     44  O   UNL     1      15.556   7.653  32.060  0.00  0.00    -0.388 OA
ATOM     45  H   UNL     1      15.305   8.405  31.486  0.00  0.00    +0.210 HD
ENDBRANCH  43  44
BRANCH  43  46
ATOM     46  C   UNL     1      17.643   8.784  31.454  0.00  0.00    +0.162 C 
BRANCH  46  47
ATOM     47  N   UNL     1      18.442   8.197  30.387  0.00  0.00    -0.269 N 
ATOM     48  C   UNL     1      19.016   6.948  30.479  0.00  0.00    +0.113 A 
ATOM     49  C   UNL     1      19.716   6.771  29.310  0.00  0.00    +0.137 A 
ATOM     50  N   UNL     1      19.593   7.872  28.502  0.00  0.00    -0.172 NA
ATOM     51  C   UNL     1      18.813   8.709  29.168  0.00  0.00    +0.450 A 
ATOM     52  N   UNL     1      18.434   9.997  28.639  0.00  0.00    +0.120 N 
ATOM     53  O   UNL     1      17.615  10.665  29.284  0.00  0.00    +0.045 OA
ATOM     54  O   UNL     1      18.964  10.352  27.579  0.00  0.00    -0.573 OA
ENDBRANCH  46  47
ENDBRANCH  43  46
ENDBRANCH  42  43
ENDBRANCH  40  42
ENDBRANCH  37  38
ENDBRANCH  35  37
ENDBRANCH  31  33
ENDBRANCH  30  31
ENDBRANCH   1  30
TORSDOF 20
