REMARK VINA RESULT:    -6.552      5.568      8.066
REMARK INTER + INTRA:         -12.542
REMARK INTER:                  -9.225
REMARK INTRA:                  -3.317
REMARK UNBOUND:                -1.202
REMARK  Name = lig_assembled_40.pdb
REMARK  17 active torsions:
REMARK  status: ('A' for Active; 'I' for Inactive)
REMARK    1  A    between atoms: _2  and  _9
REMARK    2  A    between atoms: _4  and  _19
REMARK    3  A    between atoms: _6  and  _7
REMARK    4  A    between atoms: _6  and  _19
REMARK    5  A    between atoms: _12  and  _13
REMARK    6  A    between atoms: _15  and  _35
REMARK    7  A    between atoms: _17  and  _23
REMARK    8  A    between atoms: _18  and  _22
REMARK    9  A    between atoms: _22  and  _23
REMARK   10  A    between atoms: _25  and  _26
REMARK   11  A    between atoms: _27  and  _28
REMARK   12  A    between atoms: _29  and  _31
REMARK   13  A    between atoms: _31  and  _32
REMARK   14  A    between atoms: _31  and  _33
REMARK   15  A    between atoms: _33  and  _34
REMARK   16  A    between atoms: _33  and  _35
REMARK   17  A    between atoms: _36  and  _38
REMARK                            x       y       z     vdW  Elec       q    Type
REMARK                         _______ _______ _______ _____ _____    ______ ____
ROOT
ATOM      1  C   UNL     1       1.777  -0.420  29.184  0.00  0.00    +0.163 C 
ENDROOT
BRANCH   1   2
ATOM      2  O   UNL     1       1.929  -1.769  29.656  0.00  0.00    -0.388 OA
ATOM      3  H   UNL     1       2.476  -1.773  30.445  0.00  0.00    +0.210 HD
ENDBRANCH   1   2
BRANCH   1   4
ATOM      4  C   UNL     1       0.399   0.113  29.563  0.00  0.00    +0.141 C 
BRANCH   4   7
ATOM      5  C   UNL     1      -0.179   2.423  30.225  0.00  0.00    +0.401 C 
ATOM      6  O   UNL     1      -0.573   2.102  31.349  0.00  0.00    -0.226 OA
ATOM      7  N   UNL     1       0.286   1.557  29.323  0.00  0.00    -0.279 N 
ATOM      8  H   UNL     1       0.578   1.915  28.425  0.00  0.00    +0.152 HD
BRANCH   5   9
ATOM      9  O   UNL     1      -0.218   3.800  29.842  0.00  0.00    -0.444 OA
BRANCH   9  10
ATOM     10  C   UNL     1      -1.031   3.949  28.675  0.00  0.00    +0.292 C 
BRANCH  10  12
ATOM     11  N   UNL     1       1.169   3.900  27.543  0.00  0.00    -0.131 NA
ATOM     12  C   UNL     1      -0.189   4.006  27.466  0.00  0.00    +0.121 A 
ATOM     13  C   UNL     1      -0.554   4.146  26.148  0.00  0.00    +0.143 A 
ATOM     14  N   UNL     1       0.626   4.088  25.441  0.00  0.00    -0.220 N 
ATOM     15  N   UNL     1       1.659   3.960  26.312  0.00  0.00    -0.060 NA
BRANCH  14  16
ATOM     16  C   UNL     1       0.817   4.105  24.036  0.00  0.00    +0.067 A 
ATOM     17  C   UNL     1       0.221   3.138  23.219  0.00  0.00    +0.028 A 
ATOM     18  C   UNL     1       0.474   3.125  21.844  0.00  0.00    +0.005 A 
ATOM     19  C   UNL     1       1.324   4.075  21.269  0.00  0.00    -0.050 A 
ATOM     20  C   UNL     1       1.891   5.064  22.081  0.00  0.00    +0.005 A 
ATOM     21  C   UNL     1       1.635   4.037  19.801  0.00  0.00    +0.044 C 
ATOM     22  C   UNL     1       1.641   5.082  23.456  0.00  0.00    +0.028 A 
ENDBRANCH  14  16
ENDBRANCH  10  12
ENDBRANCH   9  10
ENDBRANCH   5   9
ENDBRANCH   4   7
ENDBRANCH   1   4
BRANCH   1  23
ATOM     23  C   UNL     1       1.953  -0.348  27.657  0.00  0.00    +0.175 C 
BRANCH  23  24
ATOM     24  C   UNL     1       3.098  -1.246  27.165  0.00  0.00    +0.176 C 
ATOM     25  O   UNL     1       4.180  -1.162  28.132  0.00  0.00    -0.332 OA
ATOM     26  C   UNL     1       5.326  -2.041  27.880  0.00  0.00    +0.277 C 
ATOM     27  C   UNL     1       5.880  -1.812  26.453  0.00  0.00    +0.110 C 
ATOM     28  C   UNL     1       4.760  -1.862  25.392  0.00  0.00    +0.143 C 
ATOM     29  C   UNL     1       3.619  -0.911  25.755  0.00  0.00    +0.133 C 
BRANCH  29  30
ATOM     30  N   UNL     1       2.520  -1.031  24.784  0.00  0.00    -0.308 N 
ATOM     31  H   UNL     1       1.984  -1.887  24.782  0.00  0.00    +0.149 HD
ATOM     32  C   UNL     1       2.185  -0.083  23.905  0.00  0.00    +0.210 C 
ATOM     33  C   UNL     1       3.039   1.200  23.916  0.00  0.00    +0.109 C 
ATOM     34  O   UNL     1       1.250  -0.205  23.113  0.00  0.00    -0.276 OA
ENDBRANCH  29  30
BRANCH  26  35
ATOM     35  C   UNL     1       4.925  -3.522  28.047  0.00  0.00    +0.414 C 
ATOM     36  O   UNL     1       5.571  -4.406  27.484  0.00  0.00    -0.240 OA
ATOM     37  O   UNL     1       3.957  -3.832  28.742  0.00  0.00    -0.240 OA
ENDBRANCH  26  35
BRANCH  28  38
ATOM     38  O   UNL     1       5.289  -1.497  24.116  0.00  0.00    -0.390 OA
ATOM     39  H   UNL     1       4.882  -0.678  23.823  0.00  0.00    +0.210 HD
ENDBRANCH  28  38
BRANCH  26  40
ATOM     40  O   UNL     1       6.367  -1.707  28.834  0.00  0.00    -0.343 OA
ATOM     41  C   UNL     1       5.891  -1.273  30.133  0.00  0.00    +0.198 C 
ENDBRANCH  26  40
ENDBRANCH  23  24
BRANCH  23  42
ATOM     42  O   UNL     1       2.180   1.015  27.248  0.00  0.00    -0.387 OA
ATOM     43  H   UNL     1       2.358   1.041  26.304  0.00  0.00    +0.210 HD
ENDBRANCH  23  42
ENDBRANCH   1  23
TORSDOF 14
