REMARK VINA RESULT:    -5.983     18.716     20.809
REMARK INTER + INTRA:         -13.000
REMARK INTER:                 -10.358
REMARK INTRA:                  -2.642
REMARK UNBOUND:                -2.296
REMARK  Name = lig_assembled_63.pdb
REMARK  17 active torsions:
REMARK  status: ('A' for Active; 'I' for Inactive)
REMARK    1  A    between atoms: _2  and  _11
REMARK    2  A    between atoms: _6  and  _20
REMARK    3  A    between atoms: _7  and  _15
REMARK    4  A    between atoms: _8  and  _9
REMARK    5  A    between atoms: _8  and  _20
REMARK    6  A    between atoms: _16  and  _36
REMARK    7  A    between atoms: _18  and  _24
REMARK    8  A    between atoms: _19  and  _23
REMARK    9  A    between atoms: _23  and  _24
REMARK   10  A    between atoms: _26  and  _27
REMARK   11  A    between atoms: _28  and  _29
REMARK   12  A    between atoms: _30  and  _32
REMARK   13  A    between atoms: _32  and  _33
REMARK   14  A    between atoms: _32  and  _34
REMARK   15  A    between atoms: _34  and  _35
REMARK   16  A    between atoms: _34  and  _36
REMARK   17  A    between atoms: _37  and  _39
REMARK                            x       y       z     vdW  Elec       q    Type
REMARK                         _______ _______ _______ _____ _____    ______ ____
ROOT
ATOM      1  C   UNL     1       1.857   5.177  23.659  0.00  0.00    +0.163 C 
ENDROOT
BRANCH   1   2
ATOM      2  O   UNL     1       0.651   5.850  24.053  0.00  0.00    -0.388 OA
ATOM      3  H   UNL     1       0.860   6.532  24.697  0.00  0.00    +0.210 HD
ENDBRANCH   1   2
BRANCH   1   4
ATOM      4  C   UNL     1       1.809   4.849  22.170  0.00  0.00    +0.141 C 
BRANCH   4   7
ATOM      5  C   UNL     1       0.094   4.139  20.539  0.00  0.00    +0.401 C 
ATOM      6  O   UNL     1       0.903   3.603  19.780  0.00  0.00    -0.226 OA
ATOM      7  N   UNL     1       0.430   4.751  21.676  0.00  0.00    -0.279 N 
ATOM      8  H   UNL     1      -0.305   5.171  22.227  0.00  0.00    +0.152 HD
BRANCH   5   9
ATOM      9  O   UNL     1      -1.295   4.121  20.200  0.00  0.00    -0.444 OA
BRANCH   9  10
ATOM     10  C   UNL     1      -2.057   3.683  21.328  0.00  0.00    +0.292 C 
BRANCH  10  12
ATOM     11  N   UNL     1      -2.284   5.848  22.497  0.00  0.00    -0.131 NA
ATOM     12  C   UNL     1      -2.870   4.791  21.862  0.00  0.00    +0.121 A 
ATOM     13  C   UNL     1      -4.232   4.975  21.856  0.00  0.00    +0.145 A 
ATOM     14  N   UNL     1      -4.437   6.156  22.541  0.00  0.00    -0.200 N 
ATOM     15  N   UNL     1      -3.241   6.673  22.898  0.00  0.00    -0.059 NA
BRANCH  14  16
ATOM     16  C   UNL     1      -5.697   6.729  22.885  0.00  0.00    +0.173 A 
ATOM     17  C   UNL     1      -6.149   7.929  22.332  0.00  0.00    +0.096 A 
ATOM     18  C   UNL     1      -7.361   8.453  22.815  0.00  0.00    +0.024 A 
ATOM     19  C   UNL     1      -8.086   7.775  23.790  0.00  0.00    +0.021 A 
ATOM     20  C   UNL     1      -7.585   6.576  24.254  0.00  0.00    +0.113 A 
ATOM     21  N   UNL     1      -6.418   6.045  23.831  0.00  0.00    -0.235 NA
BRANCH  17  22
ATOM     22  C   UNL     1      -5.492   8.668  21.295  0.00  0.00    +0.103 C 
ATOM     23  N   UNL     1      -4.871   9.263  20.514  0.00  0.00    -0.191 NA
ENDBRANCH  17  22
ENDBRANCH  14  16
ENDBRANCH  10  12
ENDBRANCH   9  10
ENDBRANCH   5   9
ENDBRANCH   4   7
ENDBRANCH   1   4
BRANCH   1  24
ATOM     24  C   UNL     1       2.052   3.880  24.464  0.00  0.00    +0.175 C 
BRANCH  24  25
ATOM     25  C   UNL     1       0.771   3.459  25.199  0.00  0.00    +0.176 C 
ATOM     26  O   UNL     1       0.887   3.889  26.583  0.00  0.00    -0.332 OA
ATOM     27  C   UNL     1      -0.296   3.663  27.419  0.00  0.00    +0.277 C 
ATOM     28  C   UNL     1      -0.720   2.175  27.367  0.00  0.00    +0.110 C 
ATOM     29  C   UNL     1      -0.826   1.663  25.915  0.00  0.00    +0.143 C 
ATOM     30  C   UNL     1       0.458   1.952  25.136  0.00  0.00    +0.133 C 
BRANCH  30  31
ATOM     31  N   UNL     1       0.312   1.539  23.731  0.00  0.00    -0.308 N 
ATOM     32  H   UNL     1      -0.463   1.918  23.206  0.00  0.00    +0.149 HD
ATOM     33  C   UNL     1       1.137   0.695  23.106  0.00  0.00    +0.210 C 
ATOM     34  C   UNL     1       2.294   0.114  23.941  0.00  0.00    +0.109 C 
ATOM     35  O   UNL     1       1.000   0.378  21.924  0.00  0.00    -0.276 OA
ENDBRANCH  30  31
BRANCH  27  36
ATOM     36  C   UNL     1      -1.470   4.550  26.954  0.00  0.00    +0.414 C 
ATOM     37  O   UNL     1      -2.612   4.329  27.358  0.00  0.00    -0.240 OA
ATOM     38  O   UNL     1      -1.277   5.485  26.177  0.00  0.00    -0.240 OA
ENDBRANCH  27  36
BRANCH  27  39
ATOM     39  O   UNL     1       0.052   3.992  28.788  0.00  0.00    -0.343 OA
ATOM     40  C   UNL     1       1.181   3.258  29.326  0.00  0.00    +0.198 C 
ENDBRANCH  27  39
BRANCH  29  41
ATOM     41  O   UNL     1      -1.069   0.256  25.916  0.00  0.00    -0.390 OA
ATOM     42  H   UNL     1      -0.453  -0.175  26.513  0.00  0.00    +0.210 HD
ENDBRANCH  29  41
ENDBRANCH  24  25
BRANCH  24  43
ATOM     43  O   UNL     1       3.134   4.036  25.403  0.00  0.00    -0.387 OA
ATOM     44  H   UNL     1       3.258   4.968  25.597  0.00  0.00    +0.210 HD
ENDBRANCH  24  43
ENDBRANCH   1  24
TORSDOF 15
