REMARK VINA RESULT:    -6.725      4.985      7.186
REMARK INTER + INTRA:         -13.608
REMARK INTER:                 -11.650
REMARK INTRA:                  -1.958
REMARK UNBOUND:                -1.575
REMARK  Name = lig_assembled_0.pdb
REMARK  17 active torsions:
REMARK  status: ('A' for Active; 'I' for Inactive)
REMARK    1  A    between atoms: _2  and  _10
REMARK    2  A    between atoms: _5  and  _21
REMARK    3  A    between atoms: _7  and  _8
REMARK    4  A    between atoms: _7  and  _21
REMARK    5  A    between atoms: _11  and  _12
REMARK    6  A    between atoms: _17  and  _37
REMARK    7  A    between atoms: _19  and  _25
REMARK    8  A    between atoms: _20  and  _24
REMARK    9  A    between atoms: _24  and  _25
REMARK   10  A    between atoms: _27  and  _28
REMARK   11  A    between atoms: _29  and  _30
REMARK   12  A    between atoms: _31  and  _33
REMARK   13  A    between atoms: _33  and  _34
REMARK   14  A    between atoms: _33  and  _35
REMARK   15  A    between atoms: _35  and  _36
REMARK   16  A    between atoms: _35  and  _37
REMARK   17  A    between atoms: _38  and  _40
REMARK                            x       y       z     vdW  Elec       q    Type
REMARK                         _______ _______ _______ _____ _____    ______ ____
ROOT
ATOM      1  C   UNL     1       7.587   2.290  34.123  0.00  0.00    +0.163 C 
ENDROOT
BRANCH   1   2
ATOM      2  O   UNL     1       8.299   2.398  35.366  0.00  0.00    -0.388 OA
ATOM      3  H   UNL     1       8.776   3.231  35.391  0.00  0.00    +0.210 HD
ENDBRANCH   1   2
BRANCH   1   4
ATOM      4  C   UNL     1       8.141   1.130  33.303  0.00  0.00    +0.141 C 
BRANCH   4   7
ATOM      5  C   UNL     1       6.466  -0.677  33.118  0.00  0.00    +0.401 C 
ATOM      6  O   UNL     1       6.735  -1.166  34.218  0.00  0.00    -0.226 OA
ATOM      7  N   UNL     1       7.078   0.393  32.609  0.00  0.00    -0.279 N 
ATOM      8  H   UNL     1       6.794   0.715  31.694  0.00  0.00    +0.152 HD
BRANCH   5   9
ATOM      9  O   UNL     1       5.442  -1.279  32.322  0.00  0.00    -0.444 OA
BRANCH   9  10
ATOM     10  C   UNL     1       5.297  -0.550  31.100  0.00  0.00    +0.292 C 
BRANCH  10  12
ATOM     11  N   UNL     1       7.331  -1.601  30.181  0.00  0.00    -0.131 NA
ATOM     12  C   UNL     1       6.034  -1.219  30.012  0.00  0.00    +0.121 A 
ATOM     13  C   UNL     1       5.618  -1.582  28.751  0.00  0.00    +0.143 A 
ATOM     14  N   UNL     1       6.735  -2.107  28.141  0.00  0.00    -0.219 N 
ATOM     15  N   UNL     1       7.734  -2.184  29.064  0.00  0.00    -0.060 NA
BRANCH  14  16
ATOM     16  C   UNL     1       6.918  -2.639  26.834  0.00  0.00    +0.079 A 
ATOM     17  C   UNL     1       7.703  -3.769  26.528  0.00  0.00    +0.062 A 
ATOM     18  C   UNL     1       7.831  -4.164  25.179  0.00  0.00    +0.015 A 
ATOM     19  C   UNL     1       7.211  -3.453  24.151  0.00  0.00    +0.001 A 
ATOM     20  C   UNL     1       6.426  -2.350  24.454  0.00  0.00    +0.002 A 
ATOM     21  C   UNL     1       6.271  -1.952  25.781  0.00  0.00    +0.028 A 
BRANCH  17  22
ATOM     22  C   UNL     1       8.264  -4.697  27.550  0.00  0.00    +0.244 C 
ATOM     23  O   UNL     1       7.673  -5.702  27.914  0.00  0.00    -0.270 OA
ATOM     24  N   UNL     1       9.505  -4.411  28.054  0.00  0.00    -0.325 N 
ATOM     25  H   UNL     1       9.900  -5.074  28.710  0.00  0.00    +0.145 HD
ATOM     26  H   UNL     1      10.062  -3.610  27.795  0.00  0.00    +0.145 HD
ENDBRANCH  17  22
ENDBRANCH  14  16
ENDBRANCH  10  12
ENDBRANCH   9  10
ENDBRANCH   5   9
ENDBRANCH   4   7
ENDBRANCH   1   4
BRANCH   1  27
ATOM     27  C   UNL     1       7.697   3.593  33.311  0.00  0.00    +0.175 C 
BRANCH  27  28
ATOM     28  C   UNL     1       6.880   4.734  33.936  0.00  0.00    +0.176 C 
ATOM     29  O   UNL     1       7.645   5.273  35.049  0.00  0.00    -0.332 OA
ATOM     30  C   UNL     1       7.065   6.449  35.706  0.00  0.00    +0.277 C 
ATOM     31  C   UNL     1       5.615   6.154  36.161  0.00  0.00    +0.110 C 
ATOM     32  C   UNL     1       4.771   5.549  35.019  0.00  0.00    +0.143 C 
ATOM     33  C   UNL     1       5.469   4.334  34.406  0.00  0.00    +0.133 C 
BRANCH  33  34
ATOM     34  N   UNL     1       4.698   3.820  33.263  0.00  0.00    -0.308 N 
ATOM     35  H   UNL     1       4.659   4.386  32.427  0.00  0.00    +0.149 HD
ATOM     36  C   UNL     1       4.047   2.654  33.259  0.00  0.00    +0.210 C 
ATOM     37  C   UNL     1       4.104   1.827  34.557  0.00  0.00    +0.109 C 
ATOM     38  O   UNL     1       3.421   2.241  32.281  0.00  0.00    -0.276 OA
ENDBRANCH  33  34
BRANCH  30  39
ATOM     39  C   UNL     1       7.070   7.664  34.755  0.00  0.00    +0.414 C 
ATOM     40  O   UNL     1       6.010   8.144  34.356  0.00  0.00    -0.240 OA
ATOM     41  O   UNL     1       8.134   8.165  34.388  0.00  0.00    -0.240 OA
ENDBRANCH  30  39
BRANCH  32  42
ATOM     42  O   UNL     1       3.494   5.154  35.521  0.00  0.00    -0.390 OA
ATOM     43  H   UNL     1       3.608   4.471  36.186  0.00  0.00    +0.210 HD
ENDBRANCH  32  42
BRANCH  30  44
ATOM     44  O   UNL     1       7.862   6.745  36.881  0.00  0.00    -0.343 OA
ATOM     45  C   UNL     1       9.067   5.950  37.020  0.00  0.00    +0.198 C 
ENDBRANCH  30  44
ENDBRANCH  27  28
BRANCH  27  46
ATOM     46  O   UNL     1       7.275   3.367  31.951  0.00  0.00    -0.387 OA
ATOM     47  H   UNL     1       6.758   2.559  31.906  0.00  0.00    +0.210 HD
ENDBRANCH  27  46
ENDBRANCH   1  27
TORSDOF 15
