REMARK VINA RESULT:    -6.017      7.296     11.852
REMARK INTER + INTRA:         -14.261
REMARK INTER:                 -11.778
REMARK INTRA:                  -2.483
REMARK UNBOUND:                -2.615
REMARK  Name = lig_assembled_83.pdb
REMARK  20 active torsions:
REMARK  status: ('A' for Active; 'I' for Inactive)
REMARK    1  A    between atoms: _2  and  _12
REMARK    2  A    between atoms: _3  and  _14
REMARK    3  A    between atoms: _7  and  _24
REMARK    4  A    between atoms: _9  and  _10
REMARK    5  A    between atoms: _9  and  _24
REMARK    6  A    between atoms: _12  and  _13
REMARK    7  A    between atoms: _13  and  _14
REMARK    8  A    between atoms: _13  and  _18
REMARK    9  A    between atoms: _20  and  _40
REMARK   10  A    between atoms: _22  and  _28
REMARK   11  A    between atoms: _23  and  _27
REMARK   12  A    between atoms: _27  and  _28
REMARK   13  A    between atoms: _30  and  _31
REMARK   14  A    between atoms: _32  and  _33
REMARK   15  A    between atoms: _34  and  _36
REMARK   16  A    between atoms: _36  and  _37
REMARK   17  A    between atoms: _36  and  _38
REMARK   18  A    between atoms: _38  and  _39
REMARK   19  A    between atoms: _38  and  _40
REMARK   20  A    between atoms: _41  and  _43
REMARK                            x       y       z     vdW  Elec       q    Type
REMARK                         _______ _______ _______ _____ _____    ______ ____
ROOT
ATOM      1  C   UNL     1      17.613  11.845  34.948  0.00  0.00    +0.141 C 
ENDROOT
BRANCH   1   4
ATOM      2  C   UNL     1      16.446  11.298  37.056  0.00  0.00    +0.401 C 
ATOM      3  O   UNL     1      17.375  10.623  37.506  0.00  0.00    -0.226 OA
ATOM      4  N   UNL     1      16.469  11.900  35.867  0.00  0.00    -0.279 N 
ATOM      5  H   UNL     1      15.654  12.424  35.582  0.00  0.00    +0.152 HD
BRANCH   2   6
ATOM      6  O   UNL     1      15.260  11.455  37.839  0.00  0.00    -0.444 OA
BRANCH   6   7
ATOM      7  C   UNL     1      15.592  12.051  39.096  0.00  0.00    +0.292 C 
BRANCH   7   9
ATOM      8  N   UNL     1      13.982  13.869  38.582  0.00  0.00    -0.131 NA
ATOM      9  C   UNL     1      15.175  13.464  39.124  0.00  0.00    +0.120 A 
ATOM     10  C   UNL     1      15.824  14.560  39.645  0.00  0.00    +0.137 A 
ATOM     11  N   UNL     1      14.970  15.592  39.403  0.00  0.00    -0.249 N 
ATOM     12  N   UNL     1      13.869  15.181  38.753  0.00  0.00    -0.065 NA
BRANCH  11  13
ATOM     13  C   UNL     1      15.157  16.991  39.725  0.00  0.00    +0.178 C 
BRANCH  13  14
ATOM     14  C   UNL     1      15.233  17.861  38.467  0.00  0.00    +0.156 C 
BRANCH  14  15
ATOM     15  O   UNL     1      15.237  17.031  37.300  0.00  0.00    -0.388 OA
ATOM     16  H   UNL     1      15.699  17.490  36.569  0.00  0.00    +0.210 HD
ENDBRANCH  14  15
BRANCH  14  17
ATOM     17  C   UNL     1      14.051  18.843  38.419  0.00  0.00    +0.162 C 
BRANCH  17  18
ATOM     18  N   UNL     1      13.990  19.581  37.167  0.00  0.00    -0.269 N 
ATOM     19  C   UNL     1      14.776  20.678  36.895  0.00  0.00    +0.113 A 
ATOM     20  C   UNL     1      14.444  21.063  35.617  0.00  0.00    +0.137 A 
ATOM     21  N   UNL     1      13.461  20.259  35.108  0.00  0.00    -0.172 NA
ATOM     22  C   UNL     1      13.210  19.374  36.055  0.00  0.00    +0.450 A 
ATOM     23  N   UNL     1      12.227  18.325  35.897  0.00  0.00    +0.120 N 
ATOM     24  O   UNL     1      12.065  17.540  36.845  0.00  0.00    +0.045 OA
ATOM     25  O   UNL     1      11.601  18.287  34.831  0.00  0.00    -0.573 OA
ENDBRANCH  17  18
ENDBRANCH  14  17
ENDBRANCH  13  14
ENDBRANCH  11  13
ENDBRANCH   7   9
ENDBRANCH   6   7
ENDBRANCH   2   6
ENDBRANCH   1   4
BRANCH   1  26
ATOM     26  C   UNL     1      17.173  11.891  33.489  0.00  0.00    +0.163 C 
BRANCH  26  27
ATOM     27  O   UNL     1      18.243  12.389  32.668  0.00  0.00    -0.388 OA
ATOM     28  H   UNL     1      17.881  12.757  31.859  0.00  0.00    +0.210 HD
ENDBRANCH  26  27
BRANCH  26  29
ATOM     29  C   UNL     1      16.742  10.485  33.037  0.00  0.00    +0.175 C 
BRANCH  29  30
ATOM     30  C   UNL     1      17.712   9.886  32.008  0.00  0.00    +0.176 C 
ATOM     31  O   UNL     1      17.468  10.537  30.731  0.00  0.00    -0.332 OA
ATOM     32  C   UNL     1      18.380  10.164  29.645  0.00  0.00    +0.277 C 
ATOM     33  C   UNL     1      18.396   8.627  29.455  0.00  0.00    +0.110 C 
ATOM     34  C   UNL     1      18.621   7.891  30.793  0.00  0.00    +0.143 C 
ATOM     35  C   UNL     1      17.621   8.357  31.851  0.00  0.00    +0.133 C 
BRANCH  35  36
ATOM     36  N   UNL     1      17.901   7.712  33.144  0.00  0.00    -0.308 N 
ATOM     37  H   UNL     1      18.805   7.871  33.564  0.00  0.00    +0.149 HD
ATOM     38  C   UNL     1      17.037   6.931  33.798  0.00  0.00    +0.210 C 
ATOM     39  C   UNL     1      15.676   6.687  33.118  0.00  0.00    +0.109 C 
ATOM     40  O   UNL     1      17.293   6.416  34.887  0.00  0.00    -0.276 OA
ENDBRANCH  35  36
BRANCH  32  41
ATOM     41  C   UNL     1      19.810  10.663  29.937  0.00  0.00    +0.414 C 
ATOM     42  O   UNL     1      20.776   9.926  29.740  0.00  0.00    -0.240 OA
ATOM     43  O   UNL     1      19.999  11.800  30.369  0.00  0.00    -0.240 OA
ENDBRANCH  32  41
BRANCH  32  44
ATOM     44  O   UNL     1      17.892  10.771  28.421  0.00  0.00    -0.343 OA
ATOM     45  C   UNL     1      18.481  10.251  27.202  0.00  0.00    +0.198 C 
ENDBRANCH  32  44
BRANCH  34  46
ATOM     46  O   UNL     1      18.478   6.483  30.597  0.00  0.00    -0.390 OA
ATOM     47  H   UNL     1      19.164   6.171  30.002  0.00  0.00    +0.210 HD
ENDBRANCH  34  46
ENDBRANCH  29  30
BRANCH  29  48
ATOM     48  O   UNL     1      15.407  10.526  32.495  0.00  0.00    -0.387 OA
ATOM     49  H   UNL     1      15.450  10.641  31.543  0.00  0.00    +0.210 HD
ENDBRANCH  29  48
ENDBRANCH  26  29
ENDBRANCH   1  26
TORSDOF 18
