REMARK VINA RESULT:    -5.938      5.666      7.932
REMARK INTER + INTRA:         -12.871
REMARK INTER:                 -10.335
REMARK INTRA:                  -2.536
REMARK UNBOUND:                -2.246
REMARK  Name = lig_assembled_5.pdb
REMARK  18 active torsions:
REMARK  status: ('A' for Active; 'I' for Inactive)
REMARK    1  A    between atoms: _2  and  _9
REMARK    2  A    between atoms: _4  and  _20
REMARK    3  A    between atoms: _6  and  _7
REMARK    4  A    between atoms: _6  and  _20
REMARK    5  A    between atoms: _12  and  _15
REMARK    6  A    between atoms: _13  and  _15
REMARK    7  A    between atoms: _16  and  _36
REMARK    8  A    between atoms: _18  and  _24
REMARK    9  A    between atoms: _19  and  _23
REMARK   10  A    between atoms: _23  and  _24
REMARK   11  A    between atoms: _26  and  _27
REMARK   12  A    between atoms: _28  and  _29
REMARK   13  A    between atoms: _30  and  _32
REMARK   14  A    between atoms: _32  and  _33
REMARK   15  A    between atoms: _32  and  _34
REMARK   16  A    between atoms: _34  and  _35
REMARK   17  A    between atoms: _34  and  _36
REMARK   18  A    between atoms: _37  and  _39
REMARK                            x       y       z     vdW  Elec       q    Type
REMARK                         _______ _______ _______ _____ _____    ______ ____
ROOT
ATOM      1  C   UNL     1      -1.259   3.383  31.783  0.00  0.00    +0.163 C 
ENDROOT
BRANCH   1   2
ATOM      2  O   UNL     1      -1.585   2.885  33.091  0.00  0.00    -0.388 OA
ATOM      3  H   UNL     1      -1.645   1.927  33.064  0.00  0.00    +0.210 HD
ENDBRANCH   1   2
BRANCH   1   4
ATOM      4  C   UNL     1       0.103   2.853  31.348  0.00  0.00    +0.141 C 
BRANCH   4   7
ATOM      5  C   UNL     1       0.780   3.030  28.978  0.00  0.00    +0.401 C 
ATOM      6  O   UNL     1       1.478   4.031  29.155  0.00  0.00    -0.226 OA
ATOM      7  N   UNL     1       0.097   2.417  29.946  0.00  0.00    -0.279 N 
ATOM      8  H   UNL     1      -0.455   1.607  29.700  0.00  0.00    +0.152 HD
BRANCH   5   9
ATOM      9  O   UNL     1       0.679   2.477  27.663  0.00  0.00    -0.444 OA
BRANCH   9  10
ATOM     10  C   UNL     1       1.813   2.877  26.888  0.00  0.00    +0.292 C 
BRANCH  10  12
ATOM     11  N   UNL     1       0.865   4.818  25.681  0.00  0.00    -0.131 NA
ATOM     12  C   UNL     1       1.375   3.553  25.652  0.00  0.00    +0.121 A 
ATOM     13  C   UNL     1       1.394   3.105  24.352  0.00  0.00    +0.143 A 
ATOM     14  N   UNL     1       0.905   4.154  23.606  0.00  0.00    -0.220 N 
ATOM     15  N   UNL     1       0.574   5.174  24.437  0.00  0.00    -0.060 NA
BRANCH  14  16
ATOM     16  C   UNL     1       0.765   4.255  22.198  0.00  0.00    +0.067 A 
ATOM     17  C   UNL     1      -0.457   4.622  21.623  0.00  0.00    +0.031 A 
ATOM     18  C   UNL     1      -0.591   4.655  20.233  0.00  0.00    +0.048 A 
ATOM     19  C   UNL     1       0.487   4.347  19.402  0.00  0.00    +0.120 A 
ATOM     20  C   UNL     1       1.711   3.997  19.971  0.00  0.00    +0.048 A 
ATOM     21  C   UNL     1       1.852   3.950  21.364  0.00  0.00    +0.031 A 
BRANCH  19  22
ATOM     22  O   UNL     1       0.203   4.358  18.064  0.00  0.00    -0.495 OA
ATOM     23  C   UNL     1       0.813   3.341  17.281  0.00  0.00    +0.277 C 
ENDBRANCH  19  22
ENDBRANCH  14  16
ENDBRANCH  10  12
ENDBRANCH   9  10
ENDBRANCH   5   9
ENDBRANCH   4   7
ENDBRANCH   1   4
BRANCH   1  24
ATOM     24  C   UNL     1      -1.240   4.921  31.769  0.00  0.00    +0.175 C 
BRANCH  24  25
ATOM     25  C   UNL     1      -2.655   5.517  31.744  0.00  0.00    +0.176 C 
ATOM     26  O   UNL     1      -3.234   5.352  33.068  0.00  0.00    -0.332 OA
ATOM     27  C   UNL     1      -4.553   5.960  33.264  0.00  0.00    +0.277 C 
ATOM     28  C   UNL     1      -5.548   5.452  32.191  0.00  0.00    +0.110 C 
ATOM     29  C   UNL     1      -4.964   5.578  30.768  0.00  0.00    +0.143 C 
ATOM     30  C   UNL     1      -3.589   4.914  30.678  0.00  0.00    +0.133 C 
BRANCH  30  31
ATOM     31  N   UNL     1      -3.006   5.116  29.343  0.00  0.00    -0.308 N 
ATOM     32  H   UNL     1      -2.721   6.052  29.089  0.00  0.00    +0.149 HD
ATOM     33  C   UNL     1      -2.828   4.144  28.444  0.00  0.00    +0.210 C 
ATOM     34  C   UNL     1      -3.296   2.734  28.851  0.00  0.00    +0.109 C 
ATOM     35  O   UNL     1      -2.323   4.340  27.338  0.00  0.00    -0.276 OA
ENDBRANCH  30  31
BRANCH  27  36
ATOM     36  C   UNL     1      -4.462   7.499  33.195  0.00  0.00    +0.414 C 
ATOM     37  O   UNL     1      -5.423   8.160  32.802  0.00  0.00    -0.240 OA
ATOM     38  O   UNL     1      -3.429   8.078  33.531  0.00  0.00    -0.240 OA
ENDBRANCH  27  36
BRANCH  27  39
ATOM     39  O   UNL     1      -5.043   5.558  34.569  0.00  0.00    -0.343 OA
ATOM     40  C   UNL     1      -4.122   4.754  35.348  0.00  0.00    +0.198 C 
ENDBRANCH  27  39
BRANCH  29  41
ATOM     41  O   UNL     1      -5.846   4.962  29.829  0.00  0.00    -0.390 OA
ATOM     42  H   UNL     1      -5.494   5.065  28.942  0.00  0.00    +0.210 HD
ENDBRANCH  29  41
ENDBRANCH  24  25
BRANCH  24  43
ATOM     43  O   UNL     1      -0.480   5.398  30.641  0.00  0.00    -0.387 OA
ATOM     44  H   UNL     1      -0.875   6.207  30.308  0.00  0.00    +0.210 HD
ENDBRANCH  24  43
ENDBRANCH   1  24
TORSDOF 15
