REMARK VINA RESULT:    -6.887      2.110      3.185
REMARK INTER + INTRA:         -15.038
REMARK INTER:                 -12.712
REMARK INTRA:                  -2.326
REMARK UNBOUND:                -1.911
REMARK  Name = lig_assembled_26.pdb
REMARK  20 active torsions:
REMARK  status: ('A' for Active; 'I' for Inactive)
REMARK    1  A    between atoms: _2  and  _9
REMARK    2  A    between atoms: _4  and  _23
REMARK    3  A    between atoms: _6  and  _7
REMARK    4  A    between atoms: _6  and  _23
REMARK    5  A    between atoms: _9  and  _10
REMARK    6  A    between atoms: _9  and  _11
REMARK    7  A    between atoms: _11  and  _12
REMARK    8  A    between atoms: _12  and  _13
REMARK    9  A    between atoms: _19  and  _39
REMARK   10  A    between atoms: _21  and  _27
REMARK   11  A    between atoms: _22  and  _26
REMARK   12  A    between atoms: _26  and  _27
REMARK   13  A    between atoms: _29  and  _30
REMARK   14  A    between atoms: _31  and  _32
REMARK   15  A    between atoms: _33  and  _35
REMARK   16  A    between atoms: _35  and  _36
REMARK   17  A    between atoms: _35  and  _37
REMARK   18  A    between atoms: _37  and  _38
REMARK   19  A    between atoms: _37  and  _39
REMARK   20  A    between atoms: _40  and  _42
REMARK                            x       y       z     vdW  Elec       q    Type
REMARK                         _______ _______ _______ _____ _____    ______ ____
ROOT
ATOM      1  C   UNL     1       6.521   2.921  34.066  0.00  0.00    +0.163 C 
ENDROOT
BRANCH   1   2
ATOM      2  O   UNL     1       6.618   1.810  34.973  0.00  0.00    -0.388 OA
ATOM      3  H   UNL     1       7.535   1.534  35.044  0.00  0.00    +0.210 HD
ENDBRANCH   1   2
BRANCH   1   4
ATOM      4  C   UNL     1       7.908   3.527  33.788  0.00  0.00    +0.175 C 
BRANCH   4   5
ATOM      5  C   UNL     1       8.590   4.021  35.072  0.00  0.00    +0.176 C 
ATOM      6  O   UNL     1       8.966   2.856  35.856  0.00  0.00    -0.332 OA
ATOM      7  C   UNL     1       9.729   3.132  37.077  0.00  0.00    +0.277 C 
ATOM      8  C   UNL     1       8.971   4.143  37.972  0.00  0.00    +0.110 C 
ATOM      9  C   UNL     1       8.523   5.385  37.175  0.00  0.00    +0.143 C 
ATOM     10  C   UNL     1       7.740   4.982  35.925  0.00  0.00    +0.133 C 
BRANCH  10  11
ATOM     11  N   UNL     1       7.394   6.170  35.128  0.00  0.00    -0.308 N 
ATOM     12  H   UNL     1       8.144   6.658  34.659  0.00  0.00    +0.149 HD
ATOM     13  C   UNL     1       6.154   6.645  34.985  0.00  0.00    +0.210 C 
ATOM     14  C   UNL     1       5.037   5.894  35.734  0.00  0.00    +0.109 C 
ATOM     15  O   UNL     1       5.892   7.634  34.299  0.00  0.00    -0.276 OA
ENDBRANCH  10  11
BRANCH   7  16
ATOM     16  C   UNL     1      11.125   3.693  36.734  0.00  0.00    +0.414 C 
ATOM     17  O   UNL     1      11.824   3.141  35.885  0.00  0.00    -0.240 OA
ATOM     18  O   UNL     1      11.552   4.697  37.305  0.00  0.00    -0.240 OA
ENDBRANCH   7  16
BRANCH   7  19
ATOM     19  O   UNL     1       9.870   1.888  37.810  0.00  0.00    -0.343 OA
ATOM     20  C   UNL     1      10.489   2.012  39.115  0.00  0.00    +0.198 C 
ENDBRANCH   7  19
BRANCH   9  21
ATOM     21  O   UNL     1       7.701   6.215  37.997  0.00  0.00    -0.390 OA
ATOM     22  H   UNL     1       7.111   6.732  37.443  0.00  0.00    +0.210 HD
ENDBRANCH   9  21
ENDBRANCH   4   5
BRANCH   4  23
ATOM     23  O   UNL     1       7.797   4.605  32.838  0.00  0.00    -0.387 OA
ATOM     24  H   UNL     1       8.353   5.336  33.117  0.00  0.00    +0.210 HD
ENDBRANCH   4  23
ENDBRANCH   1   4
BRANCH   1  25
ATOM     25  C   UNL     1       5.890   2.469  32.753  0.00  0.00    +0.141 C 
BRANCH  25  28
ATOM     26  C   UNL     1       3.561   3.286  32.632  0.00  0.00    +0.401 C 
ATOM     27  O   UNL     1       3.110   2.387  33.345  0.00  0.00    -0.226 OA
ATOM     28  N   UNL     1       4.848   3.397  32.298  0.00  0.00    -0.279 N 
ATOM     29  H   UNL     1       5.121   4.164  31.700  0.00  0.00    +0.152 HD
BRANCH  26  30
ATOM     30  O   UNL     1       2.670   4.277  32.115  0.00  0.00    -0.444 OA
BRANCH  30  31
ATOM     31  C   UNL     1       1.378   3.697  31.909  0.00  0.00    +0.292 C 
BRANCH  31  33
ATOM     32  N   UNL     1      -0.109   4.335  30.028  0.00  0.00    -0.131 NA
ATOM     33  C   UNL     1       1.027   3.717  30.479  0.00  0.00    +0.120 A 
ATOM     34  C   UNL     1       1.703   3.181  29.407  0.00  0.00    +0.137 A 
ATOM     35  N   UNL     1       0.919   3.477  28.334  0.00  0.00    -0.248 N 
ATOM     36  N   UNL     1      -0.158   4.198  28.709  0.00  0.00    -0.065 NA
BRANCH  35  37
ATOM     37  C   UNL     1       1.135   3.194  26.923  0.00  0.00    +0.113 C 
ATOM     38  C   UNL     1       1.766   1.823  26.641  0.00  0.00    +0.033 C 
BRANCH  37  39
ATOM     39  C   UNL     1      -0.125   3.428  26.071  0.00  0.00    +0.106 C 
BRANCH  39  40
ATOM     40  C   UNL     1       0.039   4.494  25.004  0.00  0.00    +0.165 C 
ATOM     41  O   UNL     1      -0.362   5.646  25.159  0.00  0.00    -0.292 OA
BRANCH  40  42
ATOM     42  C   UNL     1       0.674   4.121  23.704  0.00  0.00    +0.017 A 
ATOM     43  C   UNL     1       0.644   2.815  23.201  0.00  0.00    +0.011 A 
ATOM     44  C   UNL     1       1.218   2.531  21.959  0.00  0.00    +0.001 A 
ATOM     45  C   UNL     1       1.828   3.543  21.219  0.00  0.00    +0.000 A 
ATOM     46  C   UNL     1       1.871   4.842  21.717  0.00  0.00    +0.001 A 
ATOM     47  C   UNL     1       1.295   5.131  22.956  0.00  0.00    +0.011 A 
ENDBRANCH  40  42
ENDBRANCH  39  40
ENDBRANCH  37  39
ENDBRANCH  35  37
ENDBRANCH  31  33
ENDBRANCH  30  31
ENDBRANCH  26  30
ENDBRANCH  25  28
ENDBRANCH   1  25
TORSDOF 17
