REMARK VINA RESULT:    -6.231     15.509     17.370
REMARK INTER + INTRA:         -15.921
REMARK INTER:                 -12.527
REMARK INTRA:                  -3.394
REMARK UNBOUND:                -3.133
REMARK  Name = lig_assembled_90.pdb
REMARK  22 active torsions:
REMARK  status: ('A' for Active; 'I' for Inactive)
REMARK    1  A    between atoms: _2  and  _13
REMARK    2  A    between atoms: _3  and  _15
REMARK    3  A    between atoms: _4  and  _17
REMARK    4  A    between atoms: _8  and  _28
REMARK    5  A    between atoms: _10  and  _11
REMARK    6  A    between atoms: _10  and  _28
REMARK    7  A    between atoms: _13  and  _14
REMARK    8  A    between atoms: _15  and  _16
REMARK    9  A    between atoms: _16  and  _17
REMARK   10  A    between atoms: _16  and  _22
REMARK   11  A    between atoms: _24  and  _44
REMARK   12  A    between atoms: _26  and  _32
REMARK   13  A    between atoms: _27  and  _31
REMARK   14  A    between atoms: _31  and  _32
REMARK   15  A    between atoms: _34  and  _35
REMARK   16  A    between atoms: _36  and  _37
REMARK   17  A    between atoms: _38  and  _40
REMARK   18  A    between atoms: _40  and  _41
REMARK   19  A    between atoms: _40  and  _42
REMARK   20  A    between atoms: _42  and  _43
REMARK   21  A    between atoms: _42  and  _44
REMARK   22  A    between atoms: _45  and  _47
REMARK                            x       y       z     vdW  Elec       q    Type
REMARK                         _______ _______ _______ _____ _____    ______ ____
ROOT
ATOM      1  C   UNL     1      -1.239   5.066  25.862  0.00  0.00    +0.401 C 
ATOM      2  O   UNL     1      -1.034   6.173  25.359  0.00  0.00    -0.226 OA
ATOM      3  N   UNL     1      -2.000   4.123  25.304  0.00  0.00    -0.279 N 
ATOM      4  H   UNL     1      -2.100   3.243  25.789  0.00  0.00    +0.152 HD
ENDROOT
BRANCH   3   5
ATOM      5  C   UNL     1      -2.700   4.293  24.025  0.00  0.00    +0.141 C 
BRANCH   5   6
ATOM      6  C   UNL     1      -1.976   3.588  22.883  0.00  0.00    +0.163 C 
BRANCH   6   7
ATOM      7  O   UNL     1      -2.869   2.674  22.225  0.00  0.00    -0.388 OA
ATOM      8  H   UNL     1      -3.609   2.476  22.804  0.00  0.00    +0.210 HD
ENDBRANCH   6   7
BRANCH   6   9
ATOM      9  C   UNL     1      -1.433   4.634  21.894  0.00  0.00    +0.175 C 
BRANCH   9  10
ATOM     10  C   UNL     1      -0.355   4.050  20.969  0.00  0.00    +0.176 C 
ATOM     11  O   UNL     1      -1.025   3.301  19.918  0.00  0.00    -0.332 OA
ATOM     12  C   UNL     1      -0.153   2.756  18.874  0.00  0.00    +0.277 C 
ATOM     13  C   UNL     1       0.967   1.890  19.502  0.00  0.00    +0.110 C 
ATOM     14  C   UNL     1       1.688   2.633  20.646  0.00  0.00    +0.143 C 
ATOM     15  C   UNL     1       0.686   3.161  21.674  0.00  0.00    +0.133 C 
BRANCH  15  16
ATOM     16  N   UNL     1       1.377   3.941  22.713  0.00  0.00    -0.308 N 
ATOM     17  H   UNL     1       1.745   4.846  22.456  0.00  0.00    +0.149 HD
ATOM     18  C   UNL     1       1.548   3.531  23.973  0.00  0.00    +0.210 C 
ATOM     19  C   UNL     1       0.998   2.136  24.325  0.00  0.00    +0.109 C 
ATOM     20  O   UNL     1       2.118   4.212  24.826  0.00  0.00    -0.276 OA
ENDBRANCH  15  16
BRANCH  12  21
ATOM     21  C   UNL     1       0.479   3.890  18.041  0.00  0.00    +0.414 C 
ATOM     22  O   UNL     1      -0.227   4.784  17.574  0.00  0.00    -0.240 OA
ATOM     23  O   UNL     1       1.693   3.913  17.836  0.00  0.00    -0.240 OA
ENDBRANCH  12  21
BRANCH  14  24
ATOM     24  O   UNL     1       2.604   1.749  21.293  0.00  0.00    -0.390 OA
ATOM     25  H   UNL     1       2.568   0.886  20.873  0.00  0.00    +0.210 HD
ENDBRANCH  14  24
BRANCH  12  26
ATOM     26  O   UNL     1      -0.958   1.909  18.014  0.00  0.00    -0.343 OA
ATOM     27  C   UNL     1      -0.224   0.873  17.314  0.00  0.00    +0.198 C 
ENDBRANCH  12  26
ENDBRANCH   9  10
BRANCH   9  28
ATOM     28  O   UNL     1      -0.911   5.770  22.611  0.00  0.00    -0.387 OA
ATOM     29  H   UNL     1      -1.334   6.572  22.294  0.00  0.00    +0.210 HD
ENDBRANCH   9  28
ENDBRANCH   6   9
ENDBRANCH   5   6
ENDBRANCH   3   5
BRANCH   1  30
ATOM     30  O   UNL     1      -0.632   4.750  27.117  0.00  0.00    -0.444 OA
BRANCH  30  31
ATOM     31  C   UNL     1      -0.867   3.374  27.429  0.00  0.00    +0.292 C 
BRANCH  31  33
ATOM     32  N   UNL     1       1.489   3.485  28.197  0.00  0.00    -0.131 NA
ATOM     33  C   UNL     1       0.314   2.786  28.089  0.00  0.00    +0.120 A 
ATOM     34  C   UNL     1       0.474   1.548  28.671  0.00  0.00    +0.137 A 
ATOM     35  N   UNL     1       1.756   1.563  29.133  0.00  0.00    -0.242 N 
ATOM     36  N   UNL     1       2.370   2.721  28.830  0.00  0.00    -0.065 NA
BRANCH  35  37
ATOM     37  C   UNL     1       2.491   0.495  29.764  0.00  0.00    +0.240 C 
BRANCH  37  38
ATOM     38  C   UNL     1       2.712   0.771  31.234  0.00  0.00    +0.235 C 
ATOM     39  O   UNL     1       2.654  -0.109  32.090  0.00  0.00    -0.274 OA
ATOM     40  N   UNL     1       3.040   2.077  31.545  0.00  0.00    -0.311 N 
ATOM     41  H   UNL     1       2.813   2.809  30.876  0.00  0.00    +0.149 HD
BRANCH  40  42
ATOM     42  C   UNL     1       3.194   2.490  32.933  0.00  0.00    +0.137 C 
BRANCH  42  43
ATOM     43  C   UNL     1       4.226   3.621  33.065  0.00  0.00    +0.151 C 
BRANCH  43  44
ATOM     44  O   UNL     1       3.707   4.792  32.422  0.00  0.00    -0.388 OA
ATOM     45  H   UNL     1       4.433   5.234  31.937  0.00  0.00    +0.210 HD
ENDBRANCH  43  44
BRANCH  43  46
ATOM     46  C   UNL     1       4.576   3.900  34.532  0.00  0.00    +0.162 C 
BRANCH  46  47
ATOM     47  N   UNL     1       5.988   4.208  34.718  0.00  0.00    -0.269 N 
ATOM     48  C   UNL     1       6.932   3.250  35.015  0.00  0.00    +0.113 A 
ATOM     49  C   UNL     1       8.120   3.926  35.156  0.00  0.00    +0.137 A 
ATOM     50  N   UNL     1       7.936   5.271  34.957  0.00  0.00    -0.172 NA
ATOM     51  C   UNL     1       6.649   5.411  34.683  0.00  0.00    +0.450 A 
ATOM     52  N   UNL     1       6.056   6.696  34.400  0.00  0.00    +0.120 N 
ATOM     53  O   UNL     1       4.868   6.716  34.049  0.00  0.00    +0.045 OA
ATOM     54  O   UNL     1       6.773   7.694  34.538  0.00  0.00    -0.573 OA
ENDBRANCH  46  47
ENDBRANCH  43  46
ENDBRANCH  42  43
ENDBRANCH  40  42
ENDBRANCH  37  38
ENDBRANCH  35  37
ENDBRANCH  31  33
ENDBRANCH  30  31
ENDBRANCH   1  30
TORSDOF 20
