REMARK VINA RESULT:    -5.865      0.000      0.000
REMARK INTER + INTRA:         -13.608
REMARK INTER:                 -12.452
REMARK INTRA:                  -1.155
REMARK UNBOUND:                -3.800
REMARK  Name = lig_assembled_65.pdb
REMARK  16 active torsions:
REMARK  status: ('A' for Active; 'I' for Inactive)
REMARK    1  A    between atoms: _8  and  _20
REMARK    2  A    between atoms: _9  and  _15
REMARK    3  A    between atoms: _10  and  _11
REMARK    4  A    between atoms: _10  and  _20
REMARK    5  A    between atoms: _16  and  _36
REMARK    6  A    between atoms: _18  and  _24
REMARK    7  A    between atoms: _19  and  _23
REMARK    8  A    between atoms: _23  and  _24
REMARK    9  A    between atoms: _26  and  _27
REMARK   10  A    between atoms: _28  and  _29
REMARK   11  A    between atoms: _30  and  _32
REMARK   12  A    between atoms: _32  and  _33
REMARK   13  A    between atoms: _32  and  _34
REMARK   14  A    between atoms: _34  and  _35
REMARK   15  A    between atoms: _34  and  _36
REMARK   16  A    between atoms: _37  and  _39
REMARK                            x       y       z     vdW  Elec       q    Type
REMARK                         _______ _______ _______ _____ _____    ______ ____
ROOT
ATOM      1  C   UNL     1      17.251   2.078  25.997  0.00  0.00    +0.163 C 
ENDROOT
BRANCH   1   2
ATOM      2  O   UNL     1      16.267   2.735  26.812  0.00  0.00    -0.388 OA
ATOM      3  H   UNL     1      15.953   2.128  27.487  0.00  0.00    +0.210 HD
ENDBRANCH   1   2
BRANCH   1   4
ATOM      4  C   UNL     1      18.457   2.991  25.797  0.00  0.00    +0.141 C 
BRANCH   4   7
ATOM      5  C   UNL     1      19.064   5.177  26.776  0.00  0.00    +0.401 C 
ATOM      6  O   UNL     1      20.222   4.842  27.041  0.00  0.00    -0.226 OA
ATOM      7  N   UNL     1      18.169   4.373  26.201  0.00  0.00    -0.279 N 
ATOM      8  H   UNL     1      17.241   4.735  26.032  0.00  0.00    +0.152 HD
BRANCH   5   9
ATOM      9  O   UNL     1      18.632   6.500  27.102  0.00  0.00    -0.444 OA
BRANCH   9  10
ATOM     10  C   UNL     1      19.594   7.119  27.961  0.00  0.00    +0.292 C 
BRANCH  10  12
ATOM     11  N   UNL     1      19.218   6.277  30.259  0.00  0.00    -0.131 NA
ATOM     12  C   UNL     1      19.050   7.262  29.324  0.00  0.00    +0.121 A 
ATOM     13  C   UNL     1      18.338   8.295  29.885  0.00  0.00    +0.149 A 
ATOM     14  N   UNL     1      18.081   7.890  31.178  0.00  0.00    -0.155 N 
ATOM     15  C   UNL     1      17.354   8.603  32.175  0.00  0.00    +0.416 C 
ATOM     16  N   UNL     1      17.208   8.047  33.383  0.00  0.00    +0.041 NA
ATOM     17  C   UNL     1      16.503   8.765  34.254  0.00  0.00    +0.339 C 
ATOM     18  C   UNL     1      16.294   8.189  35.619  0.00  0.00    +0.149 C 
ATOM     19  N   UNL     1      15.961   9.954  33.990  0.00  0.00    +0.007 NA
ATOM     20  C   UNL     1      16.152  10.409  32.762  0.00  0.00    +0.386 C 
ATOM     21  N   UNL     1      15.598  11.631  32.443  0.00  0.00    -0.296 N 
ATOM     22  H   UNL     1      15.428  12.174  33.278  0.00  0.00    +0.148 HD
ATOM     23  H   UNL     1      16.100  12.076  31.689  0.00  0.00    +0.148 HD
ATOM     24  N   UNL     1      16.851   9.796  31.823  0.00  0.00    -0.290 NA
ATOM     25  N   UNL     1      18.630   6.666  31.384  0.00  0.00    -0.055 NA
ENDBRANCH  10  12
ENDBRANCH   9  10
ENDBRANCH   5   9
ENDBRANCH   4   7
ENDBRANCH   1   4
BRANCH   1  26
ATOM     26  C   UNL     1      16.665   1.694  24.628  0.00  0.00    +0.175 C 
BRANCH  26  27
ATOM     27  C   UNL     1      17.694   0.983  23.737  0.00  0.00    +0.176 C 
ATOM     28  O   UNL     1      17.663   1.615  22.427  0.00  0.00    -0.332 OA
ATOM     29  C   UNL     1      18.662   1.133  21.468  0.00  0.00    +0.277 C 
ATOM     30  C   UNL     1      18.563  -0.404  21.310  0.00  0.00    +0.110 C 
ATOM     31  C   UNL     1      18.560  -1.118  22.678  0.00  0.00    +0.143 C 
ATOM     32  C   UNL     1      17.486  -0.536  23.598  0.00  0.00    +0.133 C 
BRANCH  32  33
ATOM     33  N   UNL     1      17.550  -1.164  24.927  0.00  0.00    -0.308 N 
ATOM     34  H   UNL     1      18.328  -0.924  25.525  0.00  0.00    +0.149 HD
ATOM     35  C   UNL     1      16.647  -2.030  25.395  0.00  0.00    +0.210 C 
ATOM     36  C   UNL     1      15.487  -2.395  24.449  0.00  0.00    +0.109 C 
ATOM     37  O   UNL     1      16.719  -2.530  26.518  0.00  0.00    -0.276 OA
ENDBRANCH  32  33
BRANCH  29  38
ATOM     38  C   UNL     1      20.086   1.515  21.922  0.00  0.00    +0.414 C 
ATOM     39  O   UNL     1      21.067   1.052  21.342  0.00  0.00    -0.240 OA
ATOM     40  O   UNL     1      20.253   2.284  22.869  0.00  0.00    -0.240 OA
ENDBRANCH  29  38
BRANCH  29  41
ATOM     41  O   UNL     1      18.380   1.744  20.182  0.00  0.00    -0.343 OA
ATOM     42  C   UNL     1      16.987   1.711  19.781  0.00  0.00    +0.198 C 
ENDBRANCH  29  41
BRANCH  31  43
ATOM     43  O   UNL     1      18.316  -2.513  22.493  0.00  0.00    -0.390 OA
ATOM     44  H   UNL     1      18.455  -2.743  21.572  0.00  0.00    +0.210 HD
ENDBRANCH  31  43
ENDBRANCH  26  27
BRANCH  26  45
ATOM     45  O   UNL     1      16.155   2.866  23.960  0.00  0.00    -0.387 OA
ATOM     46  H   UNL     1      16.676   3.631  24.213  0.00  0.00    +0.210 HD
ENDBRANCH  26  45
ENDBRANCH   1  26
TORSDOF 13
