REMARK VINA RESULT:    -5.920      7.032     12.643
REMARK INTER + INTRA:         -12.736
REMARK INTER:                 -11.040
REMARK INTRA:                  -1.696
REMARK UNBOUND:                -2.491
REMARK  Name = lig_assembled_57.pdb
REMARK  17 active torsions:
REMARK  status: ('A' for Active; 'I' for Inactive)
REMARK    1  A    between atoms: _2  and  _10
REMARK    2  A    between atoms: _3  and  _13
REMARK    3  A    between atoms: _5  and  _19
REMARK    4  A    between atoms: _7  and  _8
REMARK    5  A    between atoms: _7  and  _19
REMARK    6  A    between atoms: _15  and  _35
REMARK    7  A    between atoms: _17  and  _23
REMARK    8  A    between atoms: _18  and  _22
REMARK    9  A    between atoms: _22  and  _23
REMARK   10  A    between atoms: _25  and  _26
REMARK   11  A    between atoms: _27  and  _28
REMARK   12  A    between atoms: _29  and  _31
REMARK   13  A    between atoms: _31  and  _32
REMARK   14  A    between atoms: _31  and  _33
REMARK   15  A    between atoms: _33  and  _34
REMARK   16  A    between atoms: _33  and  _35
REMARK   17  A    between atoms: _36  and  _38
REMARK                            x       y       z     vdW  Elec       q    Type
REMARK                         _______ _______ _______ _____ _____    ______ ____
ROOT
ATOM      1  C   UNL     1      10.173   3.217  35.099  0.00  0.00    +0.163 C 
ENDROOT
BRANCH   1   2
ATOM      2  O   UNL     1      10.009   2.281  34.021  0.00  0.00    -0.388 OA
ATOM      3  H   UNL     1       9.298   2.575  33.446  0.00  0.00    +0.210 HD
ENDBRANCH   1   2
BRANCH   1   4
ATOM      4  C   UNL     1      11.305   2.764  36.016  0.00  0.00    +0.141 C 
BRANCH   4   7
ATOM      5  C   UNL     1      13.308   4.052  35.358  0.00  0.00    +0.401 C 
ATOM      6  O   UNL     1      13.502   3.403  34.327  0.00  0.00    -0.226 OA
ATOM      7  N   UNL     1      12.308   3.818  36.209  0.00  0.00    -0.279 N 
ATOM      8  H   UNL     1      12.237   4.398  37.033  0.00  0.00    +0.152 HD
BRANCH   5   9
ATOM      9  O   UNL     1      14.198   5.122  35.683  0.00  0.00    -0.444 OA
BRANCH   9  10
ATOM     10  C   UNL     1      15.277   5.149  34.744  0.00  0.00    +0.292 C 
BRANCH  10  12
ATOM     11  N   UNL     1      15.297   6.774  32.885  0.00  0.00    -0.131 NA
ATOM     12  C   UNL     1      15.453   6.514  34.216  0.00  0.00    +0.120 A 
ATOM     13  C   UNL     1      15.749   7.689  34.873  0.00  0.00    +0.137 A 
ATOM     14  N   UNL     1      15.671   8.642  33.902  0.00  0.00    -0.248 N 
ATOM     15  N   UNL     1      15.471   8.071  32.696  0.00  0.00    -0.065 NA
BRANCH  14  16
ATOM     16  C   UNL     1      15.703  10.099  33.984  0.00  0.00    +0.111 C 
ATOM     17  C   UNL     1      16.660  10.560  35.094  0.00  0.00    +0.042 C 
ATOM     18  C   UNL     1      18.112  10.378  34.659  0.00  0.00    +0.086 C 
ATOM     19  N   UNL     1      18.440  11.122  33.437  0.00  0.00    -0.305 NA
ATOM     20  C   UNL     1      17.536  10.809  32.330  0.00  0.00    +0.086 C 
ATOM     21  C   UNL     1      18.568  12.556  33.679  0.00  0.00    +0.104 C 
ATOM     22  C   UNL     1      16.042  10.845  32.683  0.00  0.00    +0.042 C 
ENDBRANCH  14  16
ENDBRANCH  10  12
ENDBRANCH   9  10
ENDBRANCH   5   9
ENDBRANCH   4   7
ENDBRANCH   1   4
BRANCH   1  23
ATOM     23  C   UNL     1       8.875   3.352  35.913  0.00  0.00    +0.175 C 
BRANCH  23  24
ATOM     24  C   UNL     1       8.013   4.530  35.436  0.00  0.00    +0.176 C 
ATOM     25  O   UNL     1       7.687   5.344  36.595  0.00  0.00    -0.332 OA
ATOM     26  C   UNL     1       6.952   6.581  36.315  0.00  0.00    +0.277 C 
ATOM     27  C   UNL     1       5.663   6.274  35.513  0.00  0.00    +0.110 C 
ATOM     28  C   UNL     1       5.955   5.383  34.287  0.00  0.00    +0.143 C 
ATOM     29  C   UNL     1       6.726   4.127  34.692  0.00  0.00    +0.133 C 
BRANCH  29  30
ATOM     30  N   UNL     1       7.073   3.330  33.505  0.00  0.00    -0.308 N 
ATOM     31  H   UNL     1       7.700   3.741  32.828  0.00  0.00    +0.149 HD
ATOM     32  C   UNL     1       6.614   2.098  33.265  0.00  0.00    +0.210 C 
ATOM     33  C   UNL     1       5.641   1.510  34.303  0.00  0.00    +0.109 C 
ATOM     34  O   UNL     1       6.934   1.448  32.269  0.00  0.00    -0.276 OA
ENDBRANCH  29  30
BRANCH  26  35
ATOM     35  C   UNL     1       7.829   7.572  35.522  0.00  0.00    +0.414 C 
ATOM     36  O   UNL     1       8.989   7.789  35.870  0.00  0.00    -0.240 OA
ATOM     37  O   UNL     1       7.378   8.153  34.535  0.00  0.00    -0.240 OA
ENDBRANCH  26  35
BRANCH  28  38
ATOM     38  O   UNL     1       4.727   5.002  33.666  0.00  0.00    -0.390 OA
ATOM     39  H   UNL     1       3.992   5.237  34.237  0.00  0.00    +0.210 HD
ENDBRANCH  28  38
BRANCH  26  40
ATOM     40  O   UNL     1       6.570   7.174  37.583  0.00  0.00    -0.343 OA
ATOM     41  C   UNL     1       6.446   6.238  38.684  0.00  0.00    +0.198 C 
ENDBRANCH  26  40
ENDBRANCH  23  24
BRANCH  23  42
ATOM     42  O   UNL     1       9.180   3.495  37.315  0.00  0.00    -0.387 OA
ATOM     43  H   UNL     1       9.760   4.250  37.440  0.00  0.00    +0.210 HD
ENDBRANCH  23  42
ENDBRANCH   1  23
TORSDOF 14
