REMARK VINA RESULT:    -5.557     14.682     18.365
REMARK INTER + INTRA:         -13.027
REMARK INTER:                 -11.253
REMARK INTRA:                  -1.774
REMARK UNBOUND:                -2.111
REMARK  Name = lig_assembled_17.pdb
REMARK  22 active torsions:
REMARK  status: ('A' for Active; 'I' for Inactive)
REMARK    1  A    between atoms: _2  and  _10
REMARK    2  A    between atoms: _3  and  _11
REMARK    3  A    between atoms: _3  and  _12
REMARK    4  A    between atoms: _3  and  _14
REMARK    5  A    between atoms: _5  and  _19
REMARK    6  A    between atoms: _6  and  _14
REMARK    7  A    between atoms: _7  and  _8
REMARK    8  A    between atoms: _7  and  _19
REMARK    9  A    between atoms: _10  and  _11
REMARK   10  A    between atoms: _12  and  _13
REMARK   11  A    between atoms: _15  and  _35
REMARK   12  A    between atoms: _17  and  _23
REMARK   13  A    between atoms: _18  and  _22
REMARK   14  A    between atoms: _22  and  _23
REMARK   15  A    between atoms: _25  and  _26
REMARK   16  A    between atoms: _27  and  _28
REMARK   17  A    between atoms: _29  and  _31
REMARK   18  A    between atoms: _31  and  _32
REMARK   19  A    between atoms: _31  and  _33
REMARK   20  A    between atoms: _33  and  _34
REMARK   21  A    between atoms: _33  and  _35
REMARK   22  A    between atoms: _36  and  _38
REMARK                            x       y       z     vdW  Elec       q    Type
REMARK                         _______ _______ _______ _____ _____    ______ ____
ROOT
ATOM      1  C   UNL     1      16.593   1.102  26.236  0.00  0.00    +0.163 C 
ENDROOT
BRANCH   1   2
ATOM      2  O   UNL     1      15.706   0.168  26.873  0.00  0.00    -0.388 OA
ATOM      3  H   UNL     1      15.810  -0.698  26.471  0.00  0.00    +0.210 HD
ENDBRANCH   1   2
BRANCH   1   4
ATOM      4  C   UNL     1      16.338   1.157  24.720  0.00  0.00    +0.175 C 
BRANCH   4   5
ATOM      5  C   UNL     1      17.515   0.586  23.915  0.00  0.00    +0.176 C 
ATOM      6  O   UNL     1      17.584   1.306  22.653  0.00  0.00    -0.332 OA
ATOM      7  C   UNL     1      18.720   0.967  21.791  0.00  0.00    +0.277 C 
ATOM      8  C   UNL     1      18.762  -0.559  21.527  0.00  0.00    +0.110 C 
ATOM      9  C   UNL     1      18.659  -1.367  22.837  0.00  0.00    +0.143 C 
ATOM     10  C   UNL     1      17.444  -0.930  23.657  0.00  0.00    +0.133 C 
BRANCH  10  11
ATOM     11  N   UNL     1      17.406  -1.646  24.943  0.00  0.00    -0.308 N 
ATOM     12  H   UNL     1      18.093  -1.398  25.641  0.00  0.00    +0.149 HD
ATOM     13  C   UNL     1      16.523  -2.601  25.246  0.00  0.00    +0.210 C 
ATOM     14  C   UNL     1      15.506  -2.974  24.152  0.00  0.00    +0.109 C 
ATOM     15  O   UNL     1      16.506  -3.173  26.337  0.00  0.00    -0.276 OA
ENDBRANCH  10  11
BRANCH   7  16
ATOM     16  C   UNL     1      20.048   1.415  22.435  0.00  0.00    +0.414 C 
ATOM     17  O   UNL     1      21.092   0.814  22.186  0.00  0.00    -0.240 OA
ATOM     18  O   UNL     1      20.076   2.377  23.203  0.00  0.00    -0.240 OA
ENDBRANCH   7  16
BRANCH   9  19
ATOM     19  O   UNL     1      18.549  -2.759  22.538  0.00  0.00    -0.390 OA
ATOM     20  H   UNL     1      19.356  -3.208  22.798  0.00  0.00    +0.210 HD
ENDBRANCH   9  19
BRANCH   7  21
ATOM     21  O   UNL     1      18.539   1.646  20.522  0.00  0.00    -0.343 OA
ATOM     22  C   UNL     1      17.162   1.765  20.082  0.00  0.00    +0.198 C 
ENDBRANCH   7  21
ENDBRANCH   4   5
BRANCH   4  23
ATOM     23  O   UNL     1      16.066   2.512  24.311  0.00  0.00    -0.387 OA
ATOM     24  H   UNL     1      15.628   2.507  23.456  0.00  0.00    +0.210 HD
ENDBRANCH   4  23
ENDBRANCH   1   4
BRANCH   1  25
ATOM     25  C   UNL     1      16.405   2.492  26.835  0.00  0.00    +0.141 C 
BRANCH  25  28
ATOM     26  C   UNL     1      18.336   3.782  27.679  0.00  0.00    +0.401 C 
ATOM     27  O   UNL     1      18.088   3.557  28.866  0.00  0.00    -0.226 OA
ATOM     28  N   UNL     1      17.599   3.328  26.664  0.00  0.00    -0.279 N 
ATOM     29  H   UNL     1      17.879   3.574  25.725  0.00  0.00    +0.152 HD
BRANCH  26  30
ATOM     30  O   UNL     1      19.477   4.577  27.347  0.00  0.00    -0.444 OA
BRANCH  30  31
ATOM     31  C   UNL     1      19.142   5.473  26.284  0.00  0.00    +0.292 C 
BRANCH  31  33
ATOM     32  N   UNL     1      19.240   7.125  28.120  0.00  0.00    -0.131 NA
ATOM     33  C   UNL     1      19.015   6.849  26.797  0.00  0.00    +0.120 A 
ATOM     34  C   UNL     1      18.696   8.017  26.139  0.00  0.00    +0.137 A 
ATOM     35  N   UNL     1      18.764   8.966  27.114  0.00  0.00    -0.250 N 
ATOM     36  N   UNL     1      19.080   8.427  28.304  0.00  0.00    -0.065 NA
BRANCH  35  37
ATOM     37  C   UNL     1      18.589  10.399  26.991  0.00  0.00    +0.160 C 
BRANCH  37  38
ATOM     38  C   UNL     1      19.133  11.118  28.233  0.00  0.00    +0.107 C 
BRANCH  38  39
ATOM     39  N   UNL     1      20.276  12.036  28.006  0.00  0.00    -0.301 NA
BRANCH  39  40
ATOM     40  C   UNL     1      21.019  12.361  29.237  0.00  0.00    +0.081 C 
ATOM     41  C   UNL     1      21.625  13.759  29.317  0.00  0.00    +0.020 C 
ENDBRANCH  39  40
BRANCH  39  42
ATOM     42  C   UNL     1      21.129  11.478  26.936  0.00  0.00    +0.081 C 
ATOM     43  C   UNL     1      22.239  10.550  27.420  0.00  0.00    +0.020 C 
ENDBRANCH  39  42
ENDBRANCH  38  39
ENDBRANCH  37  38
ENDBRANCH  35  37
ENDBRANCH  31  33
ENDBRANCH  30  31
ENDBRANCH  26  30
ENDBRANCH  25  28
ENDBRANCH   1  25
TORSDOF 18
