REMARK VINA RESULT:    -5.452     14.631     18.143
REMARK INTER + INTRA:         -13.522
REMARK INTER:                 -11.598
REMARK INTRA:                  -1.925
REMARK UNBOUND:                -3.450
REMARK  Name = lig_assembled_66.pdb
REMARK  18 active torsions:
REMARK  status: ('A' for Active; 'I' for Inactive)
REMARK    1  A    between atoms: _2  and  _10
REMARK    2  A    between atoms: _5  and  _21
REMARK    3  A    between atoms: _7  and  _8
REMARK    4  A    between atoms: _7  and  _21
REMARK    5  A    between atoms: _10  and  _11
REMARK    6  A    between atoms: _15  and  _16
REMARK    7  A    between atoms: _17  and  _37
REMARK    8  A    between atoms: _19  and  _25
REMARK    9  A    between atoms: _20  and  _24
REMARK   10  A    between atoms: _24  and  _25
REMARK   11  A    between atoms: _27  and  _28
REMARK   12  A    between atoms: _29  and  _30
REMARK   13  A    between atoms: _31  and  _33
REMARK   14  A    between atoms: _33  and  _34
REMARK   15  A    between atoms: _33  and  _35
REMARK   16  A    between atoms: _35  and  _36
REMARK   17  A    between atoms: _35  and  _37
REMARK   18  A    between atoms: _38  and  _40
REMARK                            x       y       z     vdW  Elec       q    Type
REMARK                         _______ _______ _______ _____ _____    ______ ____
ROOT
ATOM      1  C   UNL     1      16.490   0.995  26.224  0.00  0.00    +0.163 C 
ENDROOT
BRANCH   1   2
ATOM      2  O   UNL     1      15.393   0.306  26.846  0.00  0.00    -0.388 OA
ATOM      3  H   UNL     1      15.542   0.255  27.793  0.00  0.00    +0.210 HD
ENDBRANCH   1   2
BRANCH   1   4
ATOM      4  C   UNL     1      16.283   1.100  24.703  0.00  0.00    +0.175 C 
BRANCH   4   5
ATOM      5  C   UNL     1      17.429   0.445  23.917  0.00  0.00    +0.176 C 
ATOM      6  O   UNL     1      17.494   1.079  22.610  0.00  0.00    -0.332 OA
ATOM      7  C   UNL     1      18.604   0.652  21.754  0.00  0.00    +0.277 C 
ATOM      8  C   UNL     1      18.599  -0.888  21.588  0.00  0.00    +0.110 C 
ATOM      9  C   UNL     1      18.498  -1.606  22.950  0.00  0.00    +0.143 C 
ATOM     10  C   UNL     1      17.312  -1.083  23.760  0.00  0.00    +0.133 C 
BRANCH  10  11
ATOM     11  N   UNL     1      17.277  -1.712  25.090  0.00  0.00    -0.308 N 
ATOM     12  H   UNL     1      17.974  -1.428  25.764  0.00  0.00    +0.149 HD
ATOM     13  C   UNL     1      16.386  -2.634  25.464  0.00  0.00    +0.210 C 
ATOM     14  C   UNL     1      15.353  -3.064  24.405  0.00  0.00    +0.109 C 
ATOM     15  O   UNL     1      16.372  -3.133  26.589  0.00  0.00    -0.276 OA
ENDBRANCH  10  11
BRANCH   7  16
ATOM     16  C   UNL     1      19.957   1.102  22.345  0.00  0.00    +0.414 C 
ATOM     17  O   UNL     1      20.132   2.277  22.668  0.00  0.00    -0.240 OA
ATOM     18  O   UNL     1      20.871   0.292  22.499  0.00  0.00    -0.240 OA
ENDBRANCH   7  16
BRANCH   7  19
ATOM     19  O   UNL     1      18.419   1.253  20.446  0.00  0.00    -0.343 OA
ATOM     20  C   UNL     1      17.068   1.696  20.162  0.00  0.00    +0.198 C 
ENDBRANCH   7  19
BRANCH   9  21
ATOM     21  O   UNL     1      18.344  -3.011  22.744  0.00  0.00    -0.390 OA
ATOM     22  H   UNL     1      19.203  -3.407  22.581  0.00  0.00    +0.210 HD
ENDBRANCH   9  21
ENDBRANCH   4   5
BRANCH   4  23
ATOM     23  O   UNL     1      16.141   2.481  24.315  0.00  0.00    -0.387 OA
ATOM     24  H   UNL     1      16.875   2.732  23.749  0.00  0.00    +0.210 HD
ENDBRANCH   4  23
ENDBRANCH   1   4
BRANCH   1  25
ATOM     25  C   UNL     1      16.632   2.393  26.817  0.00  0.00    +0.141 C 
BRANCH  25  28
ATOM     26  C   UNL     1      18.946   2.969  27.465  0.00  0.00    +0.401 C 
ATOM     27  O   UNL     1      18.840   2.510  28.605  0.00  0.00    -0.226 OA
ATOM     28  N   UNL     1      17.962   2.962  26.565  0.00  0.00    -0.279 N 
ATOM     29  H   UNL     1      18.141   3.371  25.659  0.00  0.00    +0.152 HD
BRANCH  26  30
ATOM     30  O   UNL     1      20.188   3.553  27.064  0.00  0.00    -0.444 OA
BRANCH  30  31
ATOM     31  C   UNL     1      20.100   3.969  25.699  0.00  0.00    +0.292 C 
BRANCH  31  33
ATOM     32  N   UNL     1      18.696   5.989  25.404  0.00  0.00    -0.131 NA
ATOM     33  C   UNL     1      19.930   5.433  25.617  0.00  0.00    +0.120 A 
ATOM     34  C   UNL     1      20.857   6.440  25.767  0.00  0.00    +0.137 A 
ATOM     35  N   UNL     1      20.117   7.585  25.692  0.00  0.00    -0.247 N 
ATOM     36  N   UNL     1      18.821   7.309  25.454  0.00  0.00    -0.065 NA
BRANCH  35  37
ATOM     37  C   UNL     1      20.521   8.922  26.085  0.00  0.00    +0.180 C 
BRANCH  37  38
ATOM     38  C   UNL     1      19.703   9.484  27.220  0.00  0.00    -0.025 A 
ATOM     39  C   UNL     1      19.006  10.691  27.061  0.00  0.00    +0.005 A 
ATOM     40  C   UNL     1      18.180  11.176  28.078  0.00  0.00    +0.002 A 
ATOM     41  C   UNL     1      18.055  10.470  29.274  0.00  0.00    +0.019 A 
ATOM     42  C   UNL     1      18.770   9.284  29.462  0.00  0.00    +0.052 A 
ATOM     43  C   UNL     1      19.590   8.792  28.437  0.00  0.00    +0.024 A 
BRANCH  42  44
ATOM     44  C   UNL     1      18.656   8.564  30.697  0.00  0.00    +0.099 C 
ATOM     45  N   UNL     1      18.556   7.980  31.696  0.00  0.00    -0.191 NA
ENDBRANCH  42  44
ENDBRANCH  37  38
ENDBRANCH  35  37
ENDBRANCH  31  33
ENDBRANCH  30  31
ENDBRANCH  26  30
ENDBRANCH  25  28
ENDBRANCH   1  25
TORSDOF 16
