REMARK VINA RESULT:    -5.875      2.363      4.529
REMARK INTER + INTRA:         -13.769
REMARK INTER:                 -10.511
REMARK INTRA:                  -3.258
REMARK UNBOUND:                -2.569
REMARK  Name = lig_assembled_18.pdb
REMARK  19 active torsions:
REMARK  status: ('A' for Active; 'I' for Inactive)
REMARK    1  A    between atoms: _2  and  _10
REMARK    2  A    between atoms: _3  and  _12
REMARK    3  A    between atoms: _5  and  _21
REMARK    4  A    between atoms: _7  and  _8
REMARK    5  A    between atoms: _7  and  _21
REMARK    6  A    between atoms: _10  and  _11
REMARK    7  A    between atoms: _12  and  _13
REMARK    8  A    between atoms: _17  and  _37
REMARK    9  A    between atoms: _19  and  _25
REMARK   10  A    between atoms: _20  and  _24
REMARK   11  A    between atoms: _24  and  _25
REMARK   12  A    between atoms: _27  and  _28
REMARK   13  A    between atoms: _29  and  _30
REMARK   14  A    between atoms: _31  and  _33
REMARK   15  A    between atoms: _33  and  _34
REMARK   16  A    between atoms: _33  and  _35
REMARK   17  A    between atoms: _35  and  _36
REMARK   18  A    between atoms: _35  and  _37
REMARK   19  A    between atoms: _38  and  _40
REMARK                            x       y       z     vdW  Elec       q    Type
REMARK                         _______ _______ _______ _____ _____    ______ ____
ROOT
ATOM      1  C   UNL     1       5.870   5.335  38.426  0.00  0.00    +0.163 C 
ENDROOT
BRANCH   1   2
ATOM      2  O   UNL     1       5.505   3.954  38.271  0.00  0.00    -0.388 OA
ATOM      3  H   UNL     1       6.140   3.517  37.699  0.00  0.00    +0.210 HD
ENDBRANCH   1   2
BRANCH   1   4
ATOM      4  C   UNL     1       6.836   5.777  37.314  0.00  0.00    +0.175 C 
BRANCH   4   5
ATOM      5  C   UNL     1       7.030   4.687  36.250  0.00  0.00    +0.176 C 
ATOM      6  O   UNL     1       8.146   3.852  36.663  0.00  0.00    -0.332 OA
ATOM      7  C   UNL     1       8.413   2.686  35.815  0.00  0.00    +0.277 C 
ATOM      8  C   UNL     1       8.603   3.121  34.341  0.00  0.00    +0.110 C 
ATOM      9  C   UNL     1       7.456   4.037  33.866  0.00  0.00    +0.143 C 
ATOM     10  C   UNL     1       7.263   5.215  34.822  0.00  0.00    +0.133 C 
BRANCH  10  11
ATOM     11  N   UNL     1       6.112   6.033  34.406  0.00  0.00    -0.308 N 
ATOM     12  H   UNL     1       5.248   5.556  34.192  0.00  0.00    +0.149 HD
ATOM     13  C   UNL     1       6.136   7.364  34.293  0.00  0.00    +0.210 C 
ATOM     14  C   UNL     1       7.476   8.058  34.601  0.00  0.00    +0.109 C 
ATOM     15  O   UNL     1       5.152   8.024  33.957  0.00  0.00    -0.276 OA
ENDBRANCH  10  11
BRANCH   7  16
ATOM     16  C   UNL     1       7.259   1.666  35.908  0.00  0.00    +0.414 C 
ATOM     17  O   UNL     1       6.937   1.003  34.923  0.00  0.00    -0.240 OA
ATOM     18  O   UNL     1       6.650   1.507  36.966  0.00  0.00    -0.240 OA
ENDBRANCH   7  16
BRANCH   7  19
ATOM     19  O   UNL     1       9.645   2.071  36.273  0.00  0.00    -0.343 OA
ATOM     20  C   UNL     1      10.399   1.375  35.249  0.00  0.00    +0.198 C 
ENDBRANCH   7  19
BRANCH   9  21
ATOM     21  O   UNL     1       7.747   4.535  32.559  0.00  0.00    -0.390 OA
ATOM     22  H   UNL     1       8.342   5.285  32.627  0.00  0.00    +0.210 HD
ENDBRANCH   9  21
ENDBRANCH   4   5
BRANCH   4  23
ATOM     23  O   UNL     1       8.108   6.150  37.881  0.00  0.00    -0.387 OA
ATOM     24  H   UNL     1       8.036   7.017  38.287  0.00  0.00    +0.210 HD
ENDBRANCH   4  23
ENDBRANCH   1   4
BRANCH   1  25
ATOM     25  C   UNL     1       4.621   6.211  38.395  0.00  0.00    +0.141 C 
BRANCH  25  28
ATOM     26  C   UNL     1       2.450   5.465  37.480  0.00  0.00    +0.401 C 
ATOM     27  O   UNL     1       1.907   5.384  38.584  0.00  0.00    -0.226 OA
ATOM     28  N   UNL     1       3.718   5.837  37.299  0.00  0.00    -0.279 N 
ATOM     29  H   UNL     1       4.077   5.864  36.355  0.00  0.00    +0.152 HD
BRANCH  26  30
ATOM     30  O   UNL     1       1.697   5.141  36.309  0.00  0.00    -0.444 OA
BRANCH  30  31
ATOM     31  C   UNL     1       1.931   3.776  35.953  0.00  0.00    +0.292 C 
BRANCH  31  33
ATOM     32  N   UNL     1       3.604   4.394  34.230  0.00  0.00    -0.131 NA
ATOM     33  C   UNL     1       2.484   3.689  34.588  0.00  0.00    +0.120 A 
ATOM     34  C   UNL     1       2.045   2.965  33.504  0.00  0.00    +0.137 A 
ATOM     35  N   UNL     1       2.952   3.247  32.526  0.00  0.00    -0.242 N 
ATOM     36  N   UNL     1       3.876   4.124  32.960  0.00  0.00    -0.065 NA
BRANCH  35  37
ATOM     37  C   UNL     1       2.948   2.829  31.144  0.00  0.00    +0.240 C 
BRANCH  37  38
ATOM     38  C   UNL     1       1.758   3.371  30.386  0.00  0.00    +0.235 C 
ATOM     39  O   UNL     1       1.298   4.490  30.605  0.00  0.00    -0.274 OA
ATOM     40  N   UNL     1       1.266   2.544  29.396  0.00  0.00    -0.309 N 
ATOM     41  H   UNL     1       1.553   1.577  29.353  0.00  0.00    +0.149 HD
BRANCH  40  42
ATOM     42  C   UNL     1       0.138   2.935  28.576  0.00  0.00    +0.146 C 
BRANCH  42  43
ATOM     43  C   UNL     1       0.627   3.434  27.255  0.00  0.00    +0.007 A 
ATOM     44  S   UNL     1      -0.411   4.314  26.213  0.00  0.00    -0.100 S 
ATOM     45  C   UNL     1       0.795   4.435  25.007  0.00  0.00    +0.045 A 
ATOM     46  C   UNL     1       1.973   3.833  25.390  0.00  0.00    +0.008 A 
ATOM     47  C   UNL     1       1.878   3.262  26.692  0.00  0.00    +0.013 A 
ENDBRANCH  42  43
ENDBRANCH  40  42
ENDBRANCH  37  38
ENDBRANCH  35  37
ENDBRANCH  31  33
ENDBRANCH  30  31
ENDBRANCH  26  30
ENDBRANCH  25  28
ENDBRANCH   1  25
TORSDOF 17
