REMARK VINA RESULT:    -6.525      1.744      3.363
REMARK INTER + INTRA:         -13.449
REMARK INTER:                 -11.572
REMARK INTRA:                  -1.877
REMARK UNBOUND:                -1.775
REMARK  Name = lig_assembled_69.pdb
REMARK  18 active torsions:
REMARK  status: ('A' for Active; 'I' for Inactive)
REMARK    1  A    between atoms: _2  and  _9
REMARK    2  A    between atoms: _4  and  _21
REMARK    3  A    between atoms: _6  and  _7
REMARK    4  A    between atoms: _6  and  _21
REMARK    5  A    between atoms: _11  and  _16
REMARK    6  A    between atoms: _14  and  _15
REMARK    7  A    between atoms: _17  and  _37
REMARK    8  A    between atoms: _19  and  _25
REMARK    9  A    between atoms: _20  and  _24
REMARK   10  A    between atoms: _24  and  _25
REMARK   11  A    between atoms: _27  and  _28
REMARK   12  A    between atoms: _29  and  _30
REMARK   13  A    between atoms: _31  and  _33
REMARK   14  A    between atoms: _33  and  _34
REMARK   15  A    between atoms: _33  and  _35
REMARK   16  A    between atoms: _35  and  _36
REMARK   17  A    between atoms: _35  and  _37
REMARK   18  A    between atoms: _38  and  _40
REMARK                            x       y       z     vdW  Elec       q    Type
REMARK                         _______ _______ _______ _____ _____    ______ ____
ROOT
ATOM      1  C   UNL     1       5.784   3.295  33.395  0.00  0.00    +0.163 C 
ENDROOT
BRANCH   1   2
ATOM      2  O   UNL     1       6.675   4.295  32.874  0.00  0.00    -0.388 OA
ATOM      3  H   UNL     1       6.866   4.105  31.952  0.00  0.00    +0.210 HD
ENDBRANCH   1   2
BRANCH   1   4
ATOM      4  C   UNL     1       4.689   3.933  34.266  0.00  0.00    +0.175 C 
BRANCH   4   5
ATOM      5  C   UNL     1       5.253   5.008  35.207  0.00  0.00    +0.176 C 
ATOM      6  O   UNL     1       6.648   4.690  35.465  0.00  0.00    -0.332 OA
ATOM      7  C   UNL     1       7.384   5.672  36.266  0.00  0.00    +0.277 C 
ATOM      8  C   UNL     1       6.652   5.938  37.604  0.00  0.00    +0.110 C 
ATOM      9  C   UNL     1       5.157   6.251  37.382  0.00  0.00    +0.143 C 
ATOM     10  C   UNL     1       4.490   5.166  36.535  0.00  0.00    +0.133 C 
BRANCH  10  11
ATOM     11  N   UNL     1       3.088   5.518  36.258  0.00  0.00    -0.308 N 
ATOM     12  H   UNL     1       2.910   6.262  35.598  0.00  0.00    +0.149 HD
ATOM     13  C   UNL     1       2.036   4.920  36.823  0.00  0.00    +0.210 C 
ATOM     14  C   UNL     1       2.341   3.809  37.845  0.00  0.00    +0.109 C 
ATOM     15  O   UNL     1       0.872   5.226  36.560  0.00  0.00    -0.276 OA
ENDBRANCH  10  11
BRANCH   7  16
ATOM     16  C   UNL     1       7.545   6.998  35.493  0.00  0.00    +0.414 C 
ATOM     17  O   UNL     1       7.791   8.042  36.097  0.00  0.00    -0.240 OA
ATOM     18  O   UNL     1       7.428   7.024  34.267  0.00  0.00    -0.240 OA
ENDBRANCH   7  16
BRANCH   7  19
ATOM     19  O   UNL     1       8.692   5.119  36.563  0.00  0.00    -0.343 OA
ATOM     20  C   UNL     1       8.972   3.840  35.940  0.00  0.00    +0.198 C 
ENDBRANCH   7  19
BRANCH   9  21
ATOM     21  O   UNL     1       4.491   6.339  38.643  0.00  0.00    -0.390 OA
ATOM     22  H   UNL     1       3.552   6.478  38.500  0.00  0.00    +0.210 HD
ENDBRANCH   9  21
ENDBRANCH   4   5
BRANCH   4  23
ATOM     23  O   UNL     1       4.005   2.917  35.027  0.00  0.00    -0.387 OA
ATOM     24  H   UNL     1       3.459   3.333  35.698  0.00  0.00    +0.210 HD
ENDBRANCH   4  23
ENDBRANCH   1   4
BRANCH   1  25
ATOM     25  C   UNL     1       5.138   2.523  32.248  0.00  0.00    +0.141 C 
BRANCH  25  28
ATOM     26  C   UNL     1       3.068   2.694  30.911  0.00  0.00    +0.401 C 
ATOM     27  O   UNL     1       3.035   1.493  30.634  0.00  0.00    -0.226 OA
ATOM     28  N   UNL     1       4.018   3.263  31.654  0.00  0.00    -0.279 N 
ATOM     29  H   UNL     1       3.964   4.258  31.818  0.00  0.00    +0.152 HD
BRANCH  26  30
ATOM     30  O   UNL     1       2.037   3.550  30.411  0.00  0.00    -0.444 OA
BRANCH  30  31
ATOM     31  C   UNL     1       1.164   2.800  29.562  0.00  0.00    +0.292 C 
BRANCH  31  33
ATOM     32  N   UNL     1       2.501   3.684  27.681  0.00  0.00    -0.131 NA
ATOM     33  C   UNL     1       1.296   3.249  28.164  0.00  0.00    +0.120 A 
ATOM     34  C   UNL     1       0.354   3.328  27.162  0.00  0.00    +0.137 A 
ATOM     35  N   UNL     1       1.046   3.832  26.100  0.00  0.00    -0.248 N 
ATOM     36  N   UNL     1       2.334   4.044  26.418  0.00  0.00    -0.065 NA
BRANCH  35  37
ATOM     37  C   UNL     1       0.533   4.182  24.776  0.00  0.00    +0.114 C 
ATOM     38  C   UNL     1       0.108   2.937  23.990  0.00  0.00    +0.062 C 
ATOM     39  C   UNL     1       1.216   2.206  23.228  0.00  0.00    +0.139 C 
ATOM     40  C   UNL     1       1.774   2.909  22.023  0.00  0.00    +0.002 C 
ATOM     41  C   UNL     1       1.741   4.217  21.723  0.00  0.00    +0.002 C 
ATOM     42  C   UNL     1       1.264   5.344  22.587  0.00  0.00    +0.139 C 
ATOM     43  C   UNL     1       1.506   5.143  24.079  0.00  0.00    +0.062 C 
BRANCH  39  44
ATOM     44  O   UNL     1       0.649   0.987  22.732  0.00  0.00    -0.388 OA
ATOM     45  H   UNL     1       0.313   0.491  23.497  0.00  0.00    +0.210 HD
ENDBRANCH  39  44
BRANCH  42  46
ATOM     46  O   UNL     1      -0.112   5.581  22.335  0.00  0.00    -0.388 OA
ATOM     47  H   UNL     1      -0.172   6.081  21.503  0.00  0.00    +0.210 HD
ENDBRANCH  42  46
ENDBRANCH  35  37
ENDBRANCH  31  33
ENDBRANCH  30  31
ENDBRANCH  26  30
ENDBRANCH  25  28
ENDBRANCH   1  25
TORSDOF 16
