REMARK VINA RESULT:    -5.738     13.707     15.879
REMARK INTER + INTRA:         -14.341
REMARK INTER:                 -11.559
REMARK INTRA:                  -2.782
REMARK UNBOUND:                -2.564
REMARK  Name = lig_assembled_74.pdb
REMARK  24 active torsions:
REMARK  status: ('A' for Active; 'I' for Inactive)
REMARK    1  A    between atoms: _2  and  _9
REMARK    2  A    between atoms: _4  and  _22
REMARK    3  A    between atoms: _5  and  _14
REMARK    4  A    between atoms: _6  and  _7
REMARK    5  A    between atoms: _6  and  _22
REMARK    6  A    between atoms: _9  and  _10
REMARK    7  A    between atoms: _10  and  _11
REMARK    8  A    between atoms: _10  and  _13
REMARK    9  A    between atoms: _11  and  _12
REMARK   10  A    between atoms: _12  and  _16
REMARK   11  A    between atoms: _13  and  _14
REMARK   12  A    between atoms: _14  and  _15
REMARK   13  A    between atoms: _18  and  _38
REMARK   14  A    between atoms: _20  and  _26
REMARK   15  A    between atoms: _21  and  _25
REMARK   16  A    between atoms: _25  and  _26
REMARK   17  A    between atoms: _28  and  _29
REMARK   18  A    between atoms: _30  and  _31
REMARK   19  A    between atoms: _32  and  _34
REMARK   20  A    between atoms: _34  and  _35
REMARK   21  A    between atoms: _34  and  _36
REMARK   22  A    between atoms: _36  and  _37
REMARK   23  A    between atoms: _36  and  _38
REMARK   24  A    between atoms: _39  and  _41
REMARK                            x       y       z     vdW  Elec       q    Type
REMARK                         _______ _______ _______ _____ _____    ______ ____
ROOT
ATOM      1  C   UNL     1       6.157   1.779  33.080  0.00  0.00    +0.163 C 
ENDROOT
BRANCH   1   2
ATOM      2  O   UNL     1       7.530   1.484  32.773  0.00  0.00    -0.388 OA
ATOM      3  H   UNL     1       7.657   1.505  31.822  0.00  0.00    +0.210 HD
ENDBRANCH   1   2
BRANCH   1   4
ATOM      4  C   UNL     1       6.035   2.456  34.456  0.00  0.00    +0.175 C 
BRANCH   4   5
ATOM      5  C   UNL     1       7.379   3.012  34.948  0.00  0.00    +0.176 C 
ATOM      6  O   UNL     1       7.978   2.021  35.828  0.00  0.00    -0.332 OA
ATOM      7  C   UNL     1       9.325   2.336  36.314  0.00  0.00    +0.277 C 
ATOM      8  C   UNL     1       9.341   3.724  37.001  0.00  0.00    +0.110 C 
ATOM      9  C   UNL     1       8.686   4.805  36.116  0.00  0.00    +0.143 C 
ATOM     10  C   UNL     1       7.290   4.373  35.664  0.00  0.00    +0.133 C 
BRANCH  10  11
ATOM     11  N   UNL     1       6.712   5.372  34.751  0.00  0.00    -0.308 N 
ATOM     12  H   UNL     1       7.171   5.521  33.864  0.00  0.00    +0.149 HD
ATOM     13  C   UNL     1       5.620   6.093  35.019  0.00  0.00    +0.210 C 
ATOM     14  C   UNL     1       4.959   5.860  36.391  0.00  0.00    +0.109 C 
ATOM     15  O   UNL     1       5.149   6.912  34.229  0.00  0.00    -0.276 OA
ENDBRANCH  10  11
BRANCH   7  16
ATOM     16  C   UNL     1      10.342   2.323  35.155  0.00  0.00    +0.414 C 
ATOM     17  O   UNL     1      10.033   1.844  34.064  0.00  0.00    -0.240 OA
ATOM     18  O   UNL     1      11.471   2.791  35.309  0.00  0.00    -0.240 OA
ENDBRANCH   7  16
BRANCH   9  19
ATOM     19  O   UNL     1       8.586   6.029  36.845  0.00  0.00    -0.390 OA
ATOM     20  H   UNL     1       8.248   6.719  36.268  0.00  0.00    +0.210 HD
ENDBRANCH   9  19
BRANCH   7  21
ATOM     21  O   UNL     1       9.692   1.335  37.298  0.00  0.00    -0.343 OA
ATOM     22  C   UNL     1      10.214   1.863  38.544  0.00  0.00    +0.198 C 
ENDBRANCH   7  21
ENDBRANCH   4   5
BRANCH   4  23
ATOM     23  O   UNL     1       5.498   1.529  35.420  0.00  0.00    -0.387 OA
ATOM     24  H   UNL     1       5.745   0.634  35.176  0.00  0.00    +0.210 HD
ENDBRANCH   4  23
ENDBRANCH   1   4
BRANCH   1  25
ATOM     25  C   UNL     1       5.567   2.690  32.009  0.00  0.00    +0.141 C 
BRANCH  25  28
ATOM     26  C   UNL     1       3.218   3.416  32.252  0.00  0.00    +0.401 C 
ATOM     27  O   UNL     1       3.507   4.500  32.765  0.00  0.00    -0.226 OA
ATOM     28  N   UNL     1       4.117   2.507  31.873  0.00  0.00    -0.279 N 
ATOM     29  H   UNL     1       3.781   1.643  31.470  0.00  0.00    +0.152 HD
BRANCH  26  30
ATOM     30  O   UNL     1       1.841   3.092  32.044  0.00  0.00    -0.444 OA
BRANCH  30  31
ATOM     31  C   UNL     1       1.337   3.838  30.933  0.00  0.00    +0.292 C 
BRANCH  31  33
ATOM     32  N   UNL     1       0.178   2.226  29.442  0.00  0.00    -0.131 NA
ATOM     33  C   UNL     1       1.276   2.996  29.722  0.00  0.00    +0.120 A 
ATOM     34  C   UNL     1       2.176   2.891  28.684  0.00  0.00    +0.137 A 
ATOM     35  N   UNL     1       1.487   2.194  27.732  0.00  0.00    -0.251 N 
ATOM     36  N   UNL     1       0.330   1.717  28.227  0.00  0.00    -0.065 NA
BRANCH  35  37
ATOM     37  C   UNL     1       1.707   2.227  26.299  0.00  0.00    +0.149 C 
BRANCH  37  38
ATOM     38  C   UNL     1       1.383   3.567  25.606  0.00  0.00    +0.021 C 
BRANCH  38  39
ATOM     39  C   UNL     1      -0.122   3.775  25.343  0.00  0.00    +0.125 C 
BRANCH  39  40
ATOM     40  C   UNL     1      -0.746   4.928  26.102  0.00  0.00    +0.305 C 
ATOM     41  O   UNL     1      -1.185   5.945  25.590  0.00  0.00    -0.251 OA
BRANCH  40  42
ATOM     42  O   UNL     1      -0.837   4.699  27.425  0.00  0.00    -0.481 OA
ATOM     43  H   UNL     1      -0.114   4.171  27.810  0.00  0.00    +0.295 HD
ENDBRANCH  40  42
ENDBRANCH  39  40
ENDBRANCH  38  39
BRANCH  38  44
ATOM     44  C   UNL     1       2.250   3.698  24.318  0.00  0.00    +0.009 C 
BRANCH  44  45
ATOM     45  C   UNL     1       1.471   3.818  22.991  0.00  0.00    -0.017 C 
ATOM     46  C   UNL     1       1.769   5.130  22.263  0.00  0.00    +0.007 C 
ATOM     47  C   UNL     1       1.805   2.645  22.063  0.00  0.00    +0.007 C 
ENDBRANCH  44  45
ENDBRANCH  38  44
ENDBRANCH  37  38
ENDBRANCH  35  37
ENDBRANCH  31  33
ENDBRANCH  30  31
ENDBRANCH  26  30
ENDBRANCH  25  28
ENDBRANCH   1  25
TORSDOF 20
