REMARK VINA RESULT:    -5.457     14.292     18.069
REMARK INTER + INTRA:         -12.832
REMARK INTER:                 -10.284
REMARK INTRA:                  -2.548
REMARK UNBOUND:                -2.111
REMARK  Name = lig_assembled_17.pdb
REMARK  22 active torsions:
REMARK  status: ('A' for Active; 'I' for Inactive)
REMARK    1  A    between atoms: _2  and  _10
REMARK    2  A    between atoms: _3  and  _11
REMARK    3  A    between atoms: _3  and  _12
REMARK    4  A    between atoms: _3  and  _14
REMARK    5  A    between atoms: _5  and  _19
REMARK    6  A    between atoms: _6  and  _14
REMARK    7  A    between atoms: _7  and  _8
REMARK    8  A    between atoms: _7  and  _19
REMARK    9  A    between atoms: _10  and  _11
REMARK   10  A    between atoms: _12  and  _13
REMARK   11  A    between atoms: _15  and  _35
REMARK   12  A    between atoms: _17  and  _23
REMARK   13  A    between atoms: _18  and  _22
REMARK   14  A    between atoms: _22  and  _23
REMARK   15  A    between atoms: _25  and  _26
REMARK   16  A    between atoms: _27  and  _28
REMARK   17  A    between atoms: _29  and  _31
REMARK   18  A    between atoms: _31  and  _32
REMARK   19  A    between atoms: _31  and  _33
REMARK   20  A    between atoms: _33  and  _34
REMARK   21  A    between atoms: _33  and  _35
REMARK   22  A    between atoms: _36  and  _38
REMARK                            x       y       z     vdW  Elec       q    Type
REMARK                         _______ _______ _______ _____ _____    ______ ____
ROOT
ATOM      1  C   UNL     1      16.799   1.053  26.256  0.00  0.00    +0.163 C 
ENDROOT
BRANCH   1   2
ATOM      2  O   UNL     1      15.735   0.099  26.406  0.00  0.00    -0.388 OA
ATOM      3  H   UNL     1      14.915   0.480  26.082  0.00  0.00    +0.210 HD
ENDBRANCH   1   2
BRANCH   1   4
ATOM      4  C   UNL     1      17.414   0.975  24.848  0.00  0.00    +0.175 C 
BRANCH   4   5
ATOM      5  C   UNL     1      17.489  -0.469  24.330  0.00  0.00    +0.176 C 
ATOM      6  O   UNL     1      17.827  -1.330  25.452  0.00  0.00    -0.332 OA
ATOM      7  C   UNL     1      17.840  -2.768  25.167  0.00  0.00    +0.277 C 
ATOM      8  C   UNL     1      18.776  -3.074  23.972  0.00  0.00    +0.110 C 
ATOM      9  C   UNL     1      18.475  -2.161  22.765  0.00  0.00    +0.143 C 
ATOM     10  C   UNL     1      18.484  -0.688  23.175  0.00  0.00    +0.133 C 
BRANCH  10  11
ATOM     11  N   UNL     1      18.111   0.166  22.037  0.00  0.00    -0.308 N 
ATOM     12  H   UNL     1      17.151   0.143  21.724  0.00  0.00    +0.149 HD
ATOM     13  C   UNL     1      18.959   0.970  21.389  0.00  0.00    +0.210 C 
ATOM     14  C   UNL     1      20.422   0.963  21.873  0.00  0.00    +0.109 C 
ATOM     15  O   UNL     1      18.616   1.685  20.448  0.00  0.00    -0.276 OA
ENDBRANCH  10  11
BRANCH   7  16
ATOM     16  C   UNL     1      16.417  -3.275  24.851  0.00  0.00    +0.414 C 
ATOM     17  O   UNL     1      15.446  -2.806  25.443  0.00  0.00    -0.240 OA
ATOM     18  O   UNL     1      16.241  -4.153  24.005  0.00  0.00    -0.240 OA
ENDBRANCH   7  16
BRANCH   9  19
ATOM     19  O   UNL     1      19.454  -2.372  21.746  0.00  0.00    -0.390 OA
ATOM     20  H   UNL     1      20.039  -3.087  22.007  0.00  0.00    +0.210 HD
ENDBRANCH   9  19
BRANCH   7  21
ATOM     21  O   UNL     1      18.354  -3.453  26.338  0.00  0.00    -0.343 OA
ATOM     22  C   UNL     1      18.424  -2.644  27.539  0.00  0.00    +0.198 C 
ENDBRANCH   7  21
ENDBRANCH   4   5
BRANCH   4  23
ATOM     23  O   UNL     1      18.726   1.572  24.846  0.00  0.00    -0.387 OA
ATOM     24  H   UNL     1      19.071   1.584  23.950  0.00  0.00    +0.210 HD
ENDBRANCH   4  23
ENDBRANCH   1   4
BRANCH   1  25
ATOM     25  C   UNL     1      16.274   2.463  26.505  0.00  0.00    +0.141 C 
BRANCH  25  28
ATOM     26  C   UNL     1      18.084   3.938  27.315  0.00  0.00    +0.401 C 
ATOM     27  O   UNL     1      18.536   4.159  26.189  0.00  0.00    -0.226 OA
ATOM     28  N   UNL     1      17.033   3.153  27.556  0.00  0.00    -0.279 N 
ATOM     29  H   UNL     1      16.743   3.025  28.515  0.00  0.00    +0.152 HD
BRANCH  26  30
ATOM     30  O   UNL     1      18.711   4.546  28.447  0.00  0.00    -0.444 OA
BRANCH  30  31
ATOM     31  C   UNL     1      19.793   5.372  28.008  0.00  0.00    +0.292 C 
BRANCH  31  33
ATOM     32  N   UNL     1      19.289   7.594  27.049  0.00  0.00    -0.131 NA
ATOM     33  C   UNL     1      19.438   6.795  28.152  0.00  0.00    +0.120 A 
ATOM     34  C   UNL     1      19.194   7.540  29.285  0.00  0.00    +0.137 A 
ATOM     35  N   UNL     1      18.884   8.774  28.801  0.00  0.00    -0.250 N 
ATOM     36  N   UNL     1      18.952   8.808  27.459  0.00  0.00    -0.065 NA
BRANCH  35  37
ATOM     37  C   UNL     1      18.472   9.954  29.534  0.00  0.00    +0.160 C 
BRANCH  37  38
ATOM     38  C   UNL     1      18.430   9.664  31.042  0.00  0.00    +0.107 C 
BRANCH  38  39
ATOM     39  N   UNL     1      17.085   9.423  31.621  0.00  0.00    -0.301 NA
BRANCH  39  40
ATOM     40  C   UNL     1      16.918   8.064  32.165  0.00  0.00    +0.081 C 
ATOM     41  C   UNL     1      18.102   7.491  32.940  0.00  0.00    +0.020 C 
ENDBRANCH  39  40
BRANCH  39  42
ATOM     42  C   UNL     1      16.792  10.488  32.603  0.00  0.00    +0.081 C 
ATOM     43  C   UNL     1      15.526  10.272  33.425  0.00  0.00    +0.020 C 
ENDBRANCH  39  42
ENDBRANCH  38  39
ENDBRANCH  37  38
ENDBRANCH  35  37
ENDBRANCH  31  33
ENDBRANCH  30  31
ENDBRANCH  26  30
ENDBRANCH  25  28
ENDBRANCH   1  25
TORSDOF 18
