REMARK VINA RESULT:    -6.416      4.428      5.704
REMARK INTER + INTRA:         -13.672
REMARK INTER:                 -11.835
REMARK INTRA:                  -1.837
REMARK UNBOUND:                -2.568
REMARK  Name = lig_assembled_27.pdb
REMARK  16 active torsions:
REMARK  status: ('A' for Active; 'I' for Inactive)
REMARK    1  A    between atoms: _2  and  _9
REMARK    2  A    between atoms: _4  and  _18
REMARK    3  A    between atoms: _6  and  _7
REMARK    4  A    between atoms: _6  and  _18
REMARK    5  A    between atoms: _14  and  _34
REMARK    6  A    between atoms: _16  and  _22
REMARK    7  A    between atoms: _17  and  _21
REMARK    8  A    between atoms: _21  and  _22
REMARK    9  A    between atoms: _24  and  _25
REMARK   10  A    between atoms: _26  and  _27
REMARK   11  A    between atoms: _28  and  _30
REMARK   12  A    between atoms: _30  and  _31
REMARK   13  A    between atoms: _30  and  _32
REMARK   14  A    between atoms: _32  and  _33
REMARK   15  A    between atoms: _32  and  _34
REMARK   16  A    between atoms: _35  and  _37
REMARK                            x       y       z     vdW  Elec       q    Type
REMARK                         _______ _______ _______ _____ _____    ______ ____
ROOT
ATOM      1  C   UNL     1       5.145   2.971  32.187  0.00  0.00    +0.163 C 
ENDROOT
BRANCH   1   2
ATOM      2  O   UNL     1       4.317   3.949  32.838  0.00  0.00    -0.388 OA
ATOM      3  H   UNL     1       4.649   4.829  32.646  0.00  0.00    +0.210 HD
ENDBRANCH   1   2
BRANCH   1   4
ATOM      4  C   UNL     1       4.453   1.612  32.198  0.00  0.00    +0.141 C 
BRANCH   4   7
ATOM      5  C   UNL     1       2.764   1.771  30.401  0.00  0.00    +0.401 C 
ATOM      6  O   UNL     1       2.049   2.567  31.015  0.00  0.00    -0.226 OA
ATOM      7  N   UNL     1       3.902   1.268  30.881  0.00  0.00    -0.279 N 
ATOM      8  H   UNL     1       4.414   0.613  30.306  0.00  0.00    +0.152 HD
BRANCH   5   9
ATOM      9  O   UNL     1       2.366   1.343  29.096  0.00  0.00    -0.444 OA
BRANCH   9  10
ATOM     10  C   UNL     1       1.033   1.789  28.833  0.00  0.00    +0.292 C 
BRANCH  10  12
ATOM     11  N   UNL     1       0.512   3.914  27.677  0.00  0.00    -0.131 NA
ATOM     12  C   UNL     1       1.004   2.641  27.630  0.00  0.00    +0.121 A 
ATOM     13  C   UNL     1       1.422   2.369  26.349  0.00  0.00    +0.143 A 
ATOM     14  N   UNL     1       1.172   3.520  25.639  0.00  0.00    -0.220 N 
ATOM     15  N   UNL     1       0.616   4.441  26.464  0.00  0.00    -0.060 NA
BRANCH  14  16
ATOM     16  C   UNL     1       1.422   3.792  24.269  0.00  0.00    +0.068 A 
ATOM     17  C   UNL     1       1.557   5.120  23.836  0.00  0.00    +0.028 A 
ATOM     18  C   UNL     1       1.799   5.401  22.489  0.00  0.00    +0.003 A 
ATOM     19  C   UNL     1       1.907   4.361  21.568  0.00  0.00    +0.020 A 
ATOM     20  C   UNL     1       1.775   3.042  21.996  0.00  0.00    +0.043 A 
ATOM     21 CL   UNL     1       1.910   1.757  20.858  0.00  0.00    -0.083 Cl
ATOM     22  C   UNL     1       1.534   2.749  23.339  0.00  0.00    +0.047 A 
ENDBRANCH  14  16
ENDBRANCH  10  12
ENDBRANCH   9  10
ENDBRANCH   5   9
ENDBRANCH   4   7
ENDBRANCH   1   4
BRANCH   1  23
ATOM     23  C   UNL     1       6.512   2.857  32.883  0.00  0.00    +0.175 C 
BRANCH  23  24
ATOM     24  C   UNL     1       6.529   3.565  34.245  0.00  0.00    +0.176 C 
ATOM     25  O   UNL     1       6.902   4.953  34.023  0.00  0.00    -0.332 OA
ATOM     26  C   UNL     1       6.868   5.816  35.207  0.00  0.00    +0.277 C 
ATOM     27  C   UNL     1       7.736   5.216  36.340  0.00  0.00    +0.110 C 
ATOM     28  C   UNL     1       7.397   3.731  36.591  0.00  0.00    +0.143 C 
ATOM     29  C   UNL     1       7.460   2.927  35.292  0.00  0.00    +0.133 C 
BRANCH  29  30
ATOM     30  N   UNL     1       7.051   1.533  35.529  0.00  0.00    -0.308 N 
ATOM     31  H   UNL     1       6.095   1.364  35.808  0.00  0.00    +0.149 HD
ATOM     32  C   UNL     1       7.860   0.479  35.400  0.00  0.00    +0.210 C 
ATOM     33  C   UNL     1       9.318   0.773  34.999  0.00  0.00    +0.109 C 
ATOM     34  O   UNL     1       7.486  -0.679  35.590  0.00  0.00    -0.276 OA
ENDBRANCH  29  30
BRANCH  26  35
ATOM     35  C   UNL     1       5.420   5.999  35.709  0.00  0.00    +0.414 C 
ATOM     36  O   UNL     1       4.475   5.883  34.930  0.00  0.00    -0.240 OA
ATOM     37  O   UNL     1       5.198   6.263  36.891  0.00  0.00    -0.240 OA
ENDBRANCH  26  35
BRANCH  28  38
ATOM     38  O   UNL     1       8.319   3.179  37.532  0.00  0.00    -0.390 OA
ATOM     39  H   UNL     1       7.888   2.482  38.032  0.00  0.00    +0.210 HD
ENDBRANCH  28  38
BRANCH  26  40
ATOM     40  O   UNL     1       7.424   7.105  34.839  0.00  0.00    -0.343 OA
ATOM     41  C   UNL     1       8.228   7.740  35.865  0.00  0.00    +0.198 C 
ENDBRANCH  26  40
ENDBRANCH  23  24
BRANCH  23  42
ATOM     42  O   UNL     1       7.548   3.390  32.033  0.00  0.00    -0.387 OA
ATOM     43  H   UNL     1       8.394   3.014  32.285  0.00  0.00    +0.210 HD
ENDBRANCH  23  42
ENDBRANCH   1  23
TORSDOF 14
