REMARK VINA RESULT:    -5.786     15.012     18.149
REMARK INTER + INTRA:         -12.078
REMARK INTER:                 -10.013
REMARK INTRA:                  -2.065
REMARK UNBOUND:                -2.065
REMARK  Name = lig_assembled_49.pdb
REMARK  16 active torsions:
REMARK  status: ('A' for Active; 'I' for Inactive)
REMARK    1  A    between atoms: _2  and  _9
REMARK    2  A    between atoms: _4  and  _17
REMARK    3  A    between atoms: _6  and  _7
REMARK    4  A    between atoms: _6  and  _17
REMARK    5  A    between atoms: _13  and  _33
REMARK    6  A    between atoms: _15  and  _21
REMARK    7  A    between atoms: _16  and  _20
REMARK    8  A    between atoms: _20  and  _21
REMARK    9  A    between atoms: _23  and  _24
REMARK   10  A    between atoms: _25  and  _26
REMARK   11  A    between atoms: _27  and  _29
REMARK   12  A    between atoms: _29  and  _30
REMARK   13  A    between atoms: _29  and  _31
REMARK   14  A    between atoms: _31  and  _32
REMARK   15  A    between atoms: _31  and  _33
REMARK   16  A    between atoms: _34  and  _36
REMARK                            x       y       z     vdW  Elec       q    Type
REMARK                         _______ _______ _______ _____ _____    ______ ____
ROOT
ATOM      1  C   UNL     1      17.191   2.139  24.101  0.00  0.00    +0.175 C 
ENDROOT
BRANCH   1   2
ATOM      2  C   UNL     1      18.000   0.840  23.974  0.00  0.00    +0.176 C 
ATOM      3  O   UNL     1      17.078  -0.228  23.622  0.00  0.00    -0.332 OA
ATOM      4  C   UNL     1      17.691  -1.532  23.354  0.00  0.00    +0.277 C 
ATOM      5  C   UNL     1      18.570  -1.973  24.550  0.00  0.00    +0.110 C 
ATOM      6  C   UNL     1      19.545  -0.858  24.982  0.00  0.00    +0.143 C 
ATOM      7  C   UNL     1      18.802   0.455  25.231  0.00  0.00    +0.133 C 
BRANCH   7   8
ATOM      8  N   UNL     1      19.751   1.531  25.557  0.00  0.00    -0.308 N 
ATOM      9  H   UNL     1      20.495   1.719  24.899  0.00  0.00    +0.149 HD
ATOM     10  C   UNL     1      19.695   2.274  26.666  0.00  0.00    +0.210 C 
ATOM     11  C   UNL     1      18.566   1.945  27.661  0.00  0.00    +0.109 C 
ATOM     12  O   UNL     1      20.495   3.179  26.905  0.00  0.00    -0.276 OA
ENDBRANCH   7   8
BRANCH   4  13
ATOM     13  C   UNL     1      18.552  -1.479  22.074  0.00  0.00    +0.414 C 
ATOM     14  O   UNL     1      18.360  -0.601  21.234  0.00  0.00    -0.240 OA
ATOM     15  O   UNL     1      19.436  -2.315  21.882  0.00  0.00    -0.240 OA
ENDBRANCH   4  13
BRANCH   6  16
ATOM     16  O   UNL     1      20.225  -1.248  26.176  0.00  0.00    -0.390 OA
ATOM     17  H   UNL     1      20.434  -2.184  26.134  0.00  0.00    +0.210 HD
ENDBRANCH   6  16
BRANCH   4  18
ATOM     18  O   UNL     1      16.626  -2.503  23.186  0.00  0.00    -0.343 OA
ATOM     19  C   UNL     1      16.917  -3.826  23.703  0.00  0.00    +0.198 C 
ENDBRANCH   4  18
ENDBRANCH   1   2
BRANCH   1  20
ATOM     20  O   UNL     1      16.012   1.915  24.899  0.00  0.00    -0.387 OA
ATOM     21  H   UNL     1      16.214   1.292  25.602  0.00  0.00    +0.210 HD
ENDBRANCH   1  20
BRANCH   1  22
ATOM     22  C   UNL     1      16.801   2.714  22.729  0.00  0.00    +0.163 C 
BRANCH  22  23
ATOM     23  O   UNL     1      17.329   1.907  21.664  0.00  0.00    -0.388 OA
ATOM     24  H   UNL     1      17.869   2.452  21.086  0.00  0.00    +0.210 HD
ENDBRANCH  22  23
BRANCH  22  25
ATOM     25  C   UNL     1      17.321   4.143  22.608  0.00  0.00    +0.141 C 
BRANCH  25  28
ATOM     26  C   UNL     1      18.711   5.724  23.901  0.00  0.00    +0.401 C 
ATOM     27  O   UNL     1      18.585   6.644  23.090  0.00  0.00    -0.226 OA
ATOM     28  N   UNL     1      18.159   4.519  23.753  0.00  0.00    -0.279 N 
ATOM     29  H   UNL     1      18.328   3.825  24.468  0.00  0.00    +0.152 HD
BRANCH  26  30
ATOM     30  O   UNL     1      19.494   5.937  25.078  0.00  0.00    -0.444 OA
BRANCH  30  31
ATOM     31  C   UNL     1      19.372   7.300  25.493  0.00  0.00    +0.292 C 
BRANCH  31  33
ATOM     32  N   UNL     1      19.056   6.247  27.709  0.00  0.00    -0.131 NA
ATOM     33  C   UNL     1      19.226   7.380  26.959  0.00  0.00    +0.120 A 
ATOM     34  C   UNL     1      19.220   8.477  27.791  0.00  0.00    +0.137 A 
ATOM     35  N   UNL     1      19.036   7.946  29.034  0.00  0.00    -0.248 N 
ATOM     36  N   UNL     1      18.941   6.606  28.979  0.00  0.00    -0.065 NA
BRANCH  35  37
ATOM     37  C   UNL     1      18.922   8.651  30.287  0.00  0.00    +0.109 C 
ATOM     38  C   UNL     1      18.438  10.095  30.144  0.00  0.00    +0.027 C 
ATOM     39  C   UNL     1      17.991  10.444  31.553  0.00  0.00    +0.002 C 
ATOM     40  C   UNL     1      17.309   9.178  32.054  0.00  0.00    +0.002 C 
ATOM     41  C   UNL     1      17.950   8.016  31.291  0.00  0.00    +0.027 C 
ENDBRANCH  35  37
ENDBRANCH  31  33
ENDBRANCH  30  31
ENDBRANCH  26  30
ENDBRANCH  25  28
ENDBRANCH  22  25
ENDBRANCH   1  22
TORSDOF 14
