REMARK VINA RESULT:    -5.818     21.503     24.402
REMARK INTER + INTRA:         -11.983
REMARK INTER:                  -9.679
REMARK INTRA:                  -2.304
REMARK UNBOUND:                -1.914
REMARK  Name = lig_assembled_56.pdb
REMARK  16 active torsions:
REMARK  status: ('A' for Active; 'I' for Inactive)
REMARK    1  A    between atoms: _2  and  _10
REMARK    2  A    between atoms: _5  and  _18
REMARK    3  A    between atoms: _7  and  _8
REMARK    4  A    between atoms: _7  and  _18
REMARK    5  A    between atoms: _14  and  _34
REMARK    6  A    between atoms: _16  and  _22
REMARK    7  A    between atoms: _17  and  _21
REMARK    8  A    between atoms: _21  and  _22
REMARK    9  A    between atoms: _24  and  _25
REMARK   10  A    between atoms: _26  and  _27
REMARK   11  A    between atoms: _28  and  _30
REMARK   12  A    between atoms: _30  and  _31
REMARK   13  A    between atoms: _30  and  _32
REMARK   14  A    between atoms: _32  and  _33
REMARK   15  A    between atoms: _32  and  _34
REMARK   16  A    between atoms: _35  and  _37
REMARK                            x       y       z     vdW  Elec       q    Type
REMARK                         _______ _______ _______ _____ _____    ______ ____
ROOT
ATOM      1  C   UNL     1      20.674   4.665  24.145  0.00  0.00    +0.163 C 
ENDROOT
BRANCH   1   2
ATOM      2  O   UNL     1      21.493   3.662  23.522  0.00  0.00    -0.388 OA
ATOM      3  H   UNL     1      22.158   3.359  24.144  0.00  0.00    +0.210 HD
ENDBRANCH   1   2
BRANCH   1   4
ATOM      4  C   UNL     1      21.516   5.508  25.097  0.00  0.00    +0.141 C 
BRANCH   4   7
ATOM      5  C   UNL     1      20.569   7.780  25.317  0.00  0.00    +0.401 C 
ATOM      6  O   UNL     1      21.101   8.203  24.288  0.00  0.00    -0.226 OA
ATOM      7  N   UNL     1      20.714   6.535  25.773  0.00  0.00    -0.279 N 
ATOM      8  H   UNL     1      20.245   6.285  26.633  0.00  0.00    +0.152 HD
BRANCH   5   9
ATOM      9  O   UNL     1      19.747   8.661  26.086  0.00  0.00    -0.444 OA
BRANCH   9  10
ATOM     10  C   UNL     1      20.441   9.047  27.275  0.00  0.00    +0.292 C 
BRANCH  10  12
ATOM     11  N   UNL     1      19.439   7.449  28.876  0.00  0.00    -0.131 NA
ATOM     12  C   UNL     1      19.629   8.737  28.467  0.00  0.00    +0.121 A 
ATOM     13  C   UNL     1      18.968   9.584  29.327  0.00  0.00    +0.143 A 
ATOM     14  N   UNL     1      18.396   8.758  30.268  0.00  0.00    -0.220 N 
ATOM     15  N   UNL     1      18.687   7.469  29.968  0.00  0.00    -0.060 NA
BRANCH  14  16
ATOM     16  C   UNL     1      17.625   9.107  31.404  0.00  0.00    +0.070 A 
ATOM     17  C   UNL     1      17.527  10.434  31.828  0.00  0.00    +0.047 A 
ATOM     18  C   UNL     1      16.769  10.702  32.957  0.00  0.00    +0.113 A 
ATOM     19  N   UNL     1      16.119   9.758  33.668  0.00  0.00    -0.263 NA
ATOM     20  C   UNL     1      16.227   8.483  33.236  0.00  0.00    +0.113 A 
ATOM     21  C   UNL     1      16.958   8.109  32.121  0.00  0.00    +0.047 A 
ENDBRANCH  14  16
ENDBRANCH  10  12
ENDBRANCH   9  10
ENDBRANCH   5   9
ENDBRANCH   4   7
ENDBRANCH   1   4
BRANCH   1  22
ATOM     22  C   UNL     1      19.511   4.021  24.920  0.00  0.00    +0.175 C 
BRANCH  22  23
ATOM     23  C   UNL     1      19.175   2.617  24.397  0.00  0.00    +0.176 C 
ATOM     24  O   UNL     1      18.564   2.763  23.086  0.00  0.00    -0.332 OA
ATOM     25  C   UNL     1      18.269   1.511  22.381  0.00  0.00    +0.277 C 
ATOM     26  C   UNL     1      17.399   0.585  23.264  0.00  0.00    +0.110 C 
ATOM     27  C   UNL     1      17.993   0.425  24.679  0.00  0.00    +0.143 C 
ATOM     28  C   UNL     1      18.262   1.787  25.319  0.00  0.00    +0.133 C 
BRANCH  28  29
ATOM     29  N   UNL     1      18.908   1.622  26.630  0.00  0.00    -0.308 N 
ATOM     30  H   UNL     1      19.743   1.055  26.677  0.00  0.00    +0.149 HD
ATOM     31  C   UNL     1      18.463   2.173  27.763  0.00  0.00    +0.210 C 
ATOM     32  C   UNL     1      17.174   3.010  27.663  0.00  0.00    +0.109 C 
ATOM     33  O   UNL     1      19.033   2.029  28.845  0.00  0.00    -0.276 OA
ENDBRANCH  28  29
BRANCH  25  34
ATOM     34  C   UNL     1      19.573   0.781  21.995  0.00  0.00    +0.414 C 
ATOM     35  O   UNL     1      20.555   1.421  21.621  0.00  0.00    -0.240 OA
ATOM     36  O   UNL     1      19.642  -0.447  22.059  0.00  0.00    -0.240 OA
ENDBRANCH  25  34
BRANCH  27  37
ATOM     37  O   UNL     1      17.085  -0.310  25.502  0.00  0.00    -0.390 OA
ATOM     38  H   UNL     1      17.571  -0.742  26.208  0.00  0.00    +0.210 HD
ENDBRANCH  27  37
BRANCH  25  39
ATOM     39  O   UNL     1      17.520   1.837  21.182  0.00  0.00    -0.343 OA
ATOM     40  C   UNL     1      16.629   2.975  21.307  0.00  0.00    +0.198 C 
ENDBRANCH  25  39
ENDBRANCH  22  23
BRANCH  22  41
ATOM     41  O   UNL     1      18.345   4.867  24.858  0.00  0.00    -0.387 OA
ATOM     42  H   UNL     1      18.055   5.078  25.749  0.00  0.00    +0.210 HD
ENDBRANCH  22  41
ENDBRANCH   1  22
TORSDOF 14
