REMARK VINA RESULT:    -6.369      7.153     13.469
REMARK INTER + INTRA:         -13.159
REMARK INTER:                 -11.258
REMARK INTRA:                  -1.901
REMARK UNBOUND:                -2.135
REMARK  Name = lig_assembled_51.pdb
REMARK  16 active torsions:
REMARK  status: ('A' for Active; 'I' for Inactive)
REMARK    1  A    between atoms: _2  and  _9
REMARK    2  A    between atoms: _4  and  _22
REMARK    3  A    between atoms: _6  and  _7
REMARK    4  A    between atoms: _6  and  _22
REMARK    5  A    between atoms: _18  and  _38
REMARK    6  A    between atoms: _20  and  _26
REMARK    7  A    between atoms: _21  and  _25
REMARK    8  A    between atoms: _25  and  _26
REMARK    9  A    between atoms: _28  and  _29
REMARK   10  A    between atoms: _30  and  _31
REMARK   11  A    between atoms: _32  and  _34
REMARK   12  A    between atoms: _34  and  _35
REMARK   13  A    between atoms: _34  and  _36
REMARK   14  A    between atoms: _36  and  _37
REMARK   15  A    between atoms: _36  and  _38
REMARK   16  A    between atoms: _39  and  _41
REMARK                            x       y       z     vdW  Elec       q    Type
REMARK                         _______ _______ _______ _____ _____    ______ ____
ROOT
ATOM      1  C   UNL     1       9.824   2.971  34.947  0.00  0.00    +0.163 C 
ENDROOT
BRANCH   1   2
ATOM      2  O   UNL     1       9.587   2.143  33.797  0.00  0.00    -0.388 OA
ATOM      3  H   UNL     1       9.925   1.259  33.963  0.00  0.00    +0.210 HD
ENDBRANCH   1   2
BRANCH   1   4
ATOM      4  C   UNL     1      10.919   2.359  35.814  0.00  0.00    +0.141 C 
BRANCH   4   7
ATOM      5  C   UNL     1      13.020   3.610  35.459  0.00  0.00    +0.401 C 
ATOM      6  O   UNL     1      13.289   3.043  34.398  0.00  0.00    -0.226 OA
ATOM      7  N   UNL     1      11.936   3.349  36.191  0.00  0.00    -0.279 N 
ATOM      8  H   UNL     1      11.807   3.861  37.052  0.00  0.00    +0.152 HD
BRANCH   5   9
ATOM      9  O   UNL     1      13.913   4.610  35.957  0.00  0.00    -0.444 OA
BRANCH   9  10
ATOM     10  C   UNL     1      15.199   4.447  35.353  0.00  0.00    +0.292 C 
BRANCH  10  12
ATOM     11  N   UNL     1      15.313   5.899  33.352  0.00  0.00    -0.131 NA
ATOM     12  C   UNL     1      15.607   5.688  34.670  0.00  0.00    +0.120 A 
ATOM     13  C   UNL     1      16.295   6.777  35.156  0.00  0.00    +0.137 A 
ATOM     14  N   UNL     1      16.396   7.620  34.084  0.00  0.00    -0.245 N 
ATOM     15  N   UNL     1      15.800   7.083  33.003  0.00  0.00    -0.065 NA
BRANCH  14  16
ATOM     16  C   UNL     1      17.049   8.930  34.032  0.00  0.00    +0.066 C 
ATOM     17  C   UNL     1      17.536   9.339  35.449  0.00  0.00    +0.034 C 
ATOM     18  C   UNL     1      18.267  10.692  35.409  0.00  0.00    -0.008 C 
ATOM     19  C   UNL     1      19.475  10.586  34.463  0.00  0.00    +0.007 C 
ATOM     20  C   UNL     1      19.005  10.227  33.044  0.00  0.00    -0.008 C 
ATOM     21  C   UNL     1      18.041  11.310  32.537  0.00  0.00    +0.007 C 
ATOM     22  C   UNL     1      16.828  11.411  33.474  0.00  0.00    -0.008 C 
ATOM     23  C   UNL     1      17.307  11.772  34.889  0.00  0.00    +0.007 C 
ATOM     24  C   UNL     1      18.276   8.873  33.080  0.00  0.00    +0.034 C 
ATOM     25  C   UNL     1      16.102  10.055  33.515  0.00  0.00    +0.034 C 
ENDBRANCH  14  16
ENDBRANCH  10  12
ENDBRANCH   9  10
ENDBRANCH   5   9
ENDBRANCH   4   7
ENDBRANCH   1   4
BRANCH   1  26
ATOM     26  C   UNL     1       8.541   3.136  35.780  0.00  0.00    +0.175 C 
BRANCH  26  27
ATOM     27  C   UNL     1       7.749   4.389  35.380  0.00  0.00    +0.176 C 
ATOM     28  O   UNL     1       7.472   5.148  36.589  0.00  0.00    -0.332 OA
ATOM     29  C   UNL     1       6.810   6.441  36.388  0.00  0.00    +0.277 C 
ATOM     30  C   UNL     1       5.505   6.260  35.574  0.00  0.00    +0.110 C 
ATOM     31  C   UNL     1       5.744   5.431  34.294  0.00  0.00    +0.143 C 
ATOM     32  C   UNL     1       6.440   4.109  34.618  0.00  0.00    +0.133 C 
BRANCH  32  33
ATOM     33  N   UNL     1       6.740   3.368  33.382  0.00  0.00    -0.308 N 
ATOM     34  H   UNL     1       7.375   3.792  32.720  0.00  0.00    +0.149 HD
ATOM     35  C   UNL     1       6.228   2.172  33.079  0.00  0.00    +0.210 C 
ATOM     36  C   UNL     1       5.244   1.565  34.096  0.00  0.00    +0.109 C 
ATOM     37  O   UNL     1       6.508   1.568  32.043  0.00  0.00    -0.276 OA
ENDBRANCH  32  33
BRANCH  29  38
ATOM     38  C   UNL     1       7.743   7.426  35.655  0.00  0.00    +0.414 C 
ATOM     39  O   UNL     1       7.304   8.148  34.761  0.00  0.00    -0.240 OA
ATOM     40  O   UNL     1       8.935   7.498  35.956  0.00  0.00    -0.240 OA
ENDBRANCH  29  38
BRANCH  31  41
ATOM     41  O   UNL     1       4.495   5.161  33.655  0.00  0.00    -0.390 OA
ATOM     42  H   UNL     1       3.849   4.896  34.314  0.00  0.00    +0.210 HD
ENDBRANCH  31  41
BRANCH  29  43
ATOM     43  O   UNL     1       6.464   6.975  37.692  0.00  0.00    -0.343 OA
ATOM     44  C   UNL     1       7.060   6.279  38.817  0.00  0.00    +0.198 C 
ENDBRANCH  29  43
ENDBRANCH  26  27
BRANCH  26  45
ATOM     45  O   UNL     1       8.863   3.179  37.184  0.00  0.00    -0.387 OA
ATOM     46  H   UNL     1       8.786   4.081  37.503  0.00  0.00    +0.210 HD
ENDBRANCH  26  45
ENDBRANCH   1  26
TORSDOF 14
