REMARK VINA RESULT:    -5.657      7.220     13.047
REMARK INTER + INTRA:         -12.204
REMARK INTER:                  -9.792
REMARK INTRA:                  -2.413
REMARK UNBOUND:                -2.413
REMARK  Name = lig_assembled_8.pdb
REMARK  16 active torsions:
REMARK  status: ('A' for Active; 'I' for Inactive)
REMARK    1  A    between atoms: _2  and  _9
REMARK    2  A    between atoms: _4  and  _18
REMARK    3  A    between atoms: _6  and  _7
REMARK    4  A    between atoms: _6  and  _18
REMARK    5  A    between atoms: _14  and  _34
REMARK    6  A    between atoms: _16  and  _22
REMARK    7  A    between atoms: _17  and  _21
REMARK    8  A    between atoms: _21  and  _22
REMARK    9  A    between atoms: _24  and  _25
REMARK   10  A    between atoms: _26  and  _27
REMARK   11  A    between atoms: _28  and  _30
REMARK   12  A    between atoms: _30  and  _31
REMARK   13  A    between atoms: _30  and  _32
REMARK   14  A    between atoms: _32  and  _33
REMARK   15  A    between atoms: _32  and  _34
REMARK   16  A    between atoms: _35  and  _37
REMARK                            x       y       z     vdW  Elec       q    Type
REMARK                         _______ _______ _______ _____ _____    ______ ____
ROOT
ATOM      1  C   UNL     1      -1.971   3.483  22.734  0.00  0.00    +0.163 C 
ENDROOT
BRANCH   1   2
ATOM      2  O   UNL     1      -2.958   2.637  22.121  0.00  0.00    -0.388 OA
ATOM      3  H   UNL     1      -2.521   1.987  21.565  0.00  0.00    +0.210 HD
ENDBRANCH   1   2
BRANCH   1   4
ATOM      4  C   UNL     1      -2.497   4.021  24.061  0.00  0.00    +0.141 C 
BRANCH   4   7
ATOM      5  C   UNL     1      -0.809   4.692  25.736  0.00  0.00    +0.401 C 
ATOM      6  O   UNL     1      -0.798   5.876  25.389  0.00  0.00    -0.226 OA
ATOM      7  N   UNL     1      -1.568   3.755  25.166  0.00  0.00    -0.279 N 
ATOM      8  H   UNL     1      -1.500   2.810  25.515  0.00  0.00    +0.152 HD
BRANCH   5   9
ATOM      9  O   UNL     1       0.039   4.276  26.809  0.00  0.00    -0.444 OA
BRANCH   9  10
ATOM     10  C   UNL     1      -0.678   3.384  27.666  0.00  0.00    +0.292 C 
BRANCH  10  12
ATOM     11  N   UNL     1       0.422   4.272  29.688  0.00  0.00    -0.131 NA
ATOM     12  C   UNL     1      -0.718   3.917  29.040  0.00  0.00    +0.121 A 
ATOM     13  C   UNL     1      -1.792   4.151  29.867  0.00  0.00    +0.143 A 
ATOM     14  N   UNL     1      -1.256   4.682  31.028  0.00  0.00    -0.219 N 
ATOM     15  N   UNL     1       0.087   4.727  30.887  0.00  0.00    -0.060 NA
BRANCH  14  16
ATOM     16  C   UNL     1      -1.950   5.137  32.192  0.00  0.00    +0.081 A 
ATOM     17  C   UNL     1      -2.741   6.303  32.082  0.00  0.00    +0.029 A 
ATOM     18  C   UNL     1      -3.432   6.825  33.178  0.00  0.00    +0.002 A 
ATOM     19  C   UNL     1      -3.354   6.196  34.411  0.00  0.00    +0.001 A 
ATOM     20  C   UNL     1      -2.587   5.041  34.543  0.00  0.00    +0.017 A 
ATOM     21  C   UNL     1      -1.886   4.500  33.448  0.00  0.00    +0.043 A 
ATOM     22 BR   UNL     1      -0.915   2.917  33.874  0.00  0.00    -0.048 Br
ENDBRANCH  14  16
ENDBRANCH  10  12
ENDBRANCH   9  10
ENDBRANCH   5   9
ENDBRANCH   4   7
ENDBRANCH   1   4
BRANCH   1  23
ATOM     23  C   UNL     1      -1.606   4.659  21.812  0.00  0.00    +0.175 C 
BRANCH  23  24
ATOM     24  C   UNL     1      -0.639   4.239  20.695  0.00  0.00    +0.176 C 
ATOM     25  O   UNL     1      -1.402   3.513  19.693  0.00  0.00    -0.332 OA
ATOM     26  C   UNL     1      -0.659   3.121  18.491  0.00  0.00    +0.277 C 
ATOM     27  C   UNL     1       0.604   2.312  18.876  0.00  0.00    +0.110 C 
ATOM     28  C   UNL     1       1.431   3.030  19.962  0.00  0.00    +0.143 C 
ATOM     29  C   UNL     1       0.560   3.394  21.165  0.00  0.00    +0.133 C 
BRANCH  29  30
ATOM     30  N   UNL     1       1.339   4.154  22.155  0.00  0.00    -0.308 N 
ATOM     31  H   UNL     1       1.616   5.095  21.915  0.00  0.00    +0.149 HD
ATOM     32  C   UNL     1       1.704   3.680  23.350  0.00  0.00    +0.210 C 
ATOM     33  C   UNL     1       1.288   2.233  23.674  0.00  0.00    +0.109 C 
ATOM     34  O   UNL     1       2.344   4.345  24.165  0.00  0.00    -0.276 OA
ENDBRANCH  29  30
BRANCH  26  35
ATOM     35  C   UNL     1      -0.247   4.363  17.674  0.00  0.00    +0.414 C 
ATOM     36  O   UNL     1       0.671   4.292  16.859  0.00  0.00    -0.240 OA
ATOM     37  O   UNL     1      -0.832   5.436  17.831  0.00  0.00    -0.240 OA
ENDBRANCH  26  35
BRANCH  28  38
ATOM     38  O   UNL     1       2.498   2.183  20.393  0.00  0.00    -0.390 OA
ATOM     39  H   UNL     1       2.855   1.709  19.639  0.00  0.00    +0.210 HD
ENDBRANCH  28  38
BRANCH  26  40
ATOM     40  O   UNL     1      -1.520   2.273  17.689  0.00  0.00    -0.343 OA
ATOM     41  C   UNL     1      -2.939   2.540  17.820  0.00  0.00    +0.198 C 
ENDBRANCH  26  40
ENDBRANCH  23  24
BRANCH  23  42
ATOM     42  O   UNL     1      -1.036   5.736  22.583  0.00  0.00    -0.387 OA
ATOM     43  H   UNL     1      -1.243   6.575  22.163  0.00  0.00    +0.210 HD
ENDBRANCH  23  42
ENDBRANCH   1  23
TORSDOF 14
