REMARK VINA RESULT:    -5.690      2.535      4.790
REMARK INTER + INTRA:         -13.586
REMARK INTER:                 -11.153
REMARK INTRA:                  -2.433
REMARK UNBOUND:                -3.239
REMARK  Name = lig_assembled_88.pdb
REMARK  18 active torsions:
REMARK  status: ('A' for Active; 'I' for Inactive)
REMARK    1  A    between atoms: _2  and  _9
REMARK    2  A    between atoms: _4  and  _20
REMARK    3  A    between atoms: _5  and  _15
REMARK    4  A    between atoms: _6  and  _7
REMARK    5  A    between atoms: _6  and  _20
REMARK    6  A    between atoms: _9  and  _10
REMARK    7  A    between atoms: _16  and  _36
REMARK    8  A    between atoms: _18  and  _24
REMARK    9  A    between atoms: _19  and  _23
REMARK   10  A    between atoms: _23  and  _24
REMARK   11  A    between atoms: _26  and  _27
REMARK   12  A    between atoms: _28  and  _29
REMARK   13  A    between atoms: _30  and  _32
REMARK   14  A    between atoms: _32  and  _33
REMARK   15  A    between atoms: _32  and  _34
REMARK   16  A    between atoms: _34  and  _35
REMARK   17  A    between atoms: _34  and  _36
REMARK   18  A    between atoms: _37  and  _39
REMARK                            x       y       z     vdW  Elec       q    Type
REMARK                         _______ _______ _______ _____ _____    ______ ____
ROOT
ATOM      1  C   UNL     1       3.157   2.771  36.138  0.00  0.00    +0.163 C 
ENDROOT
BRANCH   1   2
ATOM      2  O   UNL     1       3.135   1.399  35.711  0.00  0.00    -0.388 OA
ATOM      3  H   UNL     1       3.738   0.885  36.254  0.00  0.00    +0.210 HD
ENDBRANCH   1   2
BRANCH   1   4
ATOM      4  C   UNL     1       4.588   3.335  36.102  0.00  0.00    +0.175 C 
BRANCH   4   5
ATOM      5  C   UNL     1       5.336   2.933  34.822  0.00  0.00    +0.176 C 
ATOM      6  O   UNL     1       6.066   1.706  35.097  0.00  0.00    -0.332 OA
ATOM      7  C   UNL     1       6.760   1.112  33.951  0.00  0.00    +0.277 C 
ATOM      8  C   UNL     1       7.705   2.147  33.294  0.00  0.00    +0.110 C 
ATOM      9  C   UNL     1       6.981   3.480  33.011  0.00  0.00    +0.143 C 
ATOM     10  C   UNL     1       6.291   4.007  34.270  0.00  0.00    +0.133 C 
BRANCH  10  11
ATOM     11  N   UNL     1       5.533   5.232  33.968  0.00  0.00    -0.308 N 
ATOM     12  H   UNL     1       4.734   5.152  33.354  0.00  0.00    +0.149 HD
ATOM     13  C   UNL     1       5.831   6.441  34.451  0.00  0.00    +0.210 C 
ATOM     14  C   UNL     1       7.070   6.533  35.362  0.00  0.00    +0.109 C 
ATOM     15  O   UNL     1       5.169   7.446  34.193  0.00  0.00    -0.276 OA
ENDBRANCH  10  11
BRANCH   7  16
ATOM     16  C   UNL     1       5.749   0.599  32.905  0.00  0.00    +0.414 C 
ATOM     17  O   UNL     1       4.574   0.410  33.218  0.00  0.00    -0.240 OA
ATOM     18  O   UNL     1       6.107   0.375  31.748  0.00  0.00    -0.240 OA
ENDBRANCH   7  16
BRANCH   7  19
ATOM     19  O   UNL     1       7.562   0.005  34.438  0.00  0.00    -0.343 OA
ATOM     20  C   UNL     1       8.906   0.358  34.852  0.00  0.00    +0.198 C 
ENDBRANCH   7  19
BRANCH   9  21
ATOM     21  O   UNL     1       7.921   4.451  32.549  0.00  0.00    -0.390 OA
ATOM     22  H   UNL     1       8.472   4.738  33.280  0.00  0.00    +0.210 HD
ENDBRANCH   9  21
ENDBRANCH   4   5
BRANCH   4  23
ATOM     23  O   UNL     1       5.323   2.900  37.264  0.00  0.00    -0.387 OA
ATOM     24  H   UNL     1       6.234   2.724  37.019  0.00  0.00    +0.210 HD
ENDBRANCH   4  23
ENDBRANCH   1   4
BRANCH   1  25
ATOM     25  C   UNL     1       2.256   3.612  35.240  0.00  0.00    +0.141 C 
BRANCH  25  28
ATOM     26  C   UNL     1       2.309   3.244  32.797  0.00  0.00    +0.401 C 
ATOM     27  O   UNL     1       3.046   4.206  32.573  0.00  0.00    -0.226 OA
ATOM     28  N   UNL     1       1.885   2.896  34.013  0.00  0.00    -0.279 N 
ATOM     29  H   UNL     1       1.274   2.096  34.094  0.00  0.00    +0.152 HD
BRANCH  26  30
ATOM     30  O   UNL     1       1.865   2.439  31.702  0.00  0.00    -0.444 OA
BRANCH  30  31
ATOM     31  C   UNL     1       0.648   2.975  31.176  0.00  0.00    +0.292 C 
BRANCH  31  33
ATOM     32  N   UNL     1       1.991   3.614  29.196  0.00  0.00    -0.131 NA
ATOM     33  C   UNL     1       0.785   3.249  29.733  0.00  0.00    +0.120 A 
ATOM     34  C   UNL     1      -0.163   3.221  28.734  0.00  0.00    +0.137 A 
ATOM     35  N   UNL     1       0.514   3.652  27.631  0.00  0.00    -0.247 N 
ATOM     36  N   UNL     1       1.819   3.837  27.901  0.00  0.00    -0.065 NA
BRANCH  35  37
ATOM     37  C   UNL     1      -0.023   3.974  26.317  0.00  0.00    +0.184 C 
BRANCH  37  38
ATOM     38  C   UNL     1       0.756   3.342  25.182  0.00  0.00    +0.017 A 
ATOM     39  C   UNL     1       1.345   2.067  25.287  0.00  0.00    +0.024 A 
ATOM     40  C   UNL     1       2.057   1.516  24.219  0.00  0.00    +0.019 A 
ATOM     41 BR   UNL     1       2.876  -0.178  24.415  0.00  0.00    -0.050 Br
ATOM     42  C   UNL     1       2.175   2.199  23.012  0.00  0.00    +0.034 A 
ATOM     43  C   UNL     1       1.558   3.440  22.877  0.00  0.00    +0.061 A 
ATOM     44 BR   UNL     1       1.690   4.350  21.219  0.00  0.00    -0.046 Br
ATOM     45  C   UNL     1       0.852   4.003  23.949  0.00  0.00    +0.136 A 
BRANCH  45  46
ATOM     46  O   UNL     1       0.229   5.217  23.821  0.00  0.00    -0.505 OA
ATOM     47  H   UNL     1      -0.457   5.124  23.134  0.00  0.00    +0.292 HD
ENDBRANCH  45  46
ENDBRANCH  37  38
ENDBRANCH  35  37
ENDBRANCH  31  33
ENDBRANCH  30  31
ENDBRANCH  26  30
ENDBRANCH  25  28
ENDBRANCH   1  25
TORSDOF 16
