REMARK VINA RESULT:    -5.914      8.826     18.392
REMARK INTER + INTRA:         -13.092
REMARK INTER:                 -11.101
REMARK INTRA:                  -1.990
REMARK UNBOUND:                -2.511
REMARK  Name = lig_assembled_6.pdb
REMARK  17 active torsions:
REMARK  status: ('A' for Active; 'I' for Inactive)
REMARK    1  A    between atoms: _2  and  _10
REMARK    2  A    between atoms: _3  and  _13
REMARK    3  A    between atoms: _5  and  _21
REMARK    4  A    between atoms: _7  and  _8
REMARK    5  A    between atoms: _7  and  _21
REMARK    6  A    between atoms: _17  and  _37
REMARK    7  A    between atoms: _19  and  _25
REMARK    8  A    between atoms: _20  and  _24
REMARK    9  A    between atoms: _24  and  _25
REMARK   10  A    between atoms: _27  and  _28
REMARK   11  A    between atoms: _29  and  _30
REMARK   12  A    between atoms: _31  and  _33
REMARK   13  A    between atoms: _33  and  _34
REMARK   14  A    between atoms: _33  and  _35
REMARK   15  A    between atoms: _35  and  _36
REMARK   16  A    between atoms: _35  and  _37
REMARK   17  A    between atoms: _38  and  _40
REMARK                            x       y       z     vdW  Elec       q    Type
REMARK                         _______ _______ _______ _____ _____    ______ ____
ROOT
ATOM      1  C   UNL     1       2.002  -1.475  11.293  0.00  0.00    +0.163 C 
ENDROOT
BRANCH   1   2
ATOM      2  O   UNL     1       1.344  -2.039  10.147  0.00  0.00    -0.388 OA
ATOM      3  H   UNL     1       1.191  -2.976  10.294  0.00  0.00    +0.210 HD
ENDBRANCH   1   2
BRANCH   1   4
ATOM      4  C   UNL     1       1.067  -0.505  12.007  0.00  0.00    +0.141 C 
BRANCH   4   7
ATOM      5  C   UNL     1       1.329  -0.922  14.429  0.00  0.00    +0.401 C 
ATOM      6  O   UNL     1       0.686  -1.975  14.412  0.00  0.00    -0.226 OA
ATOM      7  N   UNL     1       1.550  -0.167  13.352  0.00  0.00    -0.279 N 
ATOM      8  H   UNL     1       2.081   0.685  13.467  0.00  0.00    +0.152 HD
BRANCH   5   9
ATOM      9  O   UNL     1       1.875  -0.461  15.667  0.00  0.00    -0.444 OA
BRANCH   9  10
ATOM     10  C   UNL     1       0.836   0.119  16.461  0.00  0.00    +0.292 C 
BRANCH  10  12
ATOM     11  N   UNL     1       2.610   1.562  17.409  0.00  0.00    -0.131 NA
ATOM     12  C   UNL     1       1.414   0.922  17.555  0.00  0.00    +0.121 A 
ATOM     13  C   UNL     1       0.917   1.179  18.812  0.00  0.00    +0.143 A 
ATOM     14  N   UNL     1       1.841   2.016  19.395  0.00  0.00    -0.220 N 
ATOM     15  N   UNL     1       2.867   2.218  18.533  0.00  0.00    -0.060 NA
BRANCH  14  16
ATOM     16  C   UNL     1       1.790   2.648  20.667  0.00  0.00    +0.067 A 
ATOM     17  C   UNL     1       1.734   4.046  20.769  0.00  0.00    +0.034 A 
ATOM     18  C   UNL     1       1.747   4.659  22.027  0.00  0.00    +0.086 A 
ATOM     19  C   UNL     1       1.814   3.873  23.184  0.00  0.00    +0.273 A 
ATOM     20  C   UNL     1       1.843   2.476  23.093  0.00  0.00    +0.086 A 
ATOM     21  C   UNL     1       1.830   1.866  21.833  0.00  0.00    +0.034 A 
BRANCH  19  22
ATOM     22  N   UNL     1       1.871   4.524  24.499  0.00  0.00    +0.080 N 
ATOM     23  O   UNL     1       2.719   4.116  25.306  0.00  0.00    +0.041 OA
ATOM     24  O   UNL     1       1.064   5.435  24.727  0.00  0.00    -0.576 OA
ENDBRANCH  19  22
ENDBRANCH  14  16
ENDBRANCH  10  12
ENDBRANCH   9  10
ENDBRANCH   5   9
ENDBRANCH   4   7
ENDBRANCH   1   4
BRANCH   1  25
ATOM     25  C   UNL     1       3.289  -0.739  10.882  0.00  0.00    +0.175 C 
BRANCH  25  26
ATOM     26  C   UNL     1       4.524  -1.281  11.617  0.00  0.00    +0.176 C 
ATOM     27  O   UNL     1       4.682  -0.521  12.847  0.00  0.00    -0.332 OA
ATOM     28  C   UNL     1       5.756  -0.970  13.737  0.00  0.00    +0.277 C 
ATOM     29  C   UNL     1       7.104  -1.019  12.976  0.00  0.00    +0.110 C 
ATOM     30  C   UNL     1       6.979  -1.790  11.645  0.00  0.00    +0.143 C 
ATOM     31  C   UNL     1       5.829  -1.242  10.800  0.00  0.00    +0.133 C 
BRANCH  31  32
ATOM     32  N   UNL     1       5.665  -2.040   9.574  0.00  0.00    -0.308 N 
ATOM     33  H   UNL     1       5.391  -3.008   9.675  0.00  0.00    +0.149 HD
ATOM     34  C   UNL     1       5.853  -1.570   8.339  0.00  0.00    +0.210 C 
ATOM     35  C   UNL     1       6.294  -0.099   8.221  0.00  0.00    +0.109 C 
ATOM     36  O   UNL     1       5.694  -2.258   7.330  0.00  0.00    -0.276 OA
ENDBRANCH  31  32
BRANCH  28  37
ATOM     37  C   UNL     1       5.440  -2.365  14.316  0.00  0.00    +0.414 C 
ATOM     38  O   UNL     1       4.413  -2.547  14.969  0.00  0.00    -0.240 OA
ATOM     39  O   UNL     1       6.210  -3.308  14.129  0.00  0.00    -0.240 OA
ENDBRANCH  28  37
BRANCH  30  40
ATOM     40  O   UNL     1       8.198  -1.682  10.909  0.00  0.00    -0.390 OA
ATOM     41  H   UNL     1       8.821  -2.341  11.222  0.00  0.00    +0.210 HD
ENDBRANCH  30  40
BRANCH  28  42
ATOM     42  O   UNL     1       5.876  -0.009  14.817  0.00  0.00    -0.343 OA
ATOM     43  C   UNL     1       4.794   0.953  14.904  0.00  0.00    +0.198 C 
ENDBRANCH  28  42
ENDBRANCH  25  26
BRANCH  25  44
ATOM     44  O   UNL     1       3.150   0.676  11.120  0.00  0.00    -0.387 OA
ATOM     45  H   UNL     1       2.683   1.080  10.385  0.00  0.00    +0.210 HD
ENDBRANCH  25  44
ENDBRANCH   1  25
TORSDOF 15
