REMARK VINA RESULT:    -5.840     13.601     15.711
REMARK INTER + INTRA:         -13.975
REMARK INTER:                 -11.431
REMARK INTRA:                  -2.543
REMARK UNBOUND:                -3.014
REMARK  Name = lig_assembled_75.pdb
REMARK  19 active torsions:
REMARK  status: ('A' for Active; 'I' for Inactive)
REMARK    1  A    between atoms: _2  and  _9
REMARK    2  A    between atoms: _4  and  _23
REMARK    3  A    between atoms: _6  and  _7
REMARK    4  A    between atoms: _6  and  _23
REMARK    5  A    between atoms: _11  and  _12
REMARK    6  A    between atoms: _13  and  _14
REMARK    7  A    between atoms: _14  and  _17
REMARK    8  A    between atoms: _19  and  _39
REMARK    9  A    between atoms: _21  and  _27
REMARK   10  A    between atoms: _22  and  _26
REMARK   11  A    between atoms: _26  and  _27
REMARK   12  A    between atoms: _29  and  _30
REMARK   13  A    between atoms: _31  and  _32
REMARK   14  A    between atoms: _33  and  _35
REMARK   15  A    between atoms: _35  and  _36
REMARK   16  A    between atoms: _35  and  _37
REMARK   17  A    between atoms: _37  and  _38
REMARK   18  A    between atoms: _37  and  _39
REMARK   19  A    between atoms: _40  and  _42
REMARK                            x       y       z     vdW  Elec       q    Type
REMARK                         _______ _______ _______ _____ _____    ______ ____
ROOT
ATOM      1  C   UNL     1      18.357  10.474  28.477  0.00  0.00    +0.141 C 
ENDROOT
BRANCH   1   4
ATOM      2  C   UNL     1      20.105   9.801  26.866  0.00  0.00    +0.401 C 
ATOM      3  O   UNL     1      20.073  10.865  26.243  0.00  0.00    -0.226 OA
ATOM      4  N   UNL     1      19.334   9.530  27.919  0.00  0.00    -0.279 N 
ATOM      5  H   UNL     1      19.426   8.625  28.359  0.00  0.00    +0.152 HD
BRANCH   2   6
ATOM      6  O   UNL     1      21.015   8.780  26.449  0.00  0.00    -0.444 OA
BRANCH   6   7
ATOM      7  C   UNL     1      20.598   7.521  26.985  0.00  0.00    +0.292 C 
BRANCH   7   9
ATOM      8  N   UNL     1      21.261   6.127  25.053  0.00  0.00    -0.131 NA
ATOM      9  C   UNL     1      20.287   6.577  25.896  0.00  0.00    +0.121 A 
ATOM     10  C   UNL     1      19.084   6.014  25.536  0.00  0.00    +0.143 A 
ATOM     11  N   UNL     1      19.374   5.217  24.453  0.00  0.00    -0.220 N 
ATOM     12  N   UNL     1      20.700   5.303  24.178  0.00  0.00    -0.060 NA
BRANCH  11  13
ATOM     13  C   UNL     1      18.496   4.427  23.668  0.00  0.00    +0.068 A 
ATOM     14  C   UNL     1      18.482   3.032  23.845  0.00  0.00    +0.035 A 
ATOM     15  C   UNL     1      17.676   2.214  23.040  0.00  0.00    -0.023 A 
ATOM     16  C   UNL     1      16.834   2.818  22.098  0.00  0.00    +0.008 A 
ATOM     17  C   UNL     1      16.826   4.205  21.934  0.00  0.00    +0.003 A 
ATOM     18  C   UNL     1      17.661   5.009  22.709  0.00  0.00    +0.028 A 
BRANCH  15  19
ATOM     19  C   UNL     1      17.666   0.748  23.162  0.00  0.00    +0.015 C 
ATOM     20  C   UNL     1      18.329  -0.074  22.333  0.00  0.00    +0.092 C 
BRANCH  20  21
ATOM     21  C   UNL     1      18.215  -1.534  22.506  0.00  0.00    +0.330 C 
ATOM     22  O   UNL     1      18.962  -2.354  22.002  0.00  0.00    -0.246 OA
BRANCH  21  23
ATOM     23  O   UNL     1      17.183  -1.868  23.307  0.00  0.00    -0.478 OA
ATOM     24  H   UNL     1      16.533  -2.483  22.923  0.00  0.00    +0.295 HD
ENDBRANCH  21  23
ENDBRANCH  20  21
ENDBRANCH  15  19
ENDBRANCH  11  13
ENDBRANCH   7   9
ENDBRANCH   6   7
ENDBRANCH   2   6
ENDBRANCH   1   4
BRANCH   1  25
ATOM     25  C   UNL     1      18.401  10.504  30.001  0.00  0.00    +0.163 C 
BRANCH  25  26
ATOM     26  O   UNL     1      17.086  10.748  30.527  0.00  0.00    -0.388 OA
ATOM     27  H   UNL     1      17.092  11.558  31.043  0.00  0.00    +0.210 HD
ENDBRANCH  25  26
BRANCH  25  28
ATOM     28  C   UNL     1      18.965   9.172  30.525  0.00  0.00    +0.175 C 
BRANCH  28  29
ATOM     29  C   UNL     1      18.018   8.499  31.530  0.00  0.00    +0.176 C 
ATOM     30  O   UNL     1      18.026   9.288  32.751  0.00  0.00    -0.332 OA
ATOM     31  C   UNL     1      17.093   8.853  33.794  0.00  0.00    +0.277 C 
ATOM     32  C   UNL     1      17.320   7.360  34.134  0.00  0.00    +0.110 C 
ATOM     33  C   UNL     1      17.351   6.484  32.864  0.00  0.00    +0.143 C 
ATOM     34  C   UNL     1      18.353   7.029  31.846  0.00  0.00    +0.133 C 
BRANCH  34  35
ATOM     35  N   UNL     1      18.310   6.238  30.606  0.00  0.00    -0.308 N 
ATOM     36  H   UNL     1      17.433   6.189  30.108  0.00  0.00    +0.149 HD
ATOM     37  C   UNL     1      19.355   5.579  30.097  0.00  0.00    +0.210 C 
ATOM     38  C   UNL     1      20.671   5.651  30.894  0.00  0.00    +0.109 C 
ATOM     39  O   UNL     1      19.293   4.936  29.049  0.00  0.00    -0.276 OA
ENDBRANCH  34  35
BRANCH  31  40
ATOM     40  C   UNL     1      15.632   9.062  33.343  0.00  0.00    +0.414 C 
ATOM     41  O   UNL     1      15.307  10.091  32.751  0.00  0.00    -0.240 OA
ATOM     42  O   UNL     1      14.780   8.203  33.570  0.00  0.00    -0.240 OA
ENDBRANCH  31  40
BRANCH  31  43
ATOM     43  O   UNL     1      17.353   9.638  34.985  0.00  0.00    -0.343 OA
ATOM     44  C   UNL     1      18.108  10.856  34.763  0.00  0.00    +0.198 C 
ENDBRANCH  31  43
BRANCH  33  45
ATOM     45  O   UNL     1      17.712   5.146  33.210  0.00  0.00    -0.390 OA
ATOM     46  H   UNL     1      17.142   4.530  32.745  0.00  0.00    +0.210 HD
ENDBRANCH  33  45
ENDBRANCH  28  29
BRANCH  28  47
ATOM     47  O   UNL     1      20.258   9.382  31.126  0.00  0.00    -0.387 OA
ATOM     48  H   UNL     1      20.944   9.091  30.521  0.00  0.00    +0.210 HD
ENDBRANCH  28  47
ENDBRANCH  25  28
ENDBRANCH   1  25
TORSDOF 17
