REMARK VINA RESULT:    -6.569     15.091     17.891
REMARK INTER + INTRA:         -13.519
REMARK INTER:                 -10.483
REMARK INTRA:                  -3.036
REMARK UNBOUND:                -2.150
REMARK  Name = lig_assembled_80.pdb
REMARK  16 active torsions:
REMARK  status: ('A' for Active; 'I' for Inactive)
REMARK    1  A    between atoms: _2  and  _10
REMARK    2  A    between atoms: _5  and  _24
REMARK    3  A    between atoms: _7  and  _8
REMARK    4  A    between atoms: _7  and  _24
REMARK    5  A    between atoms: _20  and  _40
REMARK    6  A    between atoms: _22  and  _28
REMARK    7  A    between atoms: _23  and  _27
REMARK    8  A    between atoms: _27  and  _28
REMARK    9  A    between atoms: _30  and  _31
REMARK   10  A    between atoms: _32  and  _33
REMARK   11  A    between atoms: _34  and  _36
REMARK   12  A    between atoms: _36  and  _37
REMARK   13  A    between atoms: _36  and  _38
REMARK   14  A    between atoms: _38  and  _39
REMARK   15  A    between atoms: _38  and  _40
REMARK   16  A    between atoms: _41  and  _43
REMARK                            x       y       z     vdW  Elec       q    Type
REMARK                         _______ _______ _______ _____ _____    ______ ____
ROOT
ATOM      1  C   UNL     1      18.067   0.342  21.800  0.00  0.00    +0.141 C 
ENDROOT
BRANCH   1   4
ATOM      2  C   UNL     1      16.800   2.463  21.738  0.00  0.00    +0.401 C 
ATOM      3  O   UNL     1      16.453   2.330  20.562  0.00  0.00    -0.226 OA
ATOM      4  N   UNL     1      17.559   1.585  22.395  0.00  0.00    -0.279 N 
ATOM      5  H   UNL     1      17.799   1.786  23.355  0.00  0.00    +0.152 HD
BRANCH   2   6
ATOM      6  O   UNL     1      16.377   3.622  22.461  0.00  0.00    -0.444 OA
BRANCH   6   7
ATOM      7  C   UNL     1      17.159   4.749  22.056  0.00  0.00    +0.292 C 
BRANCH   7   9
ATOM      8  N   UNL     1      18.327   6.576  23.226  0.00  0.00    -0.131 NA
ATOM      9  C   UNL     1      17.951   5.261  23.192  0.00  0.00    +0.120 A 
ATOM     10  C   UNL     1      18.417   4.621  24.319  0.00  0.00    +0.138 A 
ATOM     11  N   UNL     1      19.122   5.592  24.977  0.00  0.00    -0.239 N 
ATOM     12  N   UNL     1      19.033   6.776  24.331  0.00  0.00    -0.065 NA
BRANCH  11  13
ATOM     13  C   UNL     1      19.765   5.556  26.296  0.00  0.00    +0.195 C 
ATOM     14  C   UNL     1      18.683   5.387  27.354  0.00  0.00    +0.041 C 
ATOM     15  C   UNL     1      19.236   5.631  28.743  0.00  0.00    +0.039 C 
ATOM     16  C   UNL     1      19.853   4.375  29.271  0.00  0.00    -0.026 A 
ATOM     17  C   UNL     1      20.977   3.786  28.688  0.00  0.00    +0.037 A 
ATOM     18  C   UNL     1      21.572   2.676  29.313  0.00  0.00    +0.023 A 
ATOM     19  C   UNL     1      20.993   2.085  30.434  0.00  0.00    +0.002 A 
ATOM     20  C   UNL     1      19.834   2.625  30.972  0.00  0.00    +0.000 A 
ATOM     21  N   UNL     1      21.546   4.150  27.455  0.00  0.00    -0.284 N 
ATOM     22  H   UNL     1      22.379   3.627  27.202  0.00  0.00    +0.155 HD
ATOM     23  C   UNL     1      19.283   3.775  30.411  0.00  0.00    +0.005 A 
ATOM     24  C   UNL     1      20.946   4.593  26.311  0.00  0.00    +0.242 C 
ATOM     25  O   UNL     1      21.507   4.241  25.267  0.00  0.00    -0.273 OA
ENDBRANCH  11  13
ENDBRANCH   7   9
ENDBRANCH   6   7
ENDBRANCH   2   6
ENDBRANCH   1   4
BRANCH   1  26
ATOM     26  C   UNL     1      19.216  -0.248  22.611  0.00  0.00    +0.163 C 
BRANCH  26  27
ATOM     27  O   UNL     1      19.798   0.765  23.448  0.00  0.00    -0.388 OA
ATOM     28  H   UNL     1      20.179   0.355  24.229  0.00  0.00    +0.210 HD
ENDBRANCH  26  27
BRANCH  26  29
ATOM     29  C   UNL     1      18.699  -1.428  23.452  0.00  0.00    +0.175 C 
BRANCH  29  30
ATOM     30  C   UNL     1      17.968  -0.958  24.718  0.00  0.00    +0.176 C 
ATOM     31  O   UNL     1      18.971  -0.616  25.713  0.00  0.00    -0.332 OA
ATOM     32  C   UNL     1      18.457  -0.044  26.961  0.00  0.00    +0.277 C 
ATOM     33  C   UNL     1      17.396  -0.980  27.589  0.00  0.00    +0.110 C 
ATOM     34  C   UNL     1      16.324  -1.397  26.559  0.00  0.00    +0.143 C 
ATOM     35  C   UNL     1      16.969  -1.976  25.300  0.00  0.00    +0.133 C 
BRANCH  35  36
ATOM     36  N   UNL     1      15.943  -2.289  24.293  0.00  0.00    -0.308 N 
ATOM     37  H   UNL     1      15.352  -1.535  23.972  0.00  0.00    +0.149 HD
ATOM     38  C   UNL     1      15.743  -3.504  23.774  0.00  0.00    +0.210 C 
ATOM     39  C   UNL     1      16.644  -4.636  24.303  0.00  0.00    +0.109 C 
ATOM     40  O   UNL     1      14.885  -3.734  22.921  0.00  0.00    -0.276 OA
ENDBRANCH  35  36
BRANCH  32  41
ATOM     41  C   UNL     1      17.835   1.346  26.710  0.00  0.00    +0.414 C 
ATOM     42  O   UNL     1      17.673   1.754  25.560  0.00  0.00    -0.240 OA
ATOM     43  O   UNL     1      17.496   2.058  27.656  0.00  0.00    -0.240 OA
ENDBRANCH  32  41
BRANCH  34  44
ATOM     44  O   UNL     1      15.457  -2.374  27.136  0.00  0.00    -0.390 OA
ATOM     45  H   UNL     1      15.790  -2.628  28.000  0.00  0.00    +0.210 HD
ENDBRANCH  34  44
BRANCH  32  46
ATOM     46  O   UNL     1      19.566   0.078  27.889  0.00  0.00    -0.343 OA
ATOM     47  C   UNL     1      19.641  -0.965  28.893  0.00  0.00    +0.198 C 
ENDBRANCH  32  46
ENDBRANCH  29  30
BRANCH  29  48
ATOM     48  O   UNL     1      19.790  -2.302  23.804  0.00  0.00    -0.387 OA
ATOM     49  H   UNL     1      20.322  -2.481  23.024  0.00  0.00    +0.210 HD
ENDBRANCH  29  48
ENDBRANCH  26  29
ENDBRANCH   1  26
TORSDOF 14
