REMARK VINA RESULT:    -6.081      2.504      4.356
REMARK INTER + INTRA:         -13.191
REMARK INTER:                 -11.281
REMARK INTRA:                  -1.910
REMARK UNBOUND:                -1.955
REMARK  Name = lig_assembled_78.pdb
REMARK  18 active torsions:
REMARK  status: ('A' for Active; 'I' for Inactive)
REMARK    1  A    between atoms: _2  and  _9
REMARK    2  A    between atoms: _4  and  _21
REMARK    3  A    between atoms: _6  and  _7
REMARK    4  A    between atoms: _6  and  _21
REMARK    5  A    between atoms: _9  and  _41
REMARK    6  A    between atoms: _10  and  _41
REMARK    7  A    between atoms: _17  and  _37
REMARK    8  A    between atoms: _19  and  _25
REMARK    9  A    between atoms: _20  and  _24
REMARK   10  A    between atoms: _24  and  _25
REMARK   11  A    between atoms: _27  and  _28
REMARK   12  A    between atoms: _29  and  _30
REMARK   13  A    between atoms: _31  and  _33
REMARK   14  A    between atoms: _33  and  _34
REMARK   15  A    between atoms: _33  and  _35
REMARK   16  A    between atoms: _35  and  _36
REMARK   17  A    between atoms: _35  and  _37
REMARK   18  A    between atoms: _38  and  _40
REMARK                            x       y       z     vdW  Elec       q    Type
REMARK                         _______ _______ _______ _____ _____    ______ ____
ROOT
ATOM      1  C   UNL     1       3.157   3.153  32.812  0.00  0.00    +0.163 C 
ENDROOT
BRANCH   1   2
ATOM      2  O   UNL     1       3.549   4.431  32.285  0.00  0.00    -0.388 OA
ATOM      3  H   UNL     1       2.767   4.930  32.038  0.00  0.00    +0.210 HD
ENDBRANCH   1   2
BRANCH   1   4
ATOM      4  C   UNL     1       3.615   2.996  34.272  0.00  0.00    +0.175 C 
BRANCH   4   5
ATOM      5  C   UNL     1       5.140   3.110  34.414  0.00  0.00    +0.176 C 
ATOM      6  O   UNL     1       5.508   4.497  34.184  0.00  0.00    -0.332 OA
ATOM      7  C   UNL     1       6.925   4.819  34.383  0.00  0.00    +0.277 C 
ATOM      8  C   UNL     1       7.817   3.891  33.522  0.00  0.00    +0.110 C 
ATOM      9  C   UNL     1       7.441   2.406  33.709  0.00  0.00    +0.143 C 
ATOM     10  C   UNL     1       5.945   2.185  33.482  0.00  0.00    +0.133 C 
BRANCH  10  11
ATOM     11  N   UNL     1       5.584   0.784  33.748  0.00  0.00    -0.308 N 
ATOM     12  H   UNL     1       5.669   0.447  34.697  0.00  0.00    +0.149 HD
ATOM     13  C   UNL     1       5.153  -0.072  32.818  0.00  0.00    +0.210 C 
ATOM     14  C   UNL     1       5.060   0.464  31.377  0.00  0.00    +0.109 C 
ATOM     15  O   UNL     1       4.844  -1.237  33.072  0.00  0.00    -0.276 OA
ENDBRANCH  10  11
BRANCH   7  16
ATOM     16  C   UNL     1       7.314   4.675  35.869  0.00  0.00    +0.414 C 
ATOM     17  O   UNL     1       6.471   4.840  36.750  0.00  0.00    -0.240 OA
ATOM     18  O   UNL     1       8.471   4.395  36.187  0.00  0.00    -0.240 OA
ENDBRANCH   7  16
BRANCH   7  19
ATOM     19  O   UNL     1       7.139   6.188  33.952  0.00  0.00    -0.343 OA
ATOM     20  C   UNL     1       6.081   7.114  34.306  0.00  0.00    +0.198 C 
ENDBRANCH   7  19
BRANCH   9  21
ATOM     21  O   UNL     1       8.181   1.602  32.789  0.00  0.00    -0.390 OA
ATOM     22  H   UNL     1       7.747   1.613  31.933  0.00  0.00    +0.210 HD
ENDBRANCH   9  21
ENDBRANCH   4   5
BRANCH   4  23
ATOM     23  O   UNL     1       3.160   1.735  34.802  0.00  0.00    -0.387 OA
ATOM     24  H   UNL     1       3.036   1.111  34.083  0.00  0.00    +0.210 HD
ENDBRANCH   4  23
ENDBRANCH   1   4
BRANCH   1  25
ATOM     25  C   UNL     1       1.641   3.000  32.735  0.00  0.00    +0.141 C 
BRANCH  25  28
ATOM     26  C   UNL     1       0.902   3.501  30.430  0.00  0.00    +0.401 C 
ATOM     27  O   UNL     1       0.959   4.724  30.578  0.00  0.00    -0.226 OA
ATOM     28  N   UNL     1       1.197   2.621  31.388  0.00  0.00    -0.279 N 
ATOM     29  H   UNL     1       1.111   1.637  31.174  0.00  0.00    +0.152 HD
BRANCH  26  30
ATOM     30  O   UNL     1       0.493   2.972  29.167  0.00  0.00    -0.444 OA
BRANCH  30  31
ATOM     31  C   UNL     1      -0.543   3.792  28.618  0.00  0.00    +0.292 C 
BRANCH  31  33
ATOM     32  N   UNL     1      -0.816   5.199  26.596  0.00  0.00    -0.131 NA
ATOM     33  C   UNL     1      -0.251   4.112  27.208  0.00  0.00    +0.120 A 
ATOM     34  C   UNL     1       0.562   3.461  26.307  0.00  0.00    +0.139 A 
ATOM     35  N   UNL     1       0.496   4.235  25.187  0.00  0.00    -0.230 N 
ATOM     36  N   UNL     1      -0.369   5.252  25.349  0.00  0.00    -0.064 NA
BRANCH  35  37
ATOM     37  C   UNL     1       1.145   4.038  23.915  0.00  0.00    +0.316 C 
BRANCH  37  38
ATOM     38  S   UNL     1       0.526   2.642  23.011  0.00  0.00    +0.017 S 
ATOM     39  O   UNL     1       1.437   1.523  23.145  0.00  0.00    -0.168 OA
ATOM     40  O   UNL     1      -0.885   2.498  23.324  0.00  0.00    -0.168 OA
BRANCH  38  41
ATOM     41  C   UNL     1       0.628   3.150  21.307  0.00  0.00    +0.090 A 
ATOM     42  C   UNL     1      -0.549   3.435  20.607  0.00  0.00    +0.027 A 
ATOM     43  C   UNL     1      -0.472   3.857  19.281  0.00  0.00    +0.002 A 
ATOM     44  C   UNL     1       0.772   4.011  18.667  0.00  0.00    +0.000 A 
ATOM     45  C   UNL     1       1.944   3.744  19.376  0.00  0.00    +0.002 A 
ATOM     46  C   UNL     1       1.878   3.312  20.701  0.00  0.00    +0.027 A 
ENDBRANCH  38  41
ENDBRANCH  37  38
ENDBRANCH  35  37
ENDBRANCH  31  33
ENDBRANCH  30  31
ENDBRANCH  26  30
ENDBRANCH  25  28
ENDBRANCH   1  25
TORSDOF 16
