REMARK VINA RESULT:    -7.106     14.097     15.518
REMARK INTER + INTRA:         -14.424
REMARK INTER:                 -12.350
REMARK INTRA:                  -2.074
REMARK UNBOUND:                -1.294
REMARK  Name = lig_assembled_24.pdb
REMARK  19 active torsions:
REMARK  status: ('A' for Active; 'I' for Inactive)
REMARK    1  A    between atoms: _2  and  _9
REMARK    2  A    between atoms: _4  and  _21
REMARK    3  A    between atoms: _6  and  _7
REMARK    4  A    between atoms: _6  and  _21
REMARK    5  A    between atoms: _9  and  _10
REMARK    6  A    between atoms: _13  and  _16
REMARK    7  A    between atoms: _14  and  _16
REMARK    8  A    between atoms: _17  and  _37
REMARK    9  A    between atoms: _19  and  _25
REMARK   10  A    between atoms: _20  and  _24
REMARK   11  A    between atoms: _24  and  _25
REMARK   12  A    between atoms: _27  and  _28
REMARK   13  A    between atoms: _29  and  _30
REMARK   14  A    between atoms: _31  and  _33
REMARK   15  A    between atoms: _33  and  _34
REMARK   16  A    between atoms: _33  and  _35
REMARK   17  A    between atoms: _35  and  _36
REMARK   18  A    between atoms: _35  and  _37
REMARK   19  A    between atoms: _38  and  _40
REMARK                            x       y       z     vdW  Elec       q    Type
REMARK                         _______ _______ _______ _____ _____    ______ ____
ROOT
ATOM      1  C   UNL     1      18.688  10.317  29.128  0.00  0.00    +0.163 C 
ENDROOT
BRANCH   1   2
ATOM      2  O   UNL     1      17.381  10.911  29.199  0.00  0.00    -0.388 OA
ATOM      3  H   UNL     1      16.714  10.235  29.057  0.00  0.00    +0.210 HD
ENDBRANCH   1   2
BRANCH   1   4
ATOM      4  C   UNL     1      18.743   9.010  29.937  0.00  0.00    +0.175 C 
BRANCH   4   5
ATOM      5  C   UNL     1      17.943   9.104  31.244  0.00  0.00    +0.176 C 
ATOM      6  O   UNL     1      18.198  10.410  31.831  0.00  0.00    -0.332 OA
ATOM      7  C   UNL     1      17.430  10.723  33.040  0.00  0.00    +0.277 C 
ATOM      8  C   UNL     1      17.630   9.620  34.108  0.00  0.00    +0.110 C 
ATOM      9  C   UNL     1      17.401   8.211  33.523  0.00  0.00    +0.143 C 
ATOM     10  C   UNL     1      18.246   7.994  32.267  0.00  0.00    +0.133 C 
BRANCH  10  11
ATOM     11  N   UNL     1      17.954   6.682  31.670  0.00  0.00    -0.308 N 
ATOM     12  H   UNL     1      17.043   6.545  31.254  0.00  0.00    +0.149 HD
ATOM     13  C   UNL     1      18.814   5.660  31.640  0.00  0.00    +0.210 C 
ATOM     14  C   UNL     1      20.184   5.892  32.305  0.00  0.00    +0.109 C 
ATOM     15  O   UNL     1      18.547   4.576  31.120  0.00  0.00    -0.276 OA
ENDBRANCH  10  11
BRANCH   7  16
ATOM     16  C   UNL     1      15.928  10.858  32.714  0.00  0.00    +0.414 C 
ATOM     17  O   UNL     1      15.564  11.452  31.700  0.00  0.00    -0.240 OA
ATOM     18  O   UNL     1      15.080  10.373  33.465  0.00  0.00    -0.240 OA
ENDBRANCH   7  16
BRANCH   7  19
ATOM     19  O   UNL     1      17.928  11.976  33.576  0.00  0.00    -0.343 OA
ATOM     20  C   UNL     1      17.706  12.164  34.997  0.00  0.00    +0.198 C 
ENDBRANCH   7  19
BRANCH   9  21
ATOM     21  O   UNL     1      17.742   7.224  34.496  0.00  0.00    -0.390 OA
ATOM     22  H   UNL     1      18.406   7.578  35.093  0.00  0.00    +0.210 HD
ENDBRANCH   9  21
ENDBRANCH   4   5
BRANCH   4  23
ATOM     23  O   UNL     1      20.113   8.657  30.217  0.00  0.00    -0.387 OA
ATOM     24  H   UNL     1      20.161   8.209  31.065  0.00  0.00    +0.210 HD
ENDBRANCH   4  23
ENDBRANCH   1   4
BRANCH   1  25
ATOM     25  C   UNL     1      19.053  10.033  27.675  0.00  0.00    +0.141 C 
BRANCH  25  28
ATOM     26  C   UNL     1      19.614   8.008  26.375  0.00  0.00    +0.401 C 
ATOM     27  O   UNL     1      20.421   8.586  25.644  0.00  0.00    -0.226 OA
ATOM     28  N   UNL     1      18.925   8.608  27.346  0.00  0.00    -0.279 N 
ATOM     29  H   UNL     1      18.278   8.051  27.887  0.00  0.00    +0.152 HD
BRANCH  26  30
ATOM     30  O   UNL     1      19.383   6.609  26.185  0.00  0.00    -0.444 OA
BRANCH  30  31
ATOM     31  C   UNL     1      19.894   6.209  24.911  0.00  0.00    +0.292 C 
BRANCH  31  33
ATOM     32  N   UNL     1      17.923   6.578  23.461  0.00  0.00    -0.131 NA
ATOM     33  C   UNL     1      18.803   5.713  24.053  0.00  0.00    +0.120 A 
ATOM     34  C   UNL     1      18.483   4.425  23.686  0.00  0.00    +0.137 A 
ATOM     35  N   UNL     1      17.444   4.574  22.815  0.00  0.00    -0.247 N 
ATOM     36  N   UNL     1      17.089   5.871  22.713  0.00  0.00    -0.065 NA
BRANCH  35  37
ATOM     37  C   UNL     1      16.751   3.599  21.988  0.00  0.00    +0.180 C 
BRANCH  37  38
ATOM     38  C   UNL     1      17.264   2.184  22.113  0.00  0.00    -0.026 A 
ATOM     39  C   UNL     1      17.899   1.560  21.032  0.00  0.00    +0.009 A 
ATOM     40  C   UNL     1      18.372   0.251  21.156  0.00  0.00    +0.046 A 
ATOM     41  C   UNL     1      18.236  -0.445  22.359  0.00  0.00    +0.120 A 
ATOM     42  C   UNL     1      17.584   0.162  23.430  0.00  0.00    +0.046 A 
ATOM     43  C   UNL     1      17.101   1.470  23.310  0.00  0.00    +0.009 A 
BRANCH  41  44
ATOM     44  O   UNL     1      18.719  -1.724  22.355  0.00  0.00    -0.495 OA
ATOM     45  C   UNL     1      17.971  -2.663  23.121  0.00  0.00    +0.277 C 
ENDBRANCH  41  44
ENDBRANCH  37  38
ENDBRANCH  35  37
ENDBRANCH  31  33
ENDBRANCH  30  31
ENDBRANCH  26  30
ENDBRANCH  25  28
ENDBRANCH   1  25
TORSDOF 16
