REMARK VINA RESULT:    -6.954      2.090      3.951
REMARK INTER + INTRA:         -14.186
REMARK INTER:                 -12.320
REMARK INTRA:                  -1.866
REMARK UNBOUND:                -2.150
REMARK  Name = lig_assembled_80.pdb
REMARK  16 active torsions:
REMARK  status: ('A' for Active; 'I' for Inactive)
REMARK    1  A    between atoms: _2  and  _10
REMARK    2  A    between atoms: _5  and  _24
REMARK    3  A    between atoms: _7  and  _8
REMARK    4  A    between atoms: _7  and  _24
REMARK    5  A    between atoms: _20  and  _40
REMARK    6  A    between atoms: _22  and  _28
REMARK    7  A    between atoms: _23  and  _27
REMARK    8  A    between atoms: _27  and  _28
REMARK    9  A    between atoms: _30  and  _31
REMARK   10  A    between atoms: _32  and  _33
REMARK   11  A    between atoms: _34  and  _36
REMARK   12  A    between atoms: _36  and  _37
REMARK   13  A    between atoms: _36  and  _38
REMARK   14  A    between atoms: _38  and  _39
REMARK   15  A    between atoms: _38  and  _40
REMARK   16  A    between atoms: _41  and  _43
REMARK                            x       y       z     vdW  Elec       q    Type
REMARK                         _______ _______ _______ _____ _____    ______ ____
ROOT
ATOM      1  C   UNL     1       2.100   3.639  31.916  0.00  0.00    +0.141 C 
ENDROOT
BRANCH   1   4
ATOM      2  C   UNL     1       1.469   3.738  29.529  0.00  0.00    +0.401 C 
ATOM      3  O   UNL     1       0.261   3.832  29.756  0.00  0.00    -0.226 OA
ATOM      4  N   UNL     1       2.400   3.637  30.479  0.00  0.00    -0.279 N 
ATOM      5  H   UNL     1       3.366   3.554  30.194  0.00  0.00    +0.152 HD
BRANCH   2   6
ATOM      6  O   UNL     1       1.923   3.730  28.174  0.00  0.00    -0.444 OA
BRANCH   6   7
ATOM      7  C   UNL     1       1.051   2.918  27.383  0.00  0.00    +0.292 C 
BRANCH   7   9
ATOM      8  N   UNL     1       0.355   4.881  26.067  0.00  0.00    -0.131 NA
ATOM      9  C   UNL     1       0.764   3.576  26.092  0.00  0.00    +0.120 A 
ATOM     10  C   UNL     1       0.840   3.093  24.805  0.00  0.00    +0.138 A 
ATOM     11  N   UNL     1       0.407   4.142  24.038  0.00  0.00    -0.239 N 
ATOM     12  N   UNL     1       0.153   5.226  24.802  0.00  0.00    -0.065 NA
BRANCH  11  13
ATOM     13  C   UNL     1       0.364   4.282  22.578  0.00  0.00    +0.195 C 
ATOM     14  C   UNL     1       1.784   4.163  22.040  0.00  0.00    +0.041 C 
ATOM     15  C   UNL     1       1.854   4.584  20.587  0.00  0.00    +0.039 C 
ATOM     16  C   UNL     1       1.497   3.428  19.706  0.00  0.00    -0.026 A 
ATOM     17  C   UNL     1       0.227   2.847  19.706  0.00  0.00    +0.037 A 
ATOM     18  C   UNL     1      -0.069   1.847  18.765  0.00  0.00    +0.023 A 
ATOM     19  C   UNL     1       0.914   1.344  17.914  0.00  0.00    +0.002 A 
ATOM     20  C   UNL     1       2.197   1.869  17.965  0.00  0.00    +0.000 A 
ATOM     21  N   UNL     1      -0.795   3.112  20.634  0.00  0.00    -0.284 N 
ATOM     22  H   UNL     1      -1.664   2.614  20.461  0.00  0.00    +0.155 HD
ATOM     23  C   UNL     1       2.479   2.921  18.835  0.00  0.00    +0.005 A 
ATOM     24  C   UNL     1      -0.715   3.396  21.967  0.00  0.00    +0.242 C 
ATOM     25  O   UNL     1      -1.660   2.969  22.642  0.00  0.00    -0.273 OA
ENDBRANCH  11  13
ENDBRANCH   7   9
ENDBRANCH   6   7
ENDBRANCH   2   6
ENDBRANCH   1   4
BRANCH   1  26
ATOM     26  C   UNL     1       3.171   2.909  32.722  0.00  0.00    +0.163 C 
BRANCH  26  27
ATOM     27  O   UNL     1       3.958   2.078  31.853  0.00  0.00    -0.388 OA
ATOM     28  H   UNL     1       3.393   1.694  31.178  0.00  0.00    +0.210 HD
ENDBRANCH  26  27
BRANCH  26  29
ATOM     29  C   UNL     1       4.055   3.936  33.450  0.00  0.00    +0.175 C 
BRANCH  29  30
ATOM     30  C   UNL     1       5.481   3.413  33.677  0.00  0.00    +0.176 C 
ATOM     31  O   UNL     1       5.384   2.042  34.152  0.00  0.00    -0.332 OA
ATOM     32  C   UNL     1       6.658   1.339  34.324  0.00  0.00    +0.277 C 
ATOM     33  C   UNL     1       7.602   2.147  35.248  0.00  0.00    +0.110 C 
ATOM     34  C   UNL     1       7.712   3.620  34.802  0.00  0.00    +0.143 C 
ATOM     35  C   UNL     1       6.328   4.252  34.651  0.00  0.00    +0.133 C 
BRANCH  35  36
ATOM     36  N   UNL     1       6.443   5.628  34.142  0.00  0.00    -0.308 N 
ATOM     37  H   UNL     1       6.759   5.754  33.191  0.00  0.00    +0.149 HD
ATOM     38  C   UNL     1       6.157   6.721  34.855  0.00  0.00    +0.210 C 
ATOM     39  C   UNL     1       5.703   6.496  36.310  0.00  0.00    +0.109 C 
ATOM     40  O   UNL     1       6.249   7.861  34.398  0.00  0.00    -0.276 OA
ENDBRANCH  35  36
BRANCH  32  41
ATOM     41  C   UNL     1       7.345   1.109  32.961  0.00  0.00    +0.414 C 
ATOM     42  O   UNL     1       6.698   0.684  32.005  0.00  0.00    -0.240 OA
ATOM     43  O   UNL     1       8.544   1.348  32.818  0.00  0.00    -0.240 OA
ENDBRANCH  32  41
BRANCH  34  44
ATOM     44  O   UNL     1       8.465   4.360  35.764  0.00  0.00    -0.390 OA
ATOM     45  H   UNL     1       7.929   5.079  36.107  0.00  0.00    +0.210 HD
ENDBRANCH  34  44
BRANCH  32  46
ATOM     46  O   UNL     1       6.385   0.061  34.954  0.00  0.00    -0.343 OA
ATOM     47  C   UNL     1       7.141  -0.200  36.164  0.00  0.00    +0.198 C 
ENDBRANCH  32  46
ENDBRANCH  29  30
BRANCH  29  48
ATOM     48  O   UNL     1       3.455   4.305  34.708  0.00  0.00    -0.387 OA
ATOM     49  H   UNL     1       4.141   4.409  35.371  0.00  0.00    +0.210 HD
ENDBRANCH  29  48
ENDBRANCH  26  29
ENDBRANCH   1  26
TORSDOF 14
