REMARK VINA RESULT:    -4.844      9.147     12.921
REMARK INTER + INTRA:         -12.779
REMARK INTER:                  -9.234
REMARK INTRA:                  -3.545
REMARK UNBOUND:                -3.545
REMARK  Name = lig_assembled_55.pdb
REMARK  20 active torsions:
REMARK  status: ('A' for Active; 'I' for Inactive)
REMARK    1  A    between atoms: _2  and  _10
REMARK    2  A    between atoms: _3  and  _11
REMARK    3  A    between atoms: _3  and  _38
REMARK    4  A    between atoms: _5  and  _18
REMARK    5  A    between atoms: _6  and  _38
REMARK    6  A    between atoms: _7  and  _8
REMARK    7  A    between atoms: _7  and  _18
REMARK    8  A    between atoms: _10  and  _11
REMARK    9  A    between atoms: _14  and  _34
REMARK   10  A    between atoms: _16  and  _22
REMARK   11  A    between atoms: _17  and  _21
REMARK   12  A    between atoms: _21  and  _22
REMARK   13  A    between atoms: _24  and  _25
REMARK   14  A    between atoms: _26  and  _27
REMARK   15  A    between atoms: _28  and  _30
REMARK   16  A    between atoms: _30  and  _31
REMARK   17  A    between atoms: _30  and  _32
REMARK   18  A    between atoms: _32  and  _33
REMARK   19  A    between atoms: _32  and  _34
REMARK   20  A    between atoms: _35  and  _37
REMARK                            x       y       z     vdW  Elec       q    Type
REMARK                         _______ _______ _______ _____ _____    ______ ____
ROOT
ATOM      1  C   UNL     1      18.366  10.595  29.628  0.00  0.00    +0.163 C 
ENDROOT
BRANCH   1   2
ATOM      2  O   UNL     1      17.150  10.776  30.371  0.00  0.00    -0.388 OA
ATOM      3  H   UNL     1      16.433  10.312  29.931  0.00  0.00    +0.210 HD
ENDBRANCH   1   2
BRANCH   1   4
ATOM      4  C   UNL     1      18.830   9.129  29.679  0.00  0.00    +0.175 C 
BRANCH   4   5
ATOM      5  C   UNL     1      18.201   8.366  30.854  0.00  0.00    +0.176 C 
ATOM      6  O   UNL     1      18.431   9.139  32.064  0.00  0.00    -0.332 OA
ATOM      7  C   UNL     1      17.805   8.613  33.281  0.00  0.00    +0.277 C 
ATOM      8  C   UNL     1      18.226   7.141  33.513  0.00  0.00    +0.110 C 
ATOM      9  C   UNL     1      18.030   6.286  32.244  0.00  0.00    +0.143 C 
ATOM     10  C   UNL     1      18.719   6.927  31.038  0.00  0.00    +0.133 C 
BRANCH  10  11
ATOM     11  N   UNL     1      18.451   6.149  29.819  0.00  0.00    -0.308 N 
ATOM     12  H   UNL     1      17.496   6.093  29.494  0.00  0.00    +0.149 HD
ATOM     13  C   UNL     1      19.389   5.511  29.112  0.00  0.00    +0.210 C 
ATOM     14  C   UNL     1      20.831   5.594  29.647  0.00  0.00    +0.109 C 
ATOM     15  O   UNL     1      19.138   4.879  28.085  0.00  0.00    -0.276 OA
ENDBRANCH  10  11
BRANCH   7  16
ATOM     16  C   UNL     1      16.268   8.701  33.188  0.00  0.00    +0.414 C 
ATOM     17  O   UNL     1      15.564   7.858  33.742  0.00  0.00    -0.240 OA
ATOM     18  O   UNL     1      15.732   9.615  32.559  0.00  0.00    -0.240 OA
ENDBRANCH   7  16
BRANCH   7  19
ATOM     19  O   UNL     1      18.272   9.405  34.404  0.00  0.00    -0.343 OA
ATOM     20  C   UNL     1      18.664   8.640  35.572  0.00  0.00    +0.198 C 
ENDBRANCH   7  19
BRANCH   9  21
ATOM     21  O   UNL     1      18.569   4.980  32.455  0.00  0.00    -0.390 OA
ATOM     22  H   UNL     1      19.481   4.958  32.157  0.00  0.00    +0.210 HD
ENDBRANCH   9  21
ENDBRANCH   4   5
BRANCH   4  23
ATOM     23  O   UNL     1      20.268   9.065  29.758  0.00  0.00    -0.387 OA
ATOM     24  H   UNL     1      20.649   9.433  28.957  0.00  0.00    +0.210 HD
ENDBRANCH   4  23
ENDBRANCH   1   4
BRANCH   1  25
ATOM     25  C   UNL     1      18.158  11.013  28.176  0.00  0.00    +0.141 C 
BRANCH  25  28
ATOM     26  C   UNL     1      20.067  10.711  26.636  0.00  0.00    +0.401 C 
ATOM     27  O   UNL     1      20.472  11.869  26.761  0.00  0.00    -0.226 OA
ATOM     28  N   UNL     1      18.990  10.227  27.255  0.00  0.00    -0.279 N 
ATOM     29  H   UNL     1      18.731   9.266  27.082  0.00  0.00    +0.152 HD
BRANCH  26  30
ATOM     30  O   UNL     1      20.778   9.815  25.777  0.00  0.00    -0.444 OA
BRANCH  30  31
ATOM     31  C   UNL     1      21.054   8.600  26.478  0.00  0.00    +0.292 C 
BRANCH  31  33
ATOM     32  N   UNL     1      19.025   7.428  25.686  0.00  0.00    -0.131 NA
ATOM     33  C   UNL     1      20.389   7.462  25.816  0.00  0.00    +0.120 A 
ATOM     34  C   UNL     1      20.923   6.322  25.256  0.00  0.00    +0.137 A 
ATOM     35  N   UNL     1      19.835   5.628  24.820  0.00  0.00    -0.250 N 
ATOM     36  N   UNL     1      18.696   6.298  25.078  0.00  0.00    -0.065 NA
BRANCH  35  37
ATOM     37  C   UNL     1      19.800   4.355  24.134  0.00  0.00    +0.162 C 
BRANCH  37  38
ATOM     38  C   UNL     1      18.479   3.597  24.302  0.00  0.00    +0.129 C 
BRANCH  38  39
ATOM     39  N   UNL     1      18.158   3.259  25.720  0.00  0.00    -0.193 NA
ATOM     40  H   UNL     1      17.671   4.042  26.175  0.00  0.00    +0.148 HD
BRANCH  39  41
ATOM     41  S   UNL     1      17.401   1.776  25.979  0.00  0.00    +0.027 S 
ATOM     42  O   UNL     1      16.042   2.068  26.382  0.00  0.00    -0.158 OA
ATOM     43  O   UNL     1      17.682   0.937  24.836  0.00  0.00    -0.158 OA
ATOM     44  C   UNL     1      18.286   1.167  27.395  0.00  0.00    +0.214 C 
ENDBRANCH  39  41
ENDBRANCH  38  39
ENDBRANCH  37  38
ENDBRANCH  35  37
ENDBRANCH  31  33
ENDBRANCH  30  31
ENDBRANCH  26  30
ENDBRANCH  25  28
ENDBRANCH   1  25
TORSDOF 17
