REMARK VINA RESULT:    -5.940     11.621     15.706
REMARK INTER + INTRA:         -14.120
REMARK INTER:                 -11.995
REMARK INTRA:                  -2.125
REMARK UNBOUND:                -2.450
REMARK  Name = lig_assembled_10.pdb
REMARK  21 active torsions:
REMARK  status: ('A' for Active; 'I' for Inactive)
REMARK    1  A    between atoms: _2  and  _9
REMARK    2  A    between atoms: _4  and  _20
REMARK    3  A    between atoms: _5  and  _9
REMARK    4  A    between atoms: _5  and  _12
REMARK    5  A    between atoms: _6  and  _7
REMARK    6  A    between atoms: _6  and  _20
REMARK    7  A    between atoms: _9  and  _10
REMARK    8  A    between atoms: _10  and  _11
REMARK    9  A    between atoms: _11  and  _14
REMARK   10  A    between atoms: _16  and  _36
REMARK   11  A    between atoms: _18  and  _24
REMARK   12  A    between atoms: _19  and  _23
REMARK   13  A    between atoms: _23  and  _24
REMARK   14  A    between atoms: _26  and  _27
REMARK   15  A    between atoms: _28  and  _29
REMARK   16  A    between atoms: _30  and  _32
REMARK   17  A    between atoms: _32  and  _33
REMARK   18  A    between atoms: _32  and  _34
REMARK   19  A    between atoms: _34  and  _35
REMARK   20  A    between atoms: _34  and  _36
REMARK   21  A    between atoms: _37  and  _39
REMARK                            x       y       z     vdW  Elec       q    Type
REMARK                         _______ _______ _______ _____ _____    ______ ____
ROOT
ATOM      1  C   UNL     1      10.249   3.230  35.093  0.00  0.00    +0.163 C 
ENDROOT
BRANCH   1   2
ATOM      2  O   UNL     1      10.059   2.331  33.989  0.00  0.00    -0.388 OA
ATOM      3  H   UNL     1      10.177   1.426  34.288  0.00  0.00    +0.210 HD
ENDBRANCH   1   2
BRANCH   1   4
ATOM      4  C   UNL     1       8.976   3.325  35.951  0.00  0.00    +0.175 C 
BRANCH   4   5
ATOM      5  C   UNL     1       8.070   4.486  35.514  0.00  0.00    +0.176 C 
ATOM      6  O   UNL     1       7.734   5.261  36.698  0.00  0.00    -0.332 OA
ATOM      7  C   UNL     1       6.956   6.480  36.458  0.00  0.00    +0.277 C 
ATOM      8  C   UNL     1       5.667   6.151  35.665  0.00  0.00    +0.110 C 
ATOM      9  C   UNL     1       5.970   5.301  34.413  0.00  0.00    +0.143 C 
ATOM     10  C   UNL     1       6.787   4.060  34.777  0.00  0.00    +0.133 C 
BRANCH  10  11
ATOM     11  N   UNL     1       7.143   3.305  33.566  0.00  0.00    -0.308 N 
ATOM     12  H   UNL     1       7.748   3.752  32.892  0.00  0.00    +0.149 HD
ATOM     13  C   UNL     1       6.720   2.066  33.300  0.00  0.00    +0.210 C 
ATOM     14  C   UNL     1       5.779   1.421  34.335  0.00  0.00    +0.109 C 
ATOM     15  O   UNL     1       7.047   1.451  32.284  0.00  0.00    -0.276 OA
ENDBRANCH  10  11
BRANCH   7  16
ATOM     16  C   UNL     1       7.790   7.517  35.680  0.00  0.00    +0.414 C 
ATOM     17  O   UNL     1       7.280   8.165  34.766  0.00  0.00    -0.240 OA
ATOM     18  O   UNL     1       8.974   7.707  35.964  0.00  0.00    -0.240 OA
ENDBRANCH   7  16
BRANCH   7  19
ATOM     19  O   UNL     1       6.573   7.028  37.746  0.00  0.00    -0.343 OA
ATOM     20  C   UNL     1       7.248   6.441  38.887  0.00  0.00    +0.198 C 
ENDBRANCH   7  19
BRANCH   9  21
ATOM     21  O   UNL     1       4.747   4.896  33.798  0.00  0.00    -0.390 OA
ATOM     22  H   UNL     1       4.155   4.540  34.465  0.00  0.00    +0.210 HD
ENDBRANCH   9  21
ENDBRANCH   4   5
BRANCH   4  23
ATOM     23  O   UNL     1       9.323   3.463  37.343  0.00  0.00    -0.387 OA
ATOM     24  H   UNL     1       8.525   3.443  37.876  0.00  0.00    +0.210 HD
ENDBRANCH   4  23
ENDBRANCH   1   4
BRANCH   1  25
ATOM     25  C   UNL     1      11.412   2.755  35.959  0.00  0.00    +0.141 C 
BRANCH  25  28
ATOM     26  C   UNL     1      13.369   4.122  35.319  0.00  0.00    +0.401 C 
ATOM     27  O   UNL     1      13.548   3.534  34.250  0.00  0.00    -0.226 OA
ATOM     28  N   UNL     1      12.398   3.820  36.182  0.00  0.00    -0.279 N 
ATOM     29  H   UNL     1      12.338   4.353  37.038  0.00  0.00    +0.152 HD
BRANCH  26  30
ATOM     30  O   UNL     1      14.245   5.193  35.678  0.00  0.00    -0.444 OA
BRANCH  30  31
ATOM     31  C   UNL     1      15.313   5.275  34.731  0.00  0.00    +0.292 C 
BRANCH  31  33
ATOM     32  N   UNL     1      15.172   7.001  32.961  0.00  0.00    -0.131 NA
ATOM     33  C   UNL     1      15.467   6.662  34.253  0.00  0.00    +0.120 A 
ATOM     34  C   UNL     1      15.883   7.786  34.931  0.00  0.00    +0.138 A 
ATOM     35  N   UNL     1      15.780   8.786  34.013  0.00  0.00    -0.237 N 
ATOM     36  N   UNL     1      15.375   8.303  32.821  0.00  0.00    -0.065 NA
BRANCH  35  37
ATOM     37  C   UNL     1      16.028  10.214  34.128  0.00  0.00    +0.227 C 
BRANCH  37  38
ATOM     38  C   UNL     1      16.198  10.931  32.806  0.00  0.00    +0.330 C 
ATOM     39  O   UNL     1      17.286  11.000  32.246  0.00  0.00    -0.249 OA
BRANCH  38  40
ATOM     40  O   UNL     1      15.093  11.460  32.239  0.00  0.00    -0.479 OA
ATOM     41  H   UNL     1      14.799  11.060  31.380  0.00  0.00    +0.295 HD
ENDBRANCH  38  40
ENDBRANCH  37  38
BRANCH  37  42
ATOM     42  C   UNL     1      17.123  10.585  35.138  0.00  0.00    +0.158 C 
BRANCH  42  43
ATOM     43  C   UNL     1      16.550  11.091  36.432  0.00  0.00    +0.307 C 
ATOM     44  O   UNL     1      16.190  10.360  37.347  0.00  0.00    -0.251 OA
BRANCH  43  45
ATOM     45  O   UNL     1      16.543  12.433  36.532  0.00  0.00    -0.481 OA
ATOM     46  H   UNL     1      17.331  12.824  36.958  0.00  0.00    +0.295 HD
ENDBRANCH  43  45
ENDBRANCH  42  43
ENDBRANCH  37  42
ENDBRANCH  35  37
ENDBRANCH  31  33
ENDBRANCH  30  31
ENDBRANCH  26  30
ENDBRANCH  25  28
ENDBRANCH   1  25
TORSDOF 19
