REMARK VINA RESULT:    -6.455     12.393     16.675
REMARK INTER + INTRA:         -12.808
REMARK INTER:                 -11.236
REMARK INTRA:                  -1.572
REMARK UNBOUND:                -1.636
REMARK  Name = lig_assembled_52.pdb
REMARK  16 active torsions:
REMARK  status: ('A' for Active; 'I' for Inactive)
REMARK    1  A    between atoms: _2  and  _10
REMARK    2  A    between atoms: _5  and  _18
REMARK    3  A    between atoms: _7  and  _8
REMARK    4  A    between atoms: _7  and  _18
REMARK    5  A    between atoms: _14  and  _34
REMARK    6  A    between atoms: _16  and  _22
REMARK    7  A    between atoms: _17  and  _21
REMARK    8  A    between atoms: _21  and  _22
REMARK    9  A    between atoms: _24  and  _25
REMARK   10  A    between atoms: _26  and  _27
REMARK   11  A    between atoms: _28  and  _30
REMARK   12  A    between atoms: _30  and  _31
REMARK   13  A    between atoms: _30  and  _32
REMARK   14  A    between atoms: _32  and  _33
REMARK   15  A    between atoms: _32  and  _34
REMARK   16  A    between atoms: _35  and  _37
REMARK                            x       y       z     vdW  Elec       q    Type
REMARK                         _______ _______ _______ _____ _____    ______ ____
ROOT
ATOM      1  C   UNL     1      17.029   1.800  26.221  0.00  0.00    +0.163 C 
ENDROOT
BRANCH   1   2
ATOM      2  O   UNL     1      16.093   2.686  26.857  0.00  0.00    -0.388 OA
ATOM      3  H   UNL     1      16.477   3.030  27.668  0.00  0.00    +0.210 HD
ENDBRANCH   1   2
BRANCH   1   4
ATOM      4  C   UNL     1      18.395   2.470  26.120  0.00  0.00    +0.141 C 
BRANCH   4   7
ATOM      5  C   UNL     1      18.889   4.797  26.789  0.00  0.00    +0.401 C 
ATOM      6  O   UNL     1      19.599   4.472  27.743  0.00  0.00    -0.226 OA
ATOM      7  N   UNL     1      18.282   3.927  25.981  0.00  0.00    -0.279 N 
ATOM      8  H   UNL     1      17.711   4.291  25.230  0.00  0.00    +0.152 HD
BRANCH   5   9
ATOM      9  O   UNL     1      18.686   6.186  26.516  0.00  0.00    -0.444 OA
BRANCH   9  10
ATOM     10  C   UNL     1      19.790   6.939  27.026  0.00  0.00    +0.292 C 
BRANCH  10  12
ATOM     11  N   UNL     1      19.476   9.215  27.943  0.00  0.00    -0.131 NA
ATOM     12  C   UNL     1      19.335   7.864  28.081  0.00  0.00    +0.121 A 
ATOM     13  C   UNL     1      18.733   7.598  29.289  0.00  0.00    +0.143 A 
ATOM     14  N   UNL     1      18.505   8.831  29.853  0.00  0.00    -0.218 N 
ATOM     15  N   UNL     1      18.974   9.795  29.025  0.00  0.00    -0.060 NA
BRANCH  14  16
ATOM     16  C   UNL     1      17.877   9.139  31.079  0.00  0.00    +0.085 A 
ATOM     17  C   UNL     1      17.751  10.453  31.537  0.00  0.00    +0.031 A 
ATOM     18  C   UNL     1      17.139  10.689  32.767  0.00  0.00    +0.022 A 
ATOM     19  C   UNL     1      16.672   9.606  33.492  0.00  0.00    +0.111 A 
ATOM     20  N   UNL     1      16.771   8.326  33.072  0.00  0.00    -0.261 NA
ATOM     21  C   UNL     1      17.371   8.117  31.875  0.00  0.00    +0.138 A 
ENDBRANCH  14  16
ENDBRANCH  10  12
ENDBRANCH   9  10
ENDBRANCH   5   9
ENDBRANCH   4   7
ENDBRANCH   1   4
BRANCH   1  22
ATOM     22  C   UNL     1      16.545   1.406  24.815  0.00  0.00    +0.175 C 
BRANCH  22  23
ATOM     23  C   UNL     1      17.658   0.753  23.982  0.00  0.00    +0.176 C 
ATOM     24  O   UNL     1      17.700   1.420  22.691  0.00  0.00    -0.332 OA
ATOM     25  C   UNL     1      18.780   0.998  21.794  0.00  0.00    +0.277 C 
ATOM     26  C   UNL     1      18.744  -0.537  21.590  0.00  0.00    +0.110 C 
ATOM     27  C   UNL     1      18.667  -1.289  22.935  0.00  0.00    +0.143 C 
ATOM     28  C   UNL     1      17.511  -0.768  23.789  0.00  0.00    +0.133 C 
BRANCH  28  29
ATOM     29  N   UNL     1      17.501  -1.431  25.103  0.00  0.00    -0.308 N 
ATOM     30  H   UNL     1      18.237  -1.198  25.754  0.00  0.00    +0.149 HD
ATOM     31  C   UNL     1      16.583  -2.321  25.490  0.00  0.00    +0.210 C 
ATOM     32  C   UNL     1      15.489  -2.674  24.464  0.00  0.00    +0.109 C 
ATOM     33  O   UNL     1      16.591  -2.850  26.602  0.00  0.00    -0.276 OA
ENDBRANCH  28  29
BRANCH  25  34
ATOM     34  C   UNL     1      20.154   1.410  22.360  0.00  0.00    +0.414 C 
ATOM     35  O   UNL     1      20.302   2.512  22.888  0.00  0.00    -0.240 OA
ATOM     36  O   UNL     1      21.115   0.643  22.289  0.00  0.00    -0.240 OA
ENDBRANCH  25  34
BRANCH  27  37
ATOM     37  O   UNL     1      18.483  -2.685  22.696  0.00  0.00    -0.390 OA
ATOM     38  H   UNL     1      17.693  -2.987  23.150  0.00  0.00    +0.210 HD
ENDBRANCH  27  37
BRANCH  25  39
ATOM     39  O   UNL     1      18.570   1.635  20.508  0.00  0.00    -0.343 OA
ATOM     40  C   UNL     1      17.183   1.756  20.103  0.00  0.00    +0.198 C 
ENDBRANCH  25  39
ENDBRANCH  22  23
BRANCH  22  41
ATOM     41  O   UNL     1      16.022   2.560  24.128  0.00  0.00    -0.387 OA
ATOM     42  H   UNL     1      16.220   3.352  24.634  0.00  0.00    +0.210 HD
ENDBRANCH  22  41
ENDBRANCH   1  22
TORSDOF 14
