REMARK VINA RESULT:    -6.253     14.696     17.980
REMARK INTER + INTRA:         -12.940
REMARK INTER:                 -10.823
REMARK INTRA:                  -2.118
REMARK UNBOUND:                -2.118
REMARK  Name = lig_assembled_7.pdb
REMARK  19 active torsions:
REMARK  status: ('A' for Active; 'I' for Inactive)
REMARK    1  A    between atoms: _2  and  _9
REMARK    2  A    between atoms: _4  and  _21
REMARK    3  A    between atoms: _5  and  _16
REMARK    4  A    between atoms: _6  and  _7
REMARK    5  A    between atoms: _6  and  _21
REMARK    6  A    between atoms: _10  and  _11
REMARK    7  A    between atoms: _13  and  _14
REMARK    8  A    between atoms: _17  and  _37
REMARK    9  A    between atoms: _19  and  _25
REMARK   10  A    between atoms: _20  and  _24
REMARK   11  A    between atoms: _24  and  _25
REMARK   12  A    between atoms: _27  and  _28
REMARK   13  A    between atoms: _29  and  _30
REMARK   14  A    between atoms: _31  and  _33
REMARK   15  A    between atoms: _33  and  _34
REMARK   16  A    between atoms: _33  and  _35
REMARK   17  A    between atoms: _35  and  _36
REMARK   18  A    between atoms: _35  and  _37
REMARK   19  A    between atoms: _38  and  _40
REMARK                            x       y       z     vdW  Elec       q    Type
REMARK                         _______ _______ _______ _____ _____    ______ ____
ROOT
ATOM      1  C   UNL     1      16.964   2.161  26.521  0.00  0.00    +0.163 C 
ENDROOT
BRANCH   1   2
ATOM      2  O   UNL     1      17.533   3.036  25.533  0.00  0.00    -0.388 OA
ATOM      3  H   UNL     1      18.486   2.918  25.512  0.00  0.00    +0.210 HD
ENDBRANCH   1   2
BRANCH   1   4
ATOM      4  C   UNL     1      17.914   2.024  27.707  0.00  0.00    +0.141 C 
BRANCH   4   7
ATOM      5  C   UNL     1      18.903   3.531  29.397  0.00  0.00    +0.401 C 
ATOM      6  O   UNL     1      19.893   2.821  29.587  0.00  0.00    -0.226 OA
ATOM      7  N   UNL     1      17.925   3.233  28.541  0.00  0.00    -0.279 N 
ATOM      8  H   UNL     1      17.149   3.874  28.461  0.00  0.00    +0.152 HD
BRANCH   5   9
ATOM      9  O   UNL     1      18.773   4.751  30.130  0.00  0.00    -0.444 OA
BRANCH   9  10
ATOM     10  C   UNL     1      19.971   5.521  29.996  0.00  0.00    +0.292 C 
BRANCH  10  12
ATOM     11  N   UNL     1      18.896   7.284  28.650  0.00  0.00    -0.131 NA
ATOM     12  C   UNL     1      19.898   6.375  28.797  0.00  0.00    +0.121 A 
ATOM     13  C   UNL     1      20.727   6.446  27.695  0.00  0.00    +0.143 A 
ATOM     14  N   UNL     1      20.158   7.392  26.868  0.00  0.00    -0.219 N 
ATOM     15  N   UNL     1      19.076   7.912  27.500  0.00  0.00    -0.060 NA
BRANCH  14  16
ATOM     16  C   UNL     1      20.564   7.830  25.566  0.00  0.00    +0.073 A 
ATOM     17  C   UNL     1      21.378   8.997  25.442  0.00  0.00    -0.024 A 
ATOM     18  C   UNL     1      21.784   9.435  24.163  0.00  0.00    +0.008 A 
ATOM     19  C   UNL     1      21.417   8.749  23.008  0.00  0.00    -0.050 A 
ATOM     20  C   UNL     1      21.868   9.241  21.665  0.00  0.00    +0.044 C 
ATOM     21  C   UNL     1      20.626   7.611  23.133  0.00  0.00    +0.008 A 
ATOM     22  C   UNL     1      21.903   9.805  26.609  0.00  0.00    +0.046 C 
ATOM     23  C   UNL     1      20.170   7.144  24.388  0.00  0.00    -0.024 A 
ATOM     24  C   UNL     1      19.224   5.973  24.291  0.00  0.00    +0.046 C 
ENDBRANCH  14  16
ENDBRANCH  10  12
ENDBRANCH   9  10
ENDBRANCH   5   9
ENDBRANCH   4   7
ENDBRANCH   1   4
BRANCH   1  25
ATOM     25  C   UNL     1      16.681   0.771  25.927  0.00  0.00    +0.175 C 
BRANCH  25  26
ATOM     26  C   UNL     1      17.512   0.502  24.664  0.00  0.00    +0.176 C 
ATOM     27  O   UNL     1      17.096   1.452  23.644  0.00  0.00    -0.332 OA
ATOM     28  C   UNL     1      17.860   1.414  22.394  0.00  0.00    +0.277 C 
ATOM     29  C   UNL     1      17.863  -0.018  21.804  0.00  0.00    +0.110 C 
ATOM     30  C   UNL     1      18.268  -1.067  22.860  0.00  0.00    +0.143 C 
ATOM     31  C   UNL     1      17.412  -0.936  24.121  0.00  0.00    +0.133 C 
BRANCH  31  32
ATOM     32  N   UNL     1      17.864  -1.883  25.152  0.00  0.00    -0.308 N 
ATOM     33  H   UNL     1      18.798  -1.768  25.521  0.00  0.00    +0.149 HD
ATOM     34  C   UNL     1      17.122  -2.885  25.631  0.00  0.00    +0.210 C 
ATOM     35  C   UNL     1      15.714  -3.050  25.029  0.00  0.00    +0.109 C 
ATOM     36  O   UNL     1      17.522  -3.654  26.506  0.00  0.00    -0.276 OA
ENDBRANCH  31  32
BRANCH  28  37
ATOM     37  C   UNL     1      19.313   1.879  22.626  0.00  0.00    +0.414 C 
ATOM     38  O   UNL     1      19.579   2.639  23.555  0.00  0.00    -0.240 OA
ATOM     39  O   UNL     1      20.217   1.494  21.884  0.00  0.00    -0.240 OA
ENDBRANCH  28  37
BRANCH  30  40
ATOM     40  O   UNL     1      18.111  -2.380  22.320  0.00  0.00    -0.390 OA
ATOM     41  H   UNL     1      17.676  -2.325  21.465  0.00  0.00    +0.210 HD
ENDBRANCH  30  40
BRANCH  28  42
ATOM     42  O   UNL     1      17.210   2.298  21.444  0.00  0.00    -0.343 OA
ATOM     43  C   UNL     1      17.040   1.749  20.113  0.00  0.00    +0.198 C 
ENDBRANCH  28  42
ENDBRANCH  25  26
BRANCH  25  44
ATOM     44  O   UNL     1      15.275   0.632  25.636  0.00  0.00    -0.387 OA
ATOM     45  H   UNL     1      14.809   0.363  26.431  0.00  0.00    +0.210 HD
ENDBRANCH  25  44
ENDBRANCH   1  25
TORSDOF 14
