REMARK VINA RESULT:    -5.661     13.827     15.709
REMARK INTER + INTRA:         -13.233
REMARK INTER:                 -11.011
REMARK INTRA:                  -2.222
REMARK UNBOUND:                -2.111
REMARK  Name = lig_assembled_17.pdb
REMARK  22 active torsions:
REMARK  status: ('A' for Active; 'I' for Inactive)
REMARK    1  A    between atoms: _2  and  _10
REMARK    2  A    between atoms: _3  and  _11
REMARK    3  A    between atoms: _3  and  _12
REMARK    4  A    between atoms: _3  and  _14
REMARK    5  A    between atoms: _5  and  _19
REMARK    6  A    between atoms: _6  and  _14
REMARK    7  A    between atoms: _7  and  _8
REMARK    8  A    between atoms: _7  and  _19
REMARK    9  A    between atoms: _10  and  _11
REMARK   10  A    between atoms: _12  and  _13
REMARK   11  A    between atoms: _15  and  _35
REMARK   12  A    between atoms: _17  and  _23
REMARK   13  A    between atoms: _18  and  _22
REMARK   14  A    between atoms: _22  and  _23
REMARK   15  A    between atoms: _25  and  _26
REMARK   16  A    between atoms: _27  and  _28
REMARK   17  A    between atoms: _29  and  _31
REMARK   18  A    between atoms: _31  and  _32
REMARK   19  A    between atoms: _31  and  _33
REMARK   20  A    between atoms: _33  and  _34
REMARK   21  A    between atoms: _33  and  _35
REMARK   22  A    between atoms: _36  and  _38
REMARK                            x       y       z     vdW  Elec       q    Type
REMARK                         _______ _______ _______ _____ _____    ______ ____
ROOT
ATOM      1  C   UNL     1      18.881  10.930  29.378  0.00  0.00    +0.163 C 
ENDROOT
BRANCH   1   2
ATOM      2  O   UNL     1      17.459  11.095  29.507  0.00  0.00    -0.388 OA
ATOM      3  H   UNL     1      17.250  11.389  30.397  0.00  0.00    +0.210 HD
ENDBRANCH   1   2
BRANCH   1   4
ATOM      4  C   UNL     1      19.360   9.678  30.133  0.00  0.00    +0.175 C 
BRANCH   4   5
ATOM      5  C   UNL     1      18.277   9.117  31.066  0.00  0.00    +0.176 C 
ATOM      6  O   UNL     1      18.365   9.828  32.332  0.00  0.00    -0.332 OA
ATOM      7  C   UNL     1      17.332   9.496  33.318  0.00  0.00    +0.277 C 
ATOM      8  C   UNL     1      17.302   7.970  33.577  0.00  0.00    +0.110 C 
ATOM      9  C   UNL     1      17.241   7.170  32.259  0.00  0.00    +0.143 C 
ATOM     10  C   UNL     1      18.358   7.598  31.306  0.00  0.00    +0.133 C 
BRANCH  10  11
ATOM     11  N   UNL     1      18.237   6.891  30.021  0.00  0.00    -0.308 N 
ATOM     12  H   UNL     1      17.402   7.045  29.474  0.00  0.00    +0.149 HD
ATOM     13  C   UNL     1      19.160   6.059  29.530  0.00  0.00    +0.210 C 
ATOM     14  C   UNL     1      20.410   5.825  30.399  0.00  0.00    +0.109 C 
ATOM     15  O   UNL     1      19.039   5.492  28.443  0.00  0.00    -0.276 OA
ENDBRANCH  10  11
BRANCH   7  16
ATOM     16  C   UNL     1      15.944   9.965  32.835  0.00  0.00    +0.414 C 
ATOM     17  O   UNL     1      14.947   9.276  33.050  0.00  0.00    -0.240 OA
ATOM     18  O   UNL     1      15.820  11.032  32.231  0.00  0.00    -0.240 OA
ENDBRANCH   7  16
BRANCH   9  19
ATOM     19  O   UNL     1      17.367   5.775  32.536  0.00  0.00    -0.390 OA
ATOM     20  H   UNL     1      17.630   5.652  33.451  0.00  0.00    +0.210 HD
ENDBRANCH   9  19
BRANCH   7  21
ATOM     21  O   UNL     1      17.668  10.165  34.561  0.00  0.00    -0.343 OA
ATOM     22  C   UNL     1      19.012  10.704  34.623  0.00  0.00    +0.198 C 
ENDBRANCH   7  21
ENDBRANCH   4   5
BRANCH   4  23
ATOM     23  O   UNL     1      20.555   9.977  30.882  0.00  0.00    -0.387 OA
ATOM     24  H   UNL     1      20.681   9.312  31.563  0.00  0.00    +0.210 HD
ENDBRANCH   4  23
ENDBRANCH   1   4
BRANCH   1  25
ATOM     25  C   UNL     1      19.261  10.814  27.906  0.00  0.00    +0.141 C 
BRANCH  25  28
ATOM     26  C   UNL     1      19.488   8.744  26.576  0.00  0.00    +0.401 C 
ATOM     27  O   UNL     1      20.681   8.924  26.324  0.00  0.00    -0.226 OA
ATOM     28  N   UNL     1      18.745   9.579  27.303  0.00  0.00    -0.279 N 
ATOM     29  H   UNL     1      17.771   9.349  27.447  0.00  0.00    +0.152 HD
BRANCH  26  30
ATOM     30  O   UNL     1      18.839   7.577  26.065  0.00  0.00    -0.444 OA
BRANCH  30  31
ATOM     31  C   UNL     1      19.682   6.947  25.096  0.00  0.00    +0.292 C 
BRANCH  31  33
ATOM     32  N   UNL     1      18.037   6.512  23.302  0.00  0.00    -0.131 NA
ATOM     33  C   UNL     1      18.893   6.028  24.256  0.00  0.00    +0.120 A 
ATOM     34  C   UNL     1      18.860   4.650  24.235  0.00  0.00    +0.137 A 
ATOM     35  N   UNL     1      17.979   4.363  23.236  0.00  0.00    -0.250 N 
ATOM     36  N   UNL     1      17.478   5.482  22.685  0.00  0.00    -0.065 NA
BRANCH  35  37
ATOM     37  C   UNL     1      17.596   3.066  22.718  0.00  0.00    +0.160 C 
BRANCH  37  38
ATOM     38  C   UNL     1      16.532   2.418  23.616  0.00  0.00    +0.107 C 
BRANCH  38  39
ATOM     39  N   UNL     1      16.889   1.102  24.202  0.00  0.00    -0.301 NA
BRANCH  39  40
ATOM     40  C   UNL     1      17.628   0.230  23.271  0.00  0.00    +0.081 C 
ATOM     41  C   UNL     1      17.800  -1.226  23.696  0.00  0.00    +0.020 C 
ENDBRANCH  39  40
BRANCH  39  42
ATOM     42  C   UNL     1      17.594   1.326  25.481  0.00  0.00    +0.081 C 
ATOM     43  C   UNL     1      16.763   2.010  26.561  0.00  0.00    +0.020 C 
ENDBRANCH  39  42
ENDBRANCH  38  39
ENDBRANCH  37  38
ENDBRANCH  35  37
ENDBRANCH  31  33
ENDBRANCH  30  31
ENDBRANCH  26  30
ENDBRANCH  25  28
ENDBRANCH   1  25
TORSDOF 18
