REMARK VINA RESULT:    -5.792     18.297     24.364
REMARK INTER + INTRA:         -13.700
REMARK INTER:                 -11.887
REMARK INTRA:                  -1.813
REMARK UNBOUND:                -1.813
REMARK  Name = lig_assembled_33.pdb
REMARK  22 active torsions:
REMARK  status: ('A' for Active; 'I' for Inactive)
REMARK    1  A    between atoms: _2  and  _9
REMARK    2  A    between atoms: _4  and  _20
REMARK    3  A    between atoms: _5  and  _13
REMARK    4  A    between atoms: _5  and  _14
REMARK    5  A    between atoms: _6  and  _7
REMARK    6  A    between atoms: _6  and  _20
REMARK    7  A    between atoms: _9  and  _10
REMARK    8  A    between atoms: _10  and  _11
REMARK    9  A    between atoms: _11  and  _12
REMARK   10  A    between atoms: _12  and  _13
REMARK   11  A    between atoms: _16  and  _36
REMARK   12  A    between atoms: _18  and  _24
REMARK   13  A    between atoms: _19  and  _23
REMARK   14  A    between atoms: _23  and  _24
REMARK   15  A    between atoms: _26  and  _27
REMARK   16  A    between atoms: _28  and  _29
REMARK   17  A    between atoms: _30  and  _32
REMARK   18  A    between atoms: _32  and  _33
REMARK   19  A    between atoms: _32  and  _34
REMARK   20  A    between atoms: _34  and  _35
REMARK   21  A    between atoms: _34  and  _36
REMARK   22  A    between atoms: _37  and  _39
REMARK                            x       y       z     vdW  Elec       q    Type
REMARK                         _______ _______ _______ _____ _____    ______ ____
ROOT
ATOM      1  C   UNL     1       5.176  23.791  16.382  0.00  0.00    +0.163 C 
ENDROOT
BRANCH   1   2
ATOM      2  O   UNL     1       5.076  22.447  16.882  0.00  0.00    -0.388 OA
ATOM      3  H   UNL     1       4.206  22.311  17.264  0.00  0.00    +0.210 HD
ENDBRANCH   1   2
BRANCH   1   4
ATOM      4  C   UNL     1       5.996  23.834  15.082  0.00  0.00    +0.175 C 
BRANCH   4   5
ATOM      5  C   UNL     1       5.241  23.206  13.901  0.00  0.00    +0.176 C 
ATOM      6  O   UNL     1       4.882  21.847  14.272  0.00  0.00    -0.332 OA
ATOM      7  C   UNL     1       4.057  21.122  13.301  0.00  0.00    +0.277 C 
ATOM      8  C   UNL     1       4.734  21.122  11.908  0.00  0.00    +0.110 C 
ATOM      9  C   UNL     1       5.163  22.543  11.485  0.00  0.00    +0.143 C 
ATOM     10  C   UNL     1       6.013  23.206  12.569  0.00  0.00    +0.133 C 
BRANCH  10  11
ATOM     11  N   UNL     1       6.342  24.590  12.191  0.00  0.00    -0.308 N 
ATOM     12  H   UNL     1       5.579  25.243  12.083  0.00  0.00    +0.149 HD
ATOM     13  C   UNL     1       7.583  25.038  11.981  0.00  0.00    +0.210 C 
ATOM     14  C   UNL     1       8.721  24.010  12.128  0.00  0.00    +0.109 C 
ATOM     15  O   UNL     1       7.830  26.206  11.680  0.00  0.00    -0.276 OA
ENDBRANCH  10  11
BRANCH   7  16
ATOM     16  C   UNL     1       2.654  21.756  13.193  0.00  0.00    +0.414 C 
ATOM     17  O   UNL     1       2.000  21.990  14.208  0.00  0.00    -0.240 OA
ATOM     18  O   UNL     1       2.178  22.032  12.091  0.00  0.00    -0.240 OA
ENDBRANCH   7  16
BRANCH   9  19
ATOM     19  O   UNL     1       5.914  22.478  10.272  0.00  0.00    -0.390 OA
ATOM     20  H   UNL     1       6.751  22.932  10.388  0.00  0.00    +0.210 HD
ENDBRANCH   9  19
BRANCH   7  21
ATOM     21  O   UNL     1       3.938  19.747  13.751  0.00  0.00    -0.343 OA
ATOM     22  C   UNL     1       5.155  18.964  13.655  0.00  0.00    +0.198 C 
ENDBRANCH   7  21
ENDBRANCH   4   5
BRANCH   4  23
ATOM     23  O   UNL     1       7.262  23.171  15.270  0.00  0.00    -0.387 OA
ATOM     24  H   UNL     1       7.765  23.203  14.453  0.00  0.00    +0.210 HD
ENDBRANCH   4  23
ENDBRANCH   1   4
BRANCH   1  25
ATOM     25  C   UNL     1       3.783  24.357  16.126  0.00  0.00    +0.141 C 
BRANCH  25  28
ATOM     26  C   UNL     1       2.233  23.662  17.920  0.00  0.00    +0.401 C 
ATOM     27  O   UNL     1       2.607  24.532  18.709  0.00  0.00    -0.226 OA
ATOM     28  N   UNL     1       2.732  23.503  16.694  0.00  0.00    -0.279 N 
ATOM     29  H   UNL     1       2.367  22.754  16.123  0.00  0.00    +0.152 HD
BRANCH  26  30
ATOM     30  O   UNL     1       1.205  22.753  18.323  0.00  0.00    -0.444 OA
BRANCH  30  31
ATOM     31  C   UNL     1       1.368  22.432  19.707  0.00  0.00    +0.292 C 
BRANCH  31  33
ATOM     32  N   UNL     1      -0.368  23.034  21.363  0.00  0.00    -0.131 NA
ATOM     33  C   UNL     1       0.055  22.221  20.345  0.00  0.00    +0.120 A 
ATOM     34  C   UNL     1      -0.914  21.273  20.093  0.00  0.00    +0.137 A 
ATOM     35  N   UNL     1      -1.900  21.571  20.984  0.00  0.00    -0.251 N 
ATOM     36  N   UNL     1      -1.563  22.617  21.757  0.00  0.00    -0.065 NA
BRANCH  35  37
ATOM     37  C   UNL     1      -3.173  20.905  21.169  0.00  0.00    +0.145 C 
BRANCH  37  38
ATOM     38  C   UNL     1      -3.277  19.625  20.342  0.00  0.00    +0.023 C 
BRANCH  38  39
ATOM     39  C   UNL     1      -4.245  18.608  20.950  0.00  0.00    +0.002 C 
BRANCH  39  40
ATOM     40  C   UNL     1      -3.468  17.584  21.783  0.00  0.00    +0.011 C 
BRANCH  40  41
ATOM     41  C   UNL     1      -1.957  17.782  21.706  0.00  0.00    +0.120 C 
BRANCH  41  42
ATOM     42  C   UNL     1      -1.271  16.556  21.142  0.00  0.00    +0.305 C 
ATOM     43  O   UNL     1      -0.444  16.558  20.245  0.00  0.00    -0.251 OA
BRANCH  42  44
ATOM     44  O   UNL     1      -1.672  15.416  21.752  0.00  0.00    -0.481 OA
ATOM     45  H   UNL     1      -2.636  15.278  21.737  0.00  0.00    +0.295 HD
ENDBRANCH  42  44
ENDBRANCH  41  42
ENDBRANCH  40  41
ENDBRANCH  39  40
ENDBRANCH  38  39
ENDBRANCH  37  38
ENDBRANCH  35  37
ENDBRANCH  31  33
ENDBRANCH  30  31
ENDBRANCH  26  30
ENDBRANCH  25  28
ENDBRANCH   1  25
TORSDOF 20
