REMARK VINA RESULT:    -7.391      0.000      0.000
REMARK INTER + INTRA:         -14.800
REMARK INTER:                 -13.097
REMARK INTRA:                  -1.703
REMARK UNBOUND:                -1.575
REMARK  Name = lig_assembled_0.pdb
REMARK  17 active torsions:
REMARK  status: ('A' for Active; 'I' for Inactive)
REMARK    1  A    between atoms: _2  and  _10
REMARK    2  A    between atoms: _5  and  _21
REMARK    3  A    between atoms: _7  and  _8
REMARK    4  A    between atoms: _7  and  _21
REMARK    5  A    between atoms: _11  and  _12
REMARK    6  A    between atoms: _17  and  _37
REMARK    7  A    between atoms: _19  and  _25
REMARK    8  A    between atoms: _20  and  _24
REMARK    9  A    between atoms: _24  and  _25
REMARK   10  A    between atoms: _27  and  _28
REMARK   11  A    between atoms: _29  and  _30
REMARK   12  A    between atoms: _31  and  _33
REMARK   13  A    between atoms: _33  and  _34
REMARK   14  A    between atoms: _33  and  _35
REMARK   15  A    between atoms: _35  and  _36
REMARK   16  A    between atoms: _35  and  _37
REMARK   17  A    between atoms: _38  and  _40
REMARK                            x       y       z     vdW  Elec       q    Type
REMARK                         _______ _______ _______ _____ _____    ______ ____
ROOT
ATOM      1  C   UNL     1       3.196   2.835  32.179  0.00  0.00    +0.163 C 
ENDROOT
BRANCH   1   2
ATOM      2  O   UNL     1       3.317   3.074  30.767  0.00  0.00    -0.388 OA
ATOM      3  H   UNL     1       3.812   2.358  30.362  0.00  0.00    +0.210 HD
ENDBRANCH   1   2
BRANCH   1   4
ATOM      4  C   UNL     1       1.736   2.947  32.604  0.00  0.00    +0.141 C 
BRANCH   4   7
ATOM      5  C   UNL     1       0.666   4.235  30.786  0.00  0.00    +0.401 C 
ATOM      6  O   UNL     1       1.230   5.293  31.077  0.00  0.00    -0.226 OA
ATOM      7  N   UNL     1       0.840   3.091  31.450  0.00  0.00    -0.279 N 
ATOM      8  H   UNL     1       0.325   2.278  31.141  0.00  0.00    +0.152 HD
BRANCH   5   9
ATOM      9  O   UNL     1      -0.235   4.211  29.677  0.00  0.00    -0.444 OA
BRANCH   9  10
ATOM     10  C   UNL     1      -0.042   3.006  28.930  0.00  0.00    +0.292 C 
BRANCH  10  12
ATOM     11  N   UNL     1       2.011   3.636  27.715  0.00  0.00    -0.131 NA
ATOM     12  C   UNL     1       0.694   3.287  27.683  0.00  0.00    +0.121 A 
ATOM     13  C   UNL     1       0.271   3.240  26.374  0.00  0.00    +0.143 A 
ATOM     14  N   UNL     1       1.350   3.664  25.633  0.00  0.00    -0.219 N 
ATOM     15  N   UNL     1       2.416   3.812  26.467  0.00  0.00    -0.060 NA
BRANCH  14  16
ATOM     16  C   UNL     1       1.507   3.829  24.228  0.00  0.00    +0.079 A 
ATOM     17  C   UNL     1       1.865   2.801  23.332  0.00  0.00    +0.062 A 
ATOM     18  C   UNL     1       2.027   3.116  21.965  0.00  0.00    +0.015 A 
ATOM     19  C   UNL     1       1.854   4.417  21.493  0.00  0.00    +0.001 A 
ATOM     20  C   UNL     1       1.487   5.425  22.372  0.00  0.00    +0.002 A 
ATOM     21  C   UNL     1       1.304   5.134  23.724  0.00  0.00    +0.028 A 
BRANCH  17  22
ATOM     22  C   UNL     1       1.906   1.356  23.692  0.00  0.00    +0.244 C 
ATOM     23  O   UNL     1       0.896   0.676  23.777  0.00  0.00    -0.270 OA
ATOM     24  N   UNL     1       3.136   0.787  23.892  0.00  0.00    -0.325 N 
ATOM     25  H   UNL     1       3.158  -0.207  24.086  0.00  0.00    +0.145 HD
ATOM     26  H   UNL     1       4.016   1.276  23.827  0.00  0.00    +0.145 HD
ENDBRANCH  17  22
ENDBRANCH  14  16
ENDBRANCH  10  12
ENDBRANCH   9  10
ENDBRANCH   5   9
ENDBRANCH   4   7
ENDBRANCH   1   4
BRANCH   1  27
ATOM     27  C   UNL     1       4.043   3.837  32.981  0.00  0.00    +0.175 C 
BRANCH  27  28
ATOM     28  C   UNL     1       5.402   3.248  33.391  0.00  0.00    +0.176 C 
ATOM     29  O   UNL     1       5.185   1.872  33.807  0.00  0.00    -0.332 OA
ATOM     30  C   UNL     1       6.394   1.111  34.136  0.00  0.00    +0.277 C 
ATOM     31  C   UNL     1       7.228   1.857  35.207  0.00  0.00    +0.110 C 
ATOM     32  C   UNL     1       7.458   3.334  34.823  0.00  0.00    +0.143 C 
ATOM     33  C   UNL     1       6.135   4.029  34.498  0.00  0.00    +0.133 C 
BRANCH  33  34
ATOM     34  N   UNL     1       6.374   5.410  34.050  0.00  0.00    -0.308 N 
ATOM     35  H   UNL     1       6.789   5.545  33.139  0.00  0.00    +0.149 HD
ATOM     36  C   UNL     1       6.078   6.496  34.769  0.00  0.00    +0.210 C 
ATOM     37  C   UNL     1       5.470   6.256  36.163  0.00  0.00    +0.109 C 
ATOM     38  O   UNL     1       6.276   7.641  34.362  0.00  0.00    -0.276 OA
ENDBRANCH  33  34
BRANCH  30  39
ATOM     39  C   UNL     1       7.257   0.884  32.877  0.00  0.00    +0.414 C 
ATOM     40  O   UNL     1       8.450   1.184  32.880  0.00  0.00    -0.240 OA
ATOM     41  O   UNL     1       6.760   0.401  31.859  0.00  0.00    -0.240 OA
ENDBRANCH  30  39
BRANCH  32  42
ATOM     42  O   UNL     1       8.096   4.019  35.901  0.00  0.00    -0.390 OA
ATOM     43  H   UNL     1       7.527   4.000  36.675  0.00  0.00    +0.210 HD
ENDBRANCH  32  42
BRANCH  30  44
ATOM     44  O   UNL     1       5.985  -0.168  34.685  0.00  0.00    -0.343 OA
ATOM     45  C   UNL     1       6.797  -0.650  35.785  0.00  0.00    +0.198 C 
ENDBRANCH  30  44
ENDBRANCH  27  28
BRANCH  27  46
ATOM     46  O   UNL     1       3.320   4.276  34.148  0.00  0.00    -0.387 OA
ATOM     47  H   UNL     1       3.539   5.192  34.335  0.00  0.00    +0.210 HD
ENDBRANCH  27  46
ENDBRANCH   1  27
TORSDOF 15
