REMARK VINA RESULT:    -5.377      6.011     11.837
REMARK INTER + INTRA:         -13.386
REMARK INTER:                 -11.723
REMARK INTRA:                  -1.663
REMARK UNBOUND:                -3.450
REMARK  Name = lig_assembled_66.pdb
REMARK  18 active torsions:
REMARK  status: ('A' for Active; 'I' for Inactive)
REMARK    1  A    between atoms: _2  and  _10
REMARK    2  A    between atoms: _5  and  _21
REMARK    3  A    between atoms: _7  and  _8
REMARK    4  A    between atoms: _7  and  _21
REMARK    5  A    between atoms: _10  and  _11
REMARK    6  A    between atoms: _15  and  _16
REMARK    7  A    between atoms: _17  and  _37
REMARK    8  A    between atoms: _19  and  _25
REMARK    9  A    between atoms: _20  and  _24
REMARK   10  A    between atoms: _24  and  _25
REMARK   11  A    between atoms: _27  and  _28
REMARK   12  A    between atoms: _29  and  _30
REMARK   13  A    between atoms: _31  and  _33
REMARK   14  A    between atoms: _33  and  _34
REMARK   15  A    between atoms: _33  and  _35
REMARK   16  A    between atoms: _35  and  _36
REMARK   17  A    between atoms: _35  and  _37
REMARK   18  A    between atoms: _38  and  _40
REMARK                            x       y       z     vdW  Elec       q    Type
REMARK                         _______ _______ _______ _____ _____    ______ ____
ROOT
ATOM      1  C   UNL     1       1.923   0.551  24.093  0.00  0.00    +0.163 C 
ENDROOT
BRANCH   1   2
ATOM      2  O   UNL     1       2.986   1.083  23.285  0.00  0.00    -0.388 OA
ATOM      3  H   UNL     1       2.622   1.688  22.634  0.00  0.00    +0.210 HD
ENDBRANCH   1   2
BRANCH   1   4
ATOM      4  C   UNL     1       0.552   0.842  23.458  0.00  0.00    +0.175 C 
BRANCH   4   5
ATOM      5  C   UNL     1       0.433   2.297  22.981  0.00  0.00    +0.176 C 
ATOM      6  O   UNL     1       1.248   2.443  21.785  0.00  0.00    -0.332 OA
ATOM      7  C   UNL     1       1.174   3.749  21.123  0.00  0.00    +0.277 C 
ATOM      8  C   UNL     1       1.506   4.882  22.124  0.00  0.00    +0.110 C 
ATOM      9  C   UNL     1       0.687   4.751  23.425  0.00  0.00    +0.143 C 
ATOM     10  C   UNL     1       0.834   3.353  24.027  0.00  0.00    +0.133 C 
BRANCH  10  11
ATOM     11  N   UNL     1      -0.019   3.213  25.218  0.00  0.00    -0.308 N 
ATOM     12  H   UNL     1      -1.020   3.179  25.080  0.00  0.00    +0.149 HD
ATOM     13  C   UNL     1       0.442   3.128  26.469  0.00  0.00    +0.210 C 
ATOM     14  C   UNL     1       1.970   3.210  26.647  0.00  0.00    +0.109 C 
ATOM     15  O   UNL     1      -0.295   2.996  27.446  0.00  0.00    -0.276 OA
ENDBRANCH  10  11
BRANCH   7  16
ATOM     16  C   UNL     1      -0.230   3.981  20.528  0.00  0.00    +0.414 C 
ATOM     17  O   UNL     1      -1.018   3.043  20.412  0.00  0.00    -0.240 OA
ATOM     18  O   UNL     1      -0.575   5.106  20.164  0.00  0.00    -0.240 OA
ENDBRANCH   7  16
BRANCH   7  19
ATOM     19  O   UNL     1       2.164   3.771  20.062  0.00  0.00    -0.343 OA
ATOM     20  C   UNL     1       2.032   2.713  19.079  0.00  0.00    +0.198 C 
ENDBRANCH   7  19
BRANCH   9  21
ATOM     21  O   UNL     1       1.131   5.722  24.374  0.00  0.00    -0.390 OA
ATOM     22  H   UNL     1       1.127   6.592  23.969  0.00  0.00    +0.210 HD
ENDBRANCH   9  21
ENDBRANCH   4   5
BRANCH   4  23
ATOM     23  O   UNL     1      -0.502   0.539  24.393  0.00  0.00    -0.387 OA
ATOM     24  H   UNL     1      -0.723   1.328  24.894  0.00  0.00    +0.210 HD
ENDBRANCH   4  23
ENDBRANCH   1   4
BRANCH   1  25
ATOM     25  C   UNL     1       2.098  -0.955  24.259  0.00  0.00    +0.141 C 
BRANCH  25  28
ATOM     26  C   UNL     1       3.669  -2.711  23.517  0.00  0.00    +0.401 C 
ATOM     27  O   UNL     1       2.918  -3.642  23.817  0.00  0.00    -0.226 OA
ATOM     28  N   UNL     1       3.369  -1.424  23.695  0.00  0.00    -0.279 N 
ATOM     29  H   UNL     1       4.055  -0.733  23.426  0.00  0.00    +0.152 HD
BRANCH  26  30
ATOM     30  O   UNL     1       4.947  -3.006  22.946  0.00  0.00    -0.444 OA
BRANCH  30  31
ATOM     31  C   UNL     1       5.563  -4.069  23.678  0.00  0.00    +0.292 C 
BRANCH  31  33
ATOM     32  N   UNL     1       7.312  -2.440  24.333  0.00  0.00    -0.131 NA
ATOM     33  C   UNL     1       6.541  -3.529  24.643  0.00  0.00    +0.120 A 
ATOM     34  C   UNL     1       6.824  -3.928  25.930  0.00  0.00    +0.137 A 
ATOM     35  N   UNL     1       7.732  -3.007  26.369  0.00  0.00    -0.247 N 
ATOM     36  N   UNL     1       8.037  -2.126  25.398  0.00  0.00    -0.065 NA
BRANCH  35  37
ATOM     37  C   UNL     1       8.142  -2.759  27.739  0.00  0.00    +0.180 C 
BRANCH  37  38
ATOM     38  C   UNL     1       7.047  -2.175  28.594  0.00  0.00    -0.025 A 
ATOM     39  C   UNL     1       7.236  -2.011  29.974  0.00  0.00    +0.005 A 
ATOM     40  C   UNL     1       6.259  -1.395  30.760  0.00  0.00    +0.002 A 
ATOM     41  C   UNL     1       5.071  -0.953  30.179  0.00  0.00    +0.019 A 
ATOM     42  C   UNL     1       4.851  -1.141  28.811  0.00  0.00    +0.052 A 
ATOM     43  C   UNL     1       5.837  -1.749  28.022  0.00  0.00    +0.024 A 
BRANCH  42  44
ATOM     44  C   UNL     1       3.623  -0.702  28.214  0.00  0.00    +0.099 C 
ATOM     45  N   UNL     1       2.625  -0.351  27.737  0.00  0.00    -0.191 NA
ENDBRANCH  42  44
ENDBRANCH  37  38
ENDBRANCH  35  37
ENDBRANCH  31  33
ENDBRANCH  30  31
ENDBRANCH  26  30
ENDBRANCH  25  28
ENDBRANCH   1  25
TORSDOF 16
