REMARK VINA RESULT:    -6.089      3.241      9.459
REMARK INTER + INTRA:         -14.412
REMARK INTER:                 -12.278
REMARK INTRA:                  -2.134
REMARK UNBOUND:                -2.450
REMARK  Name = lig_assembled_10.pdb
REMARK  21 active torsions:
REMARK  status: ('A' for Active; 'I' for Inactive)
REMARK    1  A    between atoms: _2  and  _9
REMARK    2  A    between atoms: _4  and  _20
REMARK    3  A    between atoms: _5  and  _9
REMARK    4  A    between atoms: _5  and  _12
REMARK    5  A    between atoms: _6  and  _7
REMARK    6  A    between atoms: _6  and  _20
REMARK    7  A    between atoms: _9  and  _10
REMARK    8  A    between atoms: _10  and  _11
REMARK    9  A    between atoms: _11  and  _14
REMARK   10  A    between atoms: _16  and  _36
REMARK   11  A    between atoms: _18  and  _24
REMARK   12  A    between atoms: _19  and  _23
REMARK   13  A    between atoms: _23  and  _24
REMARK   14  A    between atoms: _26  and  _27
REMARK   15  A    between atoms: _28  and  _29
REMARK   16  A    between atoms: _30  and  _32
REMARK   17  A    between atoms: _32  and  _33
REMARK   18  A    between atoms: _32  and  _34
REMARK   19  A    between atoms: _34  and  _35
REMARK   20  A    between atoms: _34  and  _36
REMARK   21  A    between atoms: _37  and  _39
REMARK                            x       y       z     vdW  Elec       q    Type
REMARK                         _______ _______ _______ _____ _____    ______ ____
ROOT
ATOM      1  C   UNL     1      17.075   1.851  26.028  0.00  0.00    +0.163 C 
ENDROOT
BRANCH   1   2
ATOM      2  O   UNL     1      16.104   2.603  26.776  0.00  0.00    -0.388 OA
ATOM      3  H   UNL     1      15.220   2.344  26.504  0.00  0.00    +0.210 HD
ENDBRANCH   1   2
BRANCH   1   4
ATOM      4  C   UNL     1      16.548   1.518  24.622  0.00  0.00    +0.175 C 
BRANCH   4   5
ATOM      5  C   UNL     1      17.625   0.868  23.741  0.00  0.00    +0.176 C 
ATOM      6  O   UNL     1      17.602   1.530  22.446  0.00  0.00    -0.332 OA
ATOM      7  C   UNL     1      18.641   1.111  21.501  0.00  0.00    +0.277 C 
ATOM      8  C   UNL     1      18.605  -0.425  21.304  0.00  0.00    +0.110 C 
ATOM      9  C   UNL     1      18.596  -1.172  22.654  0.00  0.00    +0.143 C 
ATOM     10  C   UNL     1      17.478  -0.654  23.560  0.00  0.00    +0.133 C 
BRANCH  10  11
ATOM     11  N   UNL     1      17.534  -1.312  24.875  0.00  0.00    -0.308 N 
ATOM     12  H   UNL     1      18.308  -1.085  25.484  0.00  0.00    +0.149 HD
ATOM     13  C   UNL     1      16.629  -2.190  25.316  0.00  0.00    +0.210 C 
ATOM     14  C   UNL     1      15.476  -2.535  24.355  0.00  0.00    +0.109 C 
ATOM     15  O   UNL     1      16.693  -2.715  26.429  0.00  0.00    -0.276 OA
ENDBRANCH  10  11
BRANCH   7  16
ATOM     16  C   UNL     1      20.038   1.534  22.001  0.00  0.00    +0.414 C 
ATOM     17  O   UNL     1      20.151   2.396  22.871  0.00  0.00    -0.240 OA
ATOM     18  O   UNL     1      21.052   1.013  21.534  0.00  0.00    -0.240 OA
ENDBRANCH   7  16
BRANCH   7  19
ATOM     19  O   UNL     1      18.368   1.742  20.224  0.00  0.00    -0.343 OA
ATOM     20  C   UNL     1      16.968   1.779  19.846  0.00  0.00    +0.198 C 
ENDBRANCH   7  19
BRANCH   9  21
ATOM     21  O   UNL     1      18.410  -2.570  22.430  0.00  0.00    -0.390 OA
ATOM     22  H   UNL     1      19.068  -2.885  21.805  0.00  0.00    +0.210 HD
ENDBRANCH   9  21
ENDBRANCH   4   5
BRANCH   4  23
ATOM     23  O   UNL     1      16.038   2.707  23.988  0.00  0.00    -0.387 OA
ATOM     24  H   UNL     1      15.422   2.461  23.293  0.00  0.00    +0.210 HD
ENDBRANCH   4  23
ENDBRANCH   1   4
BRANCH   1  25
ATOM     25  C   UNL     1      18.372   2.645  25.912  0.00  0.00    +0.141 C 
BRANCH  25  28
ATOM     26  C   UNL     1      19.098   4.904  25.224  0.00  0.00    +0.401 C 
ATOM     27  O   UNL     1      20.300   4.632  25.265  0.00  0.00    -0.226 OA
ATOM     28  N   UNL     1      18.128   4.037  25.517  0.00  0.00    -0.279 N 
ATOM     29  H   UNL     1      17.171   4.357  25.464  0.00  0.00    +0.152 HD
BRANCH  26  30
ATOM     30  O   UNL     1      18.697   6.224  24.847  0.00  0.00    -0.444 OA
BRANCH  30  31
ATOM     31  C   UNL     1      19.837   7.087  24.842  0.00  0.00    +0.292 C 
BRANCH  31  33
ATOM     32  N   UNL     1      21.128   8.251  26.606  0.00  0.00    -0.131 NA
ATOM     33  C   UNL     1      19.924   7.825  26.116  0.00  0.00    +0.120 A 
ATOM     34  C   UNL     1      18.924   8.208  26.982  0.00  0.00    +0.138 A 
ATOM     35  N   UNL     1      19.574   8.900  27.957  0.00  0.00    -0.237 N 
ATOM     36  N   UNL     1      20.905   8.902  27.738  0.00  0.00    -0.065 NA
BRANCH  35  37
ATOM     37  C   UNL     1      19.069   9.598  29.129  0.00  0.00    +0.227 C 
BRANCH  37  38
ATOM     38  C   UNL     1      19.531  11.034  29.254  0.00  0.00    +0.330 C 
ATOM     39  O   UNL     1      19.729  11.555  30.346  0.00  0.00    -0.249 OA
BRANCH  38  40
ATOM     40  O   UNL     1      19.761  11.714  28.111  0.00  0.00    -0.479 OA
ATOM     41  H   UNL     1      20.632  11.552  27.664  0.00  0.00    +0.295 HD
ENDBRANCH  38  40
ENDBRANCH  37  38
BRANCH  37  42
ATOM     42  C   UNL     1      19.226   8.819  30.442  0.00  0.00    +0.158 C 
BRANCH  42  43
ATOM     43  C   UNL     1      17.904   8.572  31.114  0.00  0.00    +0.307 C 
ATOM     44  O   UNL     1      17.128   9.463  31.437  0.00  0.00    -0.251 OA
BRANCH  43  45
ATOM     45  O   UNL     1      17.608   7.266  31.259  0.00  0.00    -0.481 OA
ATOM     46  H   UNL     1      17.989   6.675  30.581  0.00  0.00    +0.295 HD
ENDBRANCH  43  45
ENDBRANCH  42  43
ENDBRANCH  37  42
ENDBRANCH  35  37
ENDBRANCH  31  33
ENDBRANCH  30  31
ENDBRANCH  26  30
ENDBRANCH  25  28
ENDBRANCH   1  25
TORSDOF 19
