REMARK VINA RESULT:    -6.458      1.450      3.570
REMARK INTER + INTRA:         -15.134
REMARK INTER:                 -13.263
REMARK INTRA:                  -1.871
REMARK UNBOUND:                -3.014
REMARK  Name = lig_assembled_75.pdb
REMARK  19 active torsions:
REMARK  status: ('A' for Active; 'I' for Inactive)
REMARK    1  A    between atoms: _2  and  _9
REMARK    2  A    between atoms: _4  and  _23
REMARK    3  A    between atoms: _6  and  _7
REMARK    4  A    between atoms: _6  and  _23
REMARK    5  A    between atoms: _11  and  _12
REMARK    6  A    between atoms: _13  and  _14
REMARK    7  A    between atoms: _14  and  _17
REMARK    8  A    between atoms: _19  and  _39
REMARK    9  A    between atoms: _21  and  _27
REMARK   10  A    between atoms: _22  and  _26
REMARK   11  A    between atoms: _26  and  _27
REMARK   12  A    between atoms: _29  and  _30
REMARK   13  A    between atoms: _31  and  _32
REMARK   14  A    between atoms: _33  and  _35
REMARK   15  A    between atoms: _35  and  _36
REMARK   16  A    between atoms: _35  and  _37
REMARK   17  A    between atoms: _37  and  _38
REMARK   18  A    between atoms: _37  and  _39
REMARK   19  A    between atoms: _40  and  _42
REMARK                            x       y       z     vdW  Elec       q    Type
REMARK                         _______ _______ _______ _____ _____    ______ ____
ROOT
ATOM      1  C   UNL     1       1.784   3.624  32.804  0.00  0.00    +0.141 C 
ENDROOT
BRANCH   1   4
ATOM      2  C   UNL     1       0.716   3.600  30.576  0.00  0.00    +0.401 C 
ATOM      3  O   UNL     1      -0.419   3.408  31.018  0.00  0.00    -0.226 OA
ATOM      4  N   UNL     1       1.805   3.708  31.339  0.00  0.00    -0.279 N 
ATOM      5  H   UNL     1       2.694   3.855  30.882  0.00  0.00    +0.152 HD
BRANCH   2   6
ATOM      6  O   UNL     1       0.901   3.714  29.163  0.00  0.00    -0.444 OA
BRANCH   6   7
ATOM      7  C   UNL     1       1.827   2.718  28.720  0.00  0.00    +0.292 C 
BRANCH   7   9
ATOM      8  N   UNL     1       1.828   1.400  26.628  0.00  0.00    -0.131 NA
ATOM      9  C   UNL     1       1.807   2.615  27.249  0.00  0.00    +0.121 A 
ATOM     10  C   UNL     1       1.770   3.607  26.298  0.00  0.00    +0.143 A 
ATOM     11  N   UNL     1       1.771   2.946  25.092  0.00  0.00    -0.220 N 
ATOM     12  N   UNL     1       1.808   1.608  25.318  0.00  0.00    -0.060 NA
BRANCH  11  13
ATOM     13  C   UNL     1       1.768   3.484  23.780  0.00  0.00    +0.068 A 
ATOM     14  C   UNL     1       1.825   2.612  22.678  0.00  0.00    +0.035 A 
ATOM     15  C   UNL     1       1.891   3.112  21.370  0.00  0.00    -0.023 A 
ATOM     16  C   UNL     1       1.834   4.498  21.176  0.00  0.00    +0.008 A 
ATOM     17  C   UNL     1       1.755   5.368  22.265  0.00  0.00    +0.003 A 
ATOM     18  C   UNL     1       1.731   4.866  23.566  0.00  0.00    +0.028 A 
BRANCH  15  19
ATOM     19  C   UNL     1       1.997   2.236  20.193  0.00  0.00    +0.015 C 
ATOM     20  C   UNL     1       2.309   2.673  18.962  0.00  0.00    +0.092 C 
BRANCH  20  21
ATOM     21  C   UNL     1       2.338   1.723  17.835  0.00  0.00    +0.330 C 
ATOM     22  O   UNL     1       1.404   1.019  17.495  0.00  0.00    -0.246 OA
BRANCH  21  23
ATOM     23  O   UNL     1       3.529   1.727  17.203  0.00  0.00    -0.478 OA
ATOM     24  H   UNL     1       3.508   1.984  16.264  0.00  0.00    +0.295 HD
ENDBRANCH  21  23
ENDBRANCH  20  21
ENDBRANCH  15  19
ENDBRANCH  11  13
ENDBRANCH   7   9
ENDBRANCH   6   7
ENDBRANCH   2   6
ENDBRANCH   1   4
BRANCH   1  25
ATOM     25  C   UNL     1       3.036   2.946  33.353  0.00  0.00    +0.163 C 
BRANCH  25  26
ATOM     26  O   UNL     1       3.595   2.070  32.361  0.00  0.00    -0.388 OA
ATOM     27  H   UNL     1       3.614   1.172  32.700  0.00  0.00    +0.210 HD
ENDBRANCH  25  26
BRANCH  25  28
ATOM     28  C   UNL     1       4.055   4.017  33.779  0.00  0.00    +0.175 C 
BRANCH  28  29
ATOM     29  C   UNL     1       5.485   3.460  33.843  0.00  0.00    +0.176 C 
ATOM     30  O   UNL     1       5.413   2.101  34.356  0.00  0.00    -0.332 OA
ATOM     31  C   UNL     1       6.682   1.368  34.388  0.00  0.00    +0.277 C 
ATOM     32  C   UNL     1       7.750   2.168  35.173  0.00  0.00    +0.110 C 
ATOM     33  C   UNL     1       7.841   3.629  34.684  0.00  0.00    +0.143 C 
ATOM     34  C   UNL     1       6.464   4.295  34.688  0.00  0.00    +0.133 C 
BRANCH  34  35
ATOM     35  N   UNL     1       6.549   5.658  34.139  0.00  0.00    -0.308 N 
ATOM     36  H   UNL     1       6.720   5.757  33.148  0.00  0.00    +0.149 HD
ATOM     37  C   UNL     1       6.416   6.772  34.864  0.00  0.00    +0.210 C 
ATOM     38  C   UNL     1       6.183   6.587  36.375  0.00  0.00    +0.109 C 
ATOM     39  O   UNL     1       6.478   7.900  34.374  0.00  0.00    -0.276 OA
ENDBRANCH  34  35
BRANCH  31  40
ATOM     40  C   UNL     1       7.192   1.094  32.958  0.00  0.00    +0.414 C 
ATOM     41  O   UNL     1       8.391   1.188  32.698  0.00  0.00    -0.240 OA
ATOM     42  O   UNL     1       6.405   0.779  32.064  0.00  0.00    -0.240 OA
ENDBRANCH  31  40
BRANCH  31  43
ATOM     43  O   UNL     1       6.457   0.110  35.075  0.00  0.00    -0.343 OA
ATOM     44  C   UNL     1       7.540  -0.848  34.970  0.00  0.00    +0.198 C 
ENDBRANCH  31  43
BRANCH  33  45
ATOM     45  O   UNL     1       8.723   4.367  35.530  0.00  0.00    -0.390 OA
ATOM     46  H   UNL     1       9.430   4.746  35.004  0.00  0.00    +0.210 HD
ENDBRANCH  33  45
ENDBRANCH  28  29
BRANCH  28  47
ATOM     47  O   UNL     1       3.683   4.577  35.054  0.00  0.00    -0.387 OA
ATOM     48  H   UNL     1       4.427   4.522  35.658  0.00  0.00    +0.210 HD
ENDBRANCH  28  47
ENDBRANCH  25  28
ENDBRANCH   1  25
TORSDOF 17
