REMARK VINA RESULT:    -5.986      7.645     11.951
REMARK INTER + INTRA:         -15.030
REMARK INTER:                 -11.435
REMARK INTRA:                  -3.595
REMARK UNBOUND:                -3.269
REMARK  Name = lig_assembled_84.pdb
REMARK  21 active torsions:
REMARK  status: ('A' for Active; 'I' for Inactive)
REMARK    1  A    between atoms: _2  and  _11
REMARK    2  A    between atoms: _3  and  _14
REMARK    3  A    between atoms: _4  and  _17
REMARK    4  A    between atoms: _6  and  _28
REMARK    5  A    between atoms: _8  and  _9
REMARK    6  A    between atoms: _8  and  _28
REMARK    7  A    between atoms: _11  and  _12
REMARK    8  A    between atoms: _12  and  _13
REMARK    9  A    between atoms: _12  and  _14
REMARK   10  A    between atoms: _24  and  _44
REMARK   11  A    between atoms: _26  and  _32
REMARK   12  A    between atoms: _27  and  _31
REMARK   13  A    between atoms: _31  and  _32
REMARK   14  A    between atoms: _34  and  _35
REMARK   15  A    between atoms: _36  and  _37
REMARK   16  A    between atoms: _38  and  _40
REMARK   17  A    between atoms: _40  and  _41
REMARK   18  A    between atoms: _40  and  _42
REMARK   19  A    between atoms: _42  and  _43
REMARK   20  A    between atoms: _42  and  _44
REMARK   21  A    between atoms: _45  and  _47
REMARK                            x       y       z     vdW  Elec       q    Type
REMARK                         _______ _______ _______ _____ _____    ______ ____
ROOT
ATOM      1  C   UNL     1       0.644  -2.175  25.912  0.00  0.00    +0.401 C 
ATOM      2  O   UNL     1      -0.357  -1.670  26.425  0.00  0.00    -0.226 OA
ATOM      3  N   UNL     1       1.699  -1.476  25.491  0.00  0.00    -0.279 N 
ATOM      4  H   UNL     1       2.478  -1.981  25.092  0.00  0.00    +0.152 HD
ENDROOT
BRANCH   1   5
ATOM      5  O   UNL     1       0.702  -3.594  25.752  0.00  0.00    -0.444 OA
BRANCH   5   6
ATOM      6  C   UNL     1       1.829  -4.110  26.464  0.00  0.00    +0.292 C 
BRANCH   6   8
ATOM      7  N   UNL     1       3.696  -5.703  26.113  0.00  0.00    -0.131 NA
ATOM      8  C   UNL     1       2.591  -5.055  25.625  0.00  0.00    +0.120 A 
ATOM      9  C   UNL     1       2.401  -5.417  24.310  0.00  0.00    +0.137 A 
ATOM     10  N   UNL     1       3.459  -6.232  24.039  0.00  0.00    -0.251 N 
ATOM     11  N   UNL     1       4.222  -6.421  25.129  0.00  0.00    -0.065 NA
BRANCH  10  12
ATOM     12  C   UNL     1       3.873  -6.747  22.748  0.00  0.00    +0.149 C 
BRANCH  12  13
ATOM     13  C   UNL     1       5.265  -6.274  22.294  0.00  0.00    +0.021 C 
ATOM     14  C   UNL     1       5.858  -7.220  21.239  0.00  0.00    +0.010 C 
BRANCH  13  15
ATOM     15  C   UNL     1       5.208  -4.843  21.706  0.00  0.00    +0.089 C 
BRANCH  15  16
ATOM     16  N   UNL     1       5.785  -3.786  22.547  0.00  0.00    -0.299 NA
ATOM     17  C   UNL     1       6.760  -4.373  23.504  0.00  0.00    +0.103 C 
ATOM     18  C   UNL     1       7.455  -3.286  24.350  0.00  0.00    +0.120 C 
ATOM     19  N   UNL     1       6.447  -2.512  25.084  0.00  0.00    -0.327 N 
ATOM     20  C   UNL     1       5.395  -1.931  24.236  0.00  0.00    +0.120 C 
ATOM     21  C   UNL     1       4.772  -3.031  23.327  0.00  0.00    +0.103 C 
BRANCH  19  22
ATOM     22  C   UNL     1       6.514  -2.304  26.442  0.00  0.00    +0.030 A 
ATOM     23  C   UNL     1       5.438  -1.739  27.150  0.00  0.00    +0.024 A 
ATOM     24  C   UNL     1       5.498  -1.497  28.527  0.00  0.00    +0.022 A 
ATOM     25  C   UNL     1       6.645  -1.825  29.230  0.00  0.00    +0.041 A 
ATOM     26 CL   UNL     1       6.728  -1.524  30.922  0.00  0.00    -0.084 Cl
ATOM     27  C   UNL     1       7.730  -2.388  28.569  0.00  0.00    +0.022 A 
ATOM     28  C   UNL     1       7.659  -2.620  27.188  0.00  0.00    +0.024 A 
ENDBRANCH  19  22
ENDBRANCH  15  16
ENDBRANCH  13  15
ENDBRANCH  12  13
ENDBRANCH  10  12
ENDBRANCH   6   8
ENDBRANCH   5   6
ENDBRANCH   1   5
BRANCH   3  29
ATOM     29  C   UNL     1       1.793  -0.013  25.575  0.00  0.00    +0.141 C 
BRANCH  29  30
ATOM     30  C   UNL     1       1.892   0.631  24.196  0.00  0.00    +0.163 C 
BRANCH  30  31
ATOM     31  O   UNL     1       2.550  -0.262  23.283  0.00  0.00    -0.388 OA
ATOM     32  H   UNL     1       3.387   0.120  23.007  0.00  0.00    +0.210 HD
ENDBRANCH  30  31
BRANCH  30  33
ATOM     33  C   UNL     1       0.483   0.991  23.694  0.00  0.00    +0.175 C 
BRANCH  33  34
ATOM     34  C   UNL     1       0.421   2.411  23.113  0.00  0.00    +0.176 C 
ATOM     35  O   UNL     1       1.212   2.429  21.893  0.00  0.00    -0.332 OA
ATOM     36  C   UNL     1       1.183   3.686  21.138  0.00  0.00    +0.277 C 
ATOM     37  C   UNL     1       1.594   4.872  22.045  0.00  0.00    +0.110 C 
ATOM     38  C   UNL     1       0.802   4.876  23.370  0.00  0.00    +0.143 C 
ATOM     39  C   UNL     1       0.897   3.520  24.070  0.00  0.00    +0.133 C 
BRANCH  39  40
ATOM     40  N   UNL     1       0.068   3.508  25.286  0.00  0.00    -0.308 N 
ATOM     41  H   UNL     1      -0.936   3.521  25.173  0.00  0.00    +0.149 HD
ATOM     42  C   UNL     1       0.556   3.483  26.529  0.00  0.00    +0.210 C 
ATOM     43  C   UNL     1       2.090   3.490  26.669  0.00  0.00    +0.109 C 
ATOM     44  O   UNL     1      -0.162   3.459  27.529  0.00  0.00    -0.276 OA
ENDBRANCH  39  40
BRANCH  36  45
ATOM     45  C   UNL     1      -0.223   3.943  20.557  0.00  0.00    +0.414 C 
ATOM     46  O   UNL     1      -0.534   5.066  20.162  0.00  0.00    -0.240 OA
ATOM     47  O   UNL     1      -1.045   3.029  20.484  0.00  0.00    -0.240 OA
ENDBRANCH  36  45
BRANCH  36  48
ATOM     48  O   UNL     1       2.146   3.582  20.058  0.00  0.00    -0.343 OA
ATOM     49  C   UNL     1       2.098   2.340  19.311  0.00  0.00    +0.198 C 
ENDBRANCH  36  48
BRANCH  38  50
ATOM     50  O   UNL     1       1.315   5.889  24.235  0.00  0.00    -0.390 OA
ATOM     51  H   UNL     1       1.395   5.541  25.126  0.00  0.00    +0.210 HD
ENDBRANCH  38  50
ENDBRANCH  33  34
BRANCH  33  52
ATOM     52  O   UNL     1      -0.475   0.849  24.762  0.00  0.00    -0.387 OA
ATOM     53  H   UNL     1      -0.094   0.321  25.467  0.00  0.00    +0.210 HD
ENDBRANCH  33  52
ENDBRANCH  30  33
ENDBRANCH  29  30
ENDBRANCH   3  29
TORSDOF 18
