REMARK VINA RESULT:    -6.356      1.966      3.021
REMARK INTER + INTRA:         -13.065
REMARK INTER:                 -11.719
REMARK INTRA:                  -1.346
REMARK UNBOUND:                -2.065
REMARK  Name = lig_assembled_49.pdb
REMARK  16 active torsions:
REMARK  status: ('A' for Active; 'I' for Inactive)
REMARK    1  A    between atoms: _2  and  _9
REMARK    2  A    between atoms: _4  and  _17
REMARK    3  A    between atoms: _6  and  _7
REMARK    4  A    between atoms: _6  and  _17
REMARK    5  A    between atoms: _13  and  _33
REMARK    6  A    between atoms: _15  and  _21
REMARK    7  A    between atoms: _16  and  _20
REMARK    8  A    between atoms: _20  and  _21
REMARK    9  A    between atoms: _23  and  _24
REMARK   10  A    between atoms: _25  and  _26
REMARK   11  A    between atoms: _27  and  _29
REMARK   12  A    between atoms: _29  and  _30
REMARK   13  A    between atoms: _29  and  _31
REMARK   14  A    between atoms: _31  and  _32
REMARK   15  A    between atoms: _31  and  _33
REMARK   16  A    between atoms: _34  and  _36
REMARK                            x       y       z     vdW  Elec       q    Type
REMARK                         _______ _______ _______ _____ _____    ______ ____
ROOT
ATOM      1  C   UNL     1       7.533   3.763  33.407  0.00  0.00    +0.175 C 
ENDROOT
BRANCH   1   2
ATOM      2  C   UNL     1       7.222   4.271  34.822  0.00  0.00    +0.176 C 
ATOM      3  O   UNL     1       7.320   5.722  34.808  0.00  0.00    -0.332 OA
ATOM      4  C   UNL     1       6.950   6.395  36.056  0.00  0.00    +0.277 C 
ATOM      5  C   UNL     1       7.769   5.827  37.241  0.00  0.00    +0.110 C 
ATOM      6  C   UNL     1       7.721   4.285  37.279  0.00  0.00    +0.143 C 
ATOM      7  C   UNL     1       8.121   3.690  35.929  0.00  0.00    +0.133 C 
BRANCH   7   8
ATOM      8  N   UNL     1       7.988   2.225  35.952  0.00  0.00    -0.308 N 
ATOM      9  H   UNL     1       7.104   1.836  36.250  0.00  0.00    +0.149 HD
ATOM     10  C   UNL     1       8.957   1.375  35.604  0.00  0.00    +0.210 C 
ATOM     11  C   UNL     1      10.300   1.998  35.178  0.00  0.00    +0.109 C 
ATOM     12  O   UNL     1       8.812   0.152  35.619  0.00  0.00    -0.276 OA
ENDBRANCH   7   8
BRANCH   4  13
ATOM     13  C   UNL     1       5.443   6.226  36.343  0.00  0.00    +0.414 C 
ATOM     14  O   UNL     1       5.028   6.234  37.501  0.00  0.00    -0.240 OA
ATOM     15  O   UNL     1       4.644   6.082  35.418  0.00  0.00    -0.240 OA
ENDBRANCH   4  13
BRANCH   6  16
ATOM     16  O   UNL     1       8.607   3.800  38.289  0.00  0.00    -0.390 OA
ATOM     17  H   UNL     1       9.195   4.507  38.565  0.00  0.00    +0.210 HD
ENDBRANCH   6  16
BRANCH   4  18
ATOM     18  O   UNL     1       7.265   7.805  35.917  0.00  0.00    -0.343 OA
ATOM     19  C   UNL     1       7.662   8.214  34.584  0.00  0.00    +0.198 C 
ENDBRANCH   4  18
ENDBRANCH   1   2
BRANCH   1  20
ATOM     20  O   UNL     1       7.895   4.865  32.552  0.00  0.00    -0.387 OA
ATOM     21  H   UNL     1       7.158   5.477  32.489  0.00  0.00    +0.210 HD
ENDBRANCH   1  20
BRANCH   1  22
ATOM     22  C   UNL     1       6.354   2.984  32.799  0.00  0.00    +0.163 C 
BRANCH  22  23
ATOM     23  O   UNL     1       6.339   3.109  31.368  0.00  0.00    -0.388 OA
ATOM     24  H   UNL     1       7.180   2.810  31.012  0.00  0.00    +0.210 HD
ENDBRANCH  22  23
BRANCH  22  25
ATOM     25  C   UNL     1       5.045   3.506  33.382  0.00  0.00    +0.141 C 
BRANCH  25  28
ATOM     26  C   UNL     1       2.734   3.856  32.580  0.00  0.00    +0.401 C 
ATOM     27  O   UNL     1       2.228   3.744  33.699  0.00  0.00    -0.226 OA
ATOM     28  N   UNL     1       4.041   3.752  32.339  0.00  0.00    -0.279 N 
ATOM     29  H   UNL     1       4.360   3.849  31.385  0.00  0.00    +0.152 HD
BRANCH  26  30
ATOM     30  O   UNL     1       1.885   4.107  31.456  0.00  0.00    -0.444 OA
BRANCH  30  31
ATOM     31  C   UNL     1       1.950   3.001  30.552  0.00  0.00    +0.292 C 
BRANCH  31  33
ATOM     32  N   UNL     1       0.128   3.979  29.195  0.00  0.00    -0.131 NA
ATOM     33  C   UNL     1       1.349   3.362  29.254  0.00  0.00    +0.120 A 
ATOM     34  C   UNL     1       1.821   3.174  27.975  0.00  0.00    +0.137 A 
ATOM     35  N   UNL     1       0.839   3.691  27.182  0.00  0.00    -0.248 N 
ATOM     36  N   UNL     1      -0.174   4.177  27.920  0.00  0.00    -0.065 NA
BRANCH  35  37
ATOM     37  C   UNL     1       0.798   3.733  25.741  0.00  0.00    +0.109 C 
ATOM     38  C   UNL     1      -0.083   4.850  25.178  0.00  0.00    +0.027 C 
ATOM     39  C   UNL     1       0.384   4.956  23.736  0.00  0.00    +0.002 C 
ATOM     40  C   UNL     1       1.895   4.783  23.819  0.00  0.00    +0.002 C 
ATOM     41  C   UNL     1       2.162   3.942  25.070  0.00  0.00    +0.027 C 
ENDBRANCH  35  37
ENDBRANCH  31  33
ENDBRANCH  30  31
ENDBRANCH  26  30
ENDBRANCH  25  28
ENDBRANCH  22  25
ENDBRANCH   1  22
TORSDOF 14
