REMARK VINA RESULT:    -6.781      3.907      5.759
REMARK INTER + INTRA:         -13.946
REMARK INTER:                 -11.779
REMARK INTRA:                  -2.167
REMARK UNBOUND:                -1.813
REMARK  Name = lig_assembled_41.pdb
REMARK  18 active torsions:
REMARK  status: ('A' for Active; 'I' for Inactive)
REMARK    1  A    between atoms: _2  and  _9
REMARK    2  A    between atoms: _4  and  _21
REMARK    3  A    between atoms: _6  and  _7
REMARK    4  A    between atoms: _6  and  _21
REMARK    5  A    between atoms: _10  and  _11
REMARK    6  A    between atoms: _11  and  _12
REMARK    7  A    between atoms: _17  and  _37
REMARK    8  A    between atoms: _19  and  _25
REMARK    9  A    between atoms: _20  and  _24
REMARK   10  A    between atoms: _24  and  _25
REMARK   11  A    between atoms: _27  and  _28
REMARK   12  A    between atoms: _29  and  _30
REMARK   13  A    between atoms: _31  and  _33
REMARK   14  A    between atoms: _33  and  _34
REMARK   15  A    between atoms: _33  and  _35
REMARK   16  A    between atoms: _35  and  _36
REMARK   17  A    between atoms: _35  and  _37
REMARK   18  A    between atoms: _38  and  _40
REMARK                            x       y       z     vdW  Elec       q    Type
REMARK                         _______ _______ _______ _____ _____    ______ ____
ROOT
ATOM      1  C   UNL     1       7.673   2.387  34.110  0.00  0.00    +0.163 C 
ENDROOT
BRANCH   1   2
ATOM      2  O   UNL     1       8.341   2.589  35.366  0.00  0.00    -0.388 OA
ATOM      3  H   UNL     1       7.954   2.015  36.031  0.00  0.00    +0.210 HD
ENDBRANCH   1   2
BRANCH   1   4
ATOM      4  C   UNL     1       8.351   1.264  33.332  0.00  0.00    +0.141 C 
BRANCH   4   7
ATOM      5  C   UNL     1       6.467  -0.083  32.471  0.00  0.00    +0.401 C 
ATOM      6  O   UNL     1       6.075   0.791  31.694  0.00  0.00    -0.226 OA
ATOM      7  N   UNL     1       7.520   0.055  33.278  0.00  0.00    -0.279 N 
ATOM      8  H   UNL     1       7.758  -0.715  33.887  0.00  0.00    +0.152 HD
BRANCH   5   9
ATOM      9  O   UNL     1       5.765  -1.327  32.529  0.00  0.00    -0.444 OA
BRANCH   9  10
ATOM     10  C   UNL     1       4.641  -1.283  31.646  0.00  0.00    +0.292 C 
BRANCH  10  12
ATOM     11  N   UNL     1       5.097  -3.221  30.191  0.00  0.00    -0.131 NA
ATOM     12  C   UNL     1       4.990  -1.872  30.341  0.00  0.00    +0.121 A 
ATOM     13  C   UNL     1       5.234  -1.264  29.128  0.00  0.00    +0.143 A 
ATOM     14  N   UNL     1       5.596  -2.286  28.280  0.00  0.00    -0.219 N 
ATOM     15  N   UNL     1       5.411  -3.470  28.928  0.00  0.00    -0.060 NA
BRANCH  14  16
ATOM     16  C   UNL     1       5.986  -2.265  26.911  0.00  0.00    +0.077 A 
ATOM     17  C   UNL     1       5.092  -2.215  25.821  0.00  0.00    +0.043 A 
ATOM     18  C   UNL     1       5.616  -2.251  24.511  0.00  0.00    +0.013 A 
ATOM     19  C   UNL     1       6.991  -2.342  24.281  0.00  0.00    +0.001 A 
ATOM     20  C   UNL     1       7.871  -2.367  25.353  0.00  0.00    +0.002 A 
ATOM     21  C   UNL     1       7.375  -2.318  26.655  0.00  0.00    +0.028 A 
BRANCH  17  22
ATOM     22  C   UNL     1       3.634  -1.914  25.952  0.00  0.00    +0.162 C 
ATOM     23  O   UNL     1       2.849  -2.830  26.185  0.00  0.00    -0.292 OA
ATOM     24  C   UNL     1       3.132  -0.498  25.804  0.00  0.00    +0.091 C 
ENDBRANCH  17  22
ENDBRANCH  14  16
ENDBRANCH  10  12
ENDBRANCH   9  10
ENDBRANCH   5   9
ENDBRANCH   4   7
ENDBRANCH   1   4
BRANCH   1  25
ATOM     25  C   UNL     1       7.683   3.675  33.268  0.00  0.00    +0.175 C 
BRANCH  25  26
ATOM     26  C   UNL     1       6.927   4.821  33.955  0.00  0.00    +0.176 C 
ATOM     27  O   UNL     1       7.776   5.345  35.013  0.00  0.00    -0.332 OA
ATOM     28  C   UNL     1       7.258   6.523  35.716  0.00  0.00    +0.277 C 
ATOM     29  C   UNL     1       5.841   6.242  36.272  0.00  0.00    +0.110 C 
ATOM     30  C   UNL     1       4.911   5.653  35.191  0.00  0.00    +0.143 C 
ATOM     31  C   UNL     1       5.549   4.434  34.523  0.00  0.00    +0.133 C 
BRANCH  31  32
ATOM     32  N   UNL     1       4.692   3.935  33.436  0.00  0.00    -0.308 N 
ATOM     33  H   UNL     1       4.621   4.493  32.597  0.00  0.00    +0.149 HD
ATOM     34  C   UNL     1       4.001   2.792  33.487  0.00  0.00    +0.210 C 
ATOM     35  C   UNL     1       4.110   1.978  34.789  0.00  0.00    +0.109 C 
ATOM     36  O   UNL     1       3.303   2.392  32.555  0.00  0.00    -0.276 OA
ENDBRANCH  31  32
BRANCH  28  37
ATOM     37  C   UNL     1       7.209   7.744  34.773  0.00  0.00    +0.414 C 
ATOM     38  O   UNL     1       6.127   8.187  34.388  0.00  0.00    -0.240 OA
ATOM     39  O   UNL     1       8.249   8.286  34.399  0.00  0.00    -0.240 OA
ENDBRANCH  28  37
BRANCH  30  40
ATOM     40  O   UNL     1       3.668   5.269  35.781  0.00  0.00    -0.390 OA
ATOM     41  H   UNL     1       3.832   4.660  36.506  0.00  0.00    +0.210 HD
ENDBRANCH  30  40
BRANCH  28  42
ATOM     42  O   UNL     1       8.141   6.804  36.832  0.00  0.00    -0.343 OA
ATOM     43  C   UNL     1       7.480   7.290  38.028  0.00  0.00    +0.198 C 
ENDBRANCH  28  42
ENDBRANCH  25  26
BRANCH  25  44
ATOM     44  O   UNL     1       7.122   3.420  31.964  0.00  0.00    -0.387 OA
ATOM     45  H   UNL     1       7.668   3.837  31.294  0.00  0.00    +0.210 HD
ENDBRANCH  25  44
ENDBRANCH   1  25
TORSDOF 15
