REMARK VINA RESULT:    -5.862      9.647     14.296
REMARK INTER + INTRA:         -12.558
REMARK INTER:                 -10.735
REMARK INTRA:                  -1.823
REMARK UNBOUND:                -2.413
REMARK  Name = lig_assembled_8.pdb
REMARK  16 active torsions:
REMARK  status: ('A' for Active; 'I' for Inactive)
REMARK    1  A    between atoms: _2  and  _9
REMARK    2  A    between atoms: _4  and  _18
REMARK    3  A    between atoms: _6  and  _7
REMARK    4  A    between atoms: _6  and  _18
REMARK    5  A    between atoms: _14  and  _34
REMARK    6  A    between atoms: _16  and  _22
REMARK    7  A    between atoms: _17  and  _21
REMARK    8  A    between atoms: _21  and  _22
REMARK    9  A    between atoms: _24  and  _25
REMARK   10  A    between atoms: _26  and  _27
REMARK   11  A    between atoms: _28  and  _30
REMARK   12  A    between atoms: _30  and  _31
REMARK   13  A    between atoms: _30  and  _32
REMARK   14  A    between atoms: _32  and  _33
REMARK   15  A    between atoms: _32  and  _34
REMARK   16  A    between atoms: _35  and  _37
REMARK                            x       y       z     vdW  Elec       q    Type
REMARK                         _______ _______ _______ _____ _____    ______ ____
ROOT
ATOM      1  C   UNL     1       0.547   4.115  19.652  0.00  0.00    +0.163 C 
ENDROOT
BRANCH   1   2
ATOM      2  O   UNL     1      -0.334   4.765  18.722  0.00  0.00    -0.388 OA
ATOM      3  H   UNL     1      -0.524   4.171  17.991  0.00  0.00    +0.210 HD
ENDBRANCH   1   2
BRANCH   1   4
ATOM      4  C   UNL     1       1.814   3.656  18.937  0.00  0.00    +0.141 C 
BRANCH   4   7
ATOM      5  C   UNL     1       2.504   1.681  17.624  0.00  0.00    +0.401 C 
ATOM      6  O   UNL     1       3.694   1.773  17.933  0.00  0.00    -0.226 OA
ATOM      7  N   UNL     1       1.557   2.521  18.042  0.00  0.00    -0.279 N 
ATOM      8  H   UNL     1       0.610   2.368  17.726  0.00  0.00    +0.152 HD
BRANCH   5   9
ATOM      9  O   UNL     1       2.092   0.617  16.761  0.00  0.00    -0.444 OA
BRANCH   9  10
ATOM     10  C   UNL     1       2.411   0.950  15.407  0.00  0.00    +0.292 C 
BRANCH  10  12
ATOM     11  N   UNL     1       3.873  -1.031  15.237  0.00  0.00    -0.131 NA
ATOM     12  C   UNL     1       3.667   0.292  15.001  0.00  0.00    +0.121 A 
ATOM     13  C   UNL     1       4.770   0.808  14.363  0.00  0.00    +0.143 A 
ATOM     14  N   UNL     1       5.639  -0.258  14.204  0.00  0.00    -0.219 N 
ATOM     15  N   UNL     1       5.067  -1.350  14.758  0.00  0.00    -0.060 NA
BRANCH  14  16
ATOM     16  C   UNL     1       6.916  -0.267  13.562  0.00  0.00    +0.081 A 
ATOM     17  C   UNL     1       7.950   0.511  14.129  0.00  0.00    +0.029 A 
ATOM     18  C   UNL     1       9.220   0.574  13.550  0.00  0.00    +0.002 A 
ATOM     19  C   UNL     1       9.490  -0.138  12.392  0.00  0.00    +0.001 A 
ATOM     20  C   UNL     1       8.490  -0.918  11.819  0.00  0.00    +0.017 A 
ATOM     21  C   UNL     1       7.205  -0.995  12.390  0.00  0.00    +0.043 A 
ATOM     22 BR   UNL     1       6.012  -2.128  11.430  0.00  0.00    -0.048 Br
ENDBRANCH  14  16
ENDBRANCH  10  12
ENDBRANCH   9  10
ENDBRANCH   5   9
ENDBRANCH   4   7
ENDBRANCH   1   4
BRANCH   1  23
ATOM     23  C   UNL     1      -0.141   2.904  20.306  0.00  0.00    +0.175 C 
BRANCH  23  24
ATOM     24  C   UNL     1      -1.229   3.327  21.304  0.00  0.00    +0.176 C 
ATOM     25  O   UNL     1      -2.295   3.973  20.556  0.00  0.00    -0.332 OA
ATOM     26  C   UNL     1      -3.477   4.353  21.336  0.00  0.00    +0.277 C 
ATOM     27  C   UNL     1      -3.069   5.239  22.539  0.00  0.00    +0.110 C 
ATOM     28  C   UNL     1      -1.916   4.608  23.347  0.00  0.00    +0.143 C 
ATOM     29  C   UNL     1      -0.741   4.249  22.437  0.00  0.00    +0.133 C 
BRANCH  29  30
ATOM     30  N   UNL     1       0.316   3.570  23.204  0.00  0.00    -0.308 N 
ATOM     31  H   UNL     1       0.113   2.652  23.575  0.00  0.00    +0.149 HD
ATOM     32  C   UNL     1       1.525   4.086  23.440  0.00  0.00    +0.210 C 
ATOM     33  C   UNL     1       1.794   5.496  22.882  0.00  0.00    +0.109 C 
ATOM     34  O   UNL     1       2.395   3.487  24.073  0.00  0.00    -0.276 OA
ENDBRANCH  29  30
BRANCH  26  35
ATOM     35  C   UNL     1      -4.220   3.101  21.847  0.00  0.00    +0.414 C 
ATOM     36  O   UNL     1      -4.113   2.030  21.251  0.00  0.00    -0.240 OA
ATOM     37  O   UNL     1      -4.927   3.162  22.854  0.00  0.00    -0.240 OA
ENDBRANCH  26  35
BRANCH  28  38
ATOM     38  O   UNL     1      -1.473   5.523  24.350  0.00  0.00    -0.390 OA
ATOM     39  H   UNL     1      -0.527   5.422  24.481  0.00  0.00    +0.210 HD
ENDBRANCH  28  38
BRANCH  26  40
ATOM     40  O   UNL     1      -4.353   5.125  20.475  0.00  0.00    -0.343 OA
ATOM     41  C   UNL     1      -4.374   4.705  19.088  0.00  0.00    +0.198 C 
ENDBRANCH  26  40
ENDBRANCH  23  24
BRANCH  23  42
ATOM     42  O   UNL     1       0.837   2.071  20.961  0.00  0.00    -0.387 OA
ATOM     43  H   UNL     1       0.848   1.205  20.548  0.00  0.00    +0.210 HD
ENDBRANCH  23  42
ENDBRANCH   1  23
TORSDOF 14
