REMARK VINA RESULT:    -6.569      9.172     13.969
REMARK INTER + INTRA:         -13.310
REMARK INTER:                 -11.119
REMARK INTRA:                  -2.191
REMARK UNBOUND:                -1.557
REMARK  Name = lig_assembled_28.pdb
REMARK  17 active torsions:
REMARK  status: ('A' for Active; 'I' for Inactive)
REMARK    1  A    between atoms: _2  and  _9
REMARK    2  A    between atoms: _4  and  _22
REMARK    3  A    between atoms: _6  and  _7
REMARK    4  A    between atoms: _6  and  _22
REMARK    5  A    between atoms: _9  and  _10
REMARK    6  A    between atoms: _18  and  _38
REMARK    7  A    between atoms: _20  and  _26
REMARK    8  A    between atoms: _21  and  _25
REMARK    9  A    between atoms: _25  and  _26
REMARK   10  A    between atoms: _28  and  _29
REMARK   11  A    between atoms: _30  and  _31
REMARK   12  A    between atoms: _32  and  _34
REMARK   13  A    between atoms: _34  and  _35
REMARK   14  A    between atoms: _34  and  _36
REMARK   15  A    between atoms: _36  and  _37
REMARK   16  A    between atoms: _36  and  _38
REMARK   17  A    between atoms: _39  and  _41
REMARK                            x       y       z     vdW  Elec       q    Type
REMARK                         _______ _______ _______ _____ _____    ______ ____
ROOT
ATOM      1  C   UNL     1      10.171   4.034  37.314  0.00  0.00    +0.163 C 
ENDROOT
BRANCH   1   2
ATOM      2  O   UNL     1      10.413   5.422  37.030  0.00  0.00    -0.388 OA
ATOM      3  H   UNL     1      10.574   5.894  37.851  0.00  0.00    +0.210 HD
ENDBRANCH   1   2
BRANCH   1   4
ATOM      4  C   UNL     1      11.487   3.263  37.309  0.00  0.00    +0.141 C 
BRANCH   4   7
ATOM      5  C   UNL     1      12.673   3.189  35.142  0.00  0.00    +0.401 C 
ATOM      6  O   UNL     1      12.153   2.129  34.787  0.00  0.00    -0.226 OA
ATOM      7  N   UNL     1      12.424   3.788  36.308  0.00  0.00    -0.279 N 
ATOM      8  H   UNL     1      12.908   4.650  36.514  0.00  0.00    +0.152 HD
BRANCH   5   9
ATOM      9  O   UNL     1      13.606   3.831  34.270  0.00  0.00    -0.444 OA
BRANCH   9  10
ATOM     10  C   UNL     1      14.871   3.949  34.927  0.00  0.00    +0.292 C 
BRANCH  10  12
ATOM     11  N   UNL     1      14.921   6.395  34.522  0.00  0.00    -0.131 NA
ATOM     12  C   UNL     1      15.558   5.183  34.500  0.00  0.00    +0.120 A 
ATOM     13  C   UNL     1      16.853   5.363  34.071  0.00  0.00    +0.137 A 
ATOM     14  N   UNL     1      16.976   6.717  33.940  0.00  0.00    -0.247 N 
ATOM     15  N   UNL     1      15.796   7.326  34.165  0.00  0.00    -0.065 NA
BRANCH  14  16
ATOM     16  C   UNL     1      18.155   7.539  33.703  0.00  0.00    +0.180 C 
BRANCH  16  17
ATOM     17  C   UNL     1      18.343   7.927  32.255  0.00  0.00    -0.022 A 
ATOM     18  C   UNL     1      17.726   9.084  31.747  0.00  0.00    +0.055 A 
ATOM     19  C   UNL     1      18.020   9.459  30.454  0.00  0.00    +0.167 A 
ATOM     20  O   UNL     1      17.555  10.576  29.828  0.00  0.00    -0.453 OA
ATOM     21  C   UNL     1      18.283  10.507  28.584  0.00  0.00    +0.466 C 
ATOM     22  O   UNL     1      19.042   9.288  28.431  0.00  0.00    -0.453 OA
ATOM     23  C   UNL     1      18.864   8.726  29.657  0.00  0.00    +0.166 A 
ATOM     24  C   UNL     1      19.460   7.568  30.108  0.00  0.00    +0.050 A 
ATOM     25  C   UNL     1      19.201   7.171  31.423  0.00  0.00    +0.009 A 
ENDBRANCH  16  17
ENDBRANCH  14  16
ENDBRANCH  10  12
ENDBRANCH   9  10
ENDBRANCH   5   9
ENDBRANCH   4   7
ENDBRANCH   1   4
BRANCH   1  26
ATOM     26  C   UNL     1       9.212   3.421  36.279  0.00  0.00    +0.175 C 
BRANCH  26  27
ATOM     27  C   UNL     1       8.291   4.475  35.648  0.00  0.00    +0.176 C 
ATOM     28  O   UNL     1       7.709   5.262  36.724  0.00  0.00    -0.332 OA
ATOM     29  C   UNL     1       6.877   6.393  36.304  0.00  0.00    +0.277 C 
ATOM     30  C   UNL     1       5.761   5.916  35.342  0.00  0.00    +0.110 C 
ATOM     31  C   UNL     1       6.328   5.049  34.198  0.00  0.00    +0.143 C 
ATOM     32  C   UNL     1       7.179   3.904  34.748  0.00  0.00    +0.133 C 
BRANCH  32  33
ATOM     33  N   UNL     1       7.784   3.137  33.648  0.00  0.00    -0.308 N 
ATOM     34  H   UNL     1       8.466   3.604  33.066  0.00  0.00    +0.149 HD
ATOM     35  C   UNL     1       7.491   1.864  33.367  0.00  0.00    +0.210 C 
ATOM     36  C   UNL     1       6.428   1.189  34.255  0.00  0.00    +0.109 C 
ATOM     37  O   UNL     1       8.024   1.242  32.448  0.00  0.00    -0.276 OA
ENDBRANCH  32  33
BRANCH  29  38
ATOM     38  C   UNL     1       7.732   7.472  35.607  0.00  0.00    +0.414 C 
ATOM     39  O   UNL     1       7.260   8.138  34.686  0.00  0.00    -0.240 OA
ATOM     40  O   UNL     1       8.892   7.676  35.965  0.00  0.00    -0.240 OA
ENDBRANCH  29  38
BRANCH  29  41
ATOM     41  O   UNL     1       6.251   6.954  37.487  0.00  0.00    -0.343 OA
ATOM     42  C   UNL     1       6.999   6.778  38.716  0.00  0.00    +0.198 C 
ENDBRANCH  29  41
BRANCH  31  43
ATOM     43  O   UNL     1       5.254   4.508  33.426  0.00  0.00    -0.390 OA
ATOM     44  H   UNL     1       4.958   3.685  33.822  0.00  0.00    +0.210 HD
ENDBRANCH  31  43
ENDBRANCH  26  27
BRANCH  26  45
ATOM     45  O   UNL     1       8.427   2.376  36.888  0.00  0.00    -0.387 OA
ATOM     46  H   UNL     1       9.005   1.663  37.169  0.00  0.00    +0.210 HD
ENDBRANCH  26  45
ENDBRANCH   1  26
TORSDOF 15
