REMARK VINA RESULT:    -5.979      5.396      6.955
REMARK INTER + INTRA:         -12.839
REMARK INTER:                 -10.706
REMARK INTRA:                  -2.133
REMARK UNBOUND:                -2.491
REMARK  Name = lig_assembled_57.pdb
REMARK  17 active torsions:
REMARK  status: ('A' for Active; 'I' for Inactive)
REMARK    1  A    between atoms: _2  and  _10
REMARK    2  A    between atoms: _3  and  _13
REMARK    3  A    between atoms: _5  and  _19
REMARK    4  A    between atoms: _7  and  _8
REMARK    5  A    between atoms: _7  and  _19
REMARK    6  A    between atoms: _15  and  _35
REMARK    7  A    between atoms: _17  and  _23
REMARK    8  A    between atoms: _18  and  _22
REMARK    9  A    between atoms: _22  and  _23
REMARK   10  A    between atoms: _25  and  _26
REMARK   11  A    between atoms: _27  and  _28
REMARK   12  A    between atoms: _29  and  _31
REMARK   13  A    between atoms: _31  and  _32
REMARK   14  A    between atoms: _31  and  _33
REMARK   15  A    between atoms: _33  and  _34
REMARK   16  A    between atoms: _33  and  _35
REMARK   17  A    between atoms: _36  and  _38
REMARK                            x       y       z     vdW  Elec       q    Type
REMARK                         _______ _______ _______ _____ _____    ______ ____
ROOT
ATOM      1  C   UNL     1       7.824   2.419  34.032  0.00  0.00    +0.163 C 
ENDROOT
BRANCH   1   2
ATOM      2  O   UNL     1       8.562   2.675  35.239  0.00  0.00    -0.388 OA
ATOM      3  H   UNL     1       8.622   3.623  35.383  0.00  0.00    +0.210 HD
ENDBRANCH   1   2
BRANCH   1   4
ATOM      4  C   UNL     1       8.505   1.315  33.229  0.00  0.00    +0.141 C 
BRANCH   4   7
ATOM      5  C   UNL     1       6.662  -0.157  32.493  0.00  0.00    +0.401 C 
ATOM      6  O   UNL     1       6.198   0.664  31.697  0.00  0.00    -0.226 OA
ATOM      7  N   UNL     1       7.734   0.066  33.254  0.00  0.00    -0.279 N 
ATOM      8  H   UNL     1       8.033  -0.666  33.883  0.00  0.00    +0.152 HD
BRANCH   5   9
ATOM      9  O   UNL     1       6.025  -1.430  32.626  0.00  0.00    -0.444 OA
BRANCH   9  10
ATOM     10  C   UNL     1       6.835  -2.436  32.011  0.00  0.00    +0.292 C 
BRANCH  10  12
ATOM     11  N   UNL     1       5.281  -3.038  30.189  0.00  0.00    -0.131 NA
ATOM     12  C   UNL     1       6.495  -2.552  30.581  0.00  0.00    +0.120 A 
ATOM     13  C   UNL     1       7.227  -2.211  29.464  0.00  0.00    +0.137 A 
ATOM     14  N   UNL     1       6.370  -2.428  28.426  0.00  0.00    -0.248 N 
ATOM     15  N   UNL     1       5.229  -2.995  28.868  0.00  0.00    -0.065 NA
BRANCH  14  16
ATOM     16  C   UNL     1       6.478  -2.096  27.009  0.00  0.00    +0.111 C 
ATOM     17  C   UNL     1       7.891  -2.396  26.486  0.00  0.00    +0.042 C 
ATOM     18  C   UNL     1       8.095  -3.901  26.327  0.00  0.00    +0.086 C 
ATOM     19  N   UNL     1       7.130  -4.515  25.409  0.00  0.00    -0.305 NA
ATOM     20  C   UNL     1       5.743  -4.228  25.777  0.00  0.00    +0.086 C 
ATOM     21  C   UNL     1       7.422  -4.208  24.012  0.00  0.00    +0.104 C 
ATOM     22  C   UNL     1       5.444  -2.752  26.078  0.00  0.00    +0.042 C 
ENDBRANCH  14  16
ENDBRANCH  10  12
ENDBRANCH   9  10
ENDBRANCH   5   9
ENDBRANCH   4   7
ENDBRANCH   1   4
BRANCH   1  23
ATOM     23  C   UNL     1       7.719   3.690  33.172  0.00  0.00    +0.175 C 
BRANCH  23  24
ATOM     24  C   UNL     1       6.941   4.807  33.883  0.00  0.00    +0.176 C 
ATOM     25  O   UNL     1       7.780   5.327  34.950  0.00  0.00    -0.332 OA
ATOM     26  C   UNL     1       7.240   6.480  35.677  0.00  0.00    +0.277 C 
ATOM     27  C   UNL     1       5.830   6.158  36.230  0.00  0.00    +0.110 C 
ATOM     28  C   UNL     1       4.910   5.572  35.139  0.00  0.00    +0.143 C 
ATOM     29  C   UNL     1       5.572   4.381  34.445  0.00  0.00    +0.133 C 
BRANCH  29  30
ATOM     30  N   UNL     1       4.723   3.886  33.350  0.00  0.00    -0.308 N 
ATOM     31  H   UNL     1       4.619   4.470  32.533  0.00  0.00    +0.149 HD
ATOM     32  C   UNL     1       4.082   2.714  33.365  0.00  0.00    +0.210 C 
ATOM     33  C   UNL     1       4.240   1.858  34.636  0.00  0.00    +0.109 C 
ATOM     34  O   UNL     1       3.390   2.318  32.427  0.00  0.00    -0.276 OA
ENDBRANCH  29  30
BRANCH  26  35
ATOM     35  C   UNL     1       7.164   7.718  34.760  0.00  0.00    +0.414 C 
ATOM     36  O   UNL     1       6.072   8.166  34.412  0.00  0.00    -0.240 OA
ATOM     37  O   UNL     1       8.194   8.269  34.368  0.00  0.00    -0.240 OA
ENDBRANCH  26  35
BRANCH  28  38
ATOM     38  O   UNL     1       3.677   5.151  35.723  0.00  0.00    -0.390 OA
ATOM     39  H   UNL     1       3.827   4.372  36.263  0.00  0.00    +0.210 HD
ENDBRANCH  28  38
BRANCH  26  40
ATOM     40  O   UNL     1       8.119   6.756  36.798  0.00  0.00    -0.343 OA
ATOM     41  C   UNL     1       7.483   7.403  37.930  0.00  0.00    +0.198 C 
ENDBRANCH  26  40
ENDBRANCH  23  24
BRANCH  23  42
ATOM     42  O   UNL     1       7.102   3.383  31.906  0.00  0.00    -0.387 OA
ATOM     43  H   UNL     1       6.306   3.910  31.802  0.00  0.00    +0.210 HD
ENDBRANCH  23  42
ENDBRANCH   1  23
TORSDOF 14
