REMARK VINA RESULT:    -5.774     14.969     18.617
REMARK INTER + INTRA:         -13.739
REMARK INTER:                 -12.259
REMARK INTRA:                  -1.479
REMARK UNBOUND:                -3.239
REMARK  Name = lig_assembled_88.pdb
REMARK  18 active torsions:
REMARK  status: ('A' for Active; 'I' for Inactive)
REMARK    1  A    between atoms: _2  and  _9
REMARK    2  A    between atoms: _4  and  _20
REMARK    3  A    between atoms: _5  and  _15
REMARK    4  A    between atoms: _6  and  _7
REMARK    5  A    between atoms: _6  and  _20
REMARK    6  A    between atoms: _9  and  _10
REMARK    7  A    between atoms: _16  and  _36
REMARK    8  A    between atoms: _18  and  _24
REMARK    9  A    between atoms: _19  and  _23
REMARK   10  A    between atoms: _23  and  _24
REMARK   11  A    between atoms: _26  and  _27
REMARK   12  A    between atoms: _28  and  _29
REMARK   13  A    between atoms: _30  and  _32
REMARK   14  A    between atoms: _32  and  _33
REMARK   15  A    between atoms: _32  and  _34
REMARK   16  A    between atoms: _34  and  _35
REMARK   17  A    between atoms: _34  and  _36
REMARK   18  A    between atoms: _37  and  _39
REMARK                            x       y       z     vdW  Elec       q    Type
REMARK                         _______ _______ _______ _____ _____    ______ ____
ROOT
ATOM      1  C   UNL     1      16.646   1.157  26.209  0.00  0.00    +0.163 C 
ENDROOT
BRANCH   1   2
ATOM      2  O   UNL     1      15.779   0.202  26.841  0.00  0.00    -0.388 OA
ATOM      3  H   UNL     1      14.908   0.243  26.438  0.00  0.00    +0.210 HD
ENDBRANCH   1   2
BRANCH   1   4
ATOM      4  C   UNL     1      16.393   1.211  24.693  0.00  0.00    +0.175 C 
BRANCH   4   5
ATOM      5  C   UNL     1      17.559   0.614  23.891  0.00  0.00    +0.176 C 
ATOM      6  O   UNL     1      17.620   1.301  22.611  0.00  0.00    -0.332 OA
ATOM      7  C   UNL     1      18.746   0.934  21.747  0.00  0.00    +0.277 C 
ATOM      8  C   UNL     1      18.776  -0.598  21.520  0.00  0.00    +0.110 C 
ATOM      9  C   UNL     1      18.681  -1.373  22.851  0.00  0.00    +0.143 C 
ATOM     10  C   UNL     1      17.477  -0.909  23.671  0.00  0.00    +0.133 C 
BRANCH  10  11
ATOM     11  N   UNL     1      17.447  -1.592  24.974  0.00  0.00    -0.308 N 
ATOM     12  H   UNL     1      18.186  -1.386  25.632  0.00  0.00    +0.149 HD
ATOM     13  C   UNL     1      16.507  -2.466  25.344  0.00  0.00    +0.210 C 
ATOM     14  C   UNL     1      15.410  -2.778  24.309  0.00  0.00    +0.109 C 
ATOM     15  O   UNL     1      16.499  -3.012  26.448  0.00  0.00    -0.276 OA
ENDBRANCH  10  11
BRANCH   7  16
ATOM     16  C   UNL     1      20.083   1.389  22.367  0.00  0.00    +0.414 C 
ATOM     17  O   UNL     1      20.181   2.503  22.881  0.00  0.00    -0.240 OA
ATOM     18  O   UNL     1      21.063   0.644  22.354  0.00  0.00    -0.240 OA
ENDBRANCH   7  16
BRANCH   7  19
ATOM     19  O   UNL     1      18.557   1.583  20.463  0.00  0.00    -0.343 OA
ATOM     20  C   UNL     1      17.175   1.722  20.045  0.00  0.00    +0.198 C 
ENDBRANCH   7  19
BRANCH   9  21
ATOM     21  O   UNL     1      18.560  -2.771  22.587  0.00  0.00    -0.390 OA
ATOM     22  H   UNL     1      18.635  -2.926  21.642  0.00  0.00    +0.210 HD
ENDBRANCH   9  21
ENDBRANCH   4   5
BRANCH   4  23
ATOM     23  O   UNL     1      16.150   2.570  24.278  0.00  0.00    -0.387 OA
ATOM     24  H   UNL     1      16.760   2.804  23.575  0.00  0.00    +0.210 HD
ENDBRANCH   4  23
ENDBRANCH   1   4
BRANCH   1  25
ATOM     25  C   UNL     1      16.426   2.540  26.812  0.00  0.00    +0.141 C 
BRANCH  25  28
ATOM     26  C   UNL     1      18.319   3.822  27.750  0.00  0.00    +0.401 C 
ATOM     27  O   UNL     1      18.026   3.577  28.922  0.00  0.00    -0.226 OA
ATOM     28  N   UNL     1      17.623   3.383  26.700  0.00  0.00    -0.279 N 
ATOM     29  H   UNL     1      17.936   3.645  25.776  0.00  0.00    +0.152 HD
BRANCH  26  30
ATOM     30  O   UNL     1      19.468   4.627  27.474  0.00  0.00    -0.444 OA
BRANCH  30  31
ATOM     31  C   UNL     1      19.131   5.628  26.511  0.00  0.00    +0.292 C 
BRANCH  31  33
ATOM     32  N   UNL     1      18.573   8.040  26.475  0.00  0.00    -0.131 NA
ATOM     33  C   UNL     1      19.085   6.960  27.144  0.00  0.00    +0.120 A 
ATOM     34  C   UNL     1      19.516   7.363  28.389  0.00  0.00    +0.137 A 
ATOM     35  N   UNL     1      19.307   8.711  28.385  0.00  0.00    -0.247 N 
ATOM     36  N   UNL     1      18.694   9.107  27.254  0.00  0.00    -0.065 NA
BRANCH  35  37
ATOM     37  C   UNL     1      19.724   9.687  29.381  0.00  0.00    +0.184 C 
BRANCH  37  38
ATOM     38  C   UNL     1      18.822   9.721  30.598  0.00  0.00    +0.017 A 
ATOM     39  C   UNL     1      18.029   8.622  30.982  0.00  0.00    +0.024 A 
ATOM     40  C   UNL     1      17.208   8.690  32.111  0.00  0.00    +0.019 A 
ATOM     41 BR   UNL     1      16.121   7.211  32.567  0.00  0.00    -0.050 Br
ATOM     42  C   UNL     1      17.179   9.833  32.903  0.00  0.00    +0.034 A 
ATOM     43  C   UNL     1      17.993  10.910  32.563  0.00  0.00    +0.061 A 
ATOM     44 BR   UNL     1      17.977  12.452  33.666  0.00  0.00    -0.046 Br
ATOM     45  C   UNL     1      18.809  10.853  31.425  0.00  0.00    +0.136 A 
BRANCH  45  46
ATOM     46  O   UNL     1      19.625  11.901  31.090  0.00  0.00    -0.505 OA
ATOM     47  H   UNL     1      20.439  11.528  30.701  0.00  0.00    +0.292 HD
ENDBRANCH  45  46
ENDBRANCH  37  38
ENDBRANCH  35  37
ENDBRANCH  31  33
ENDBRANCH  30  31
ENDBRANCH  26  30
ENDBRANCH  25  28
ENDBRANCH   1  25
TORSDOF 16
