REMARK VINA RESULT:    -5.904      1.575      3.787
REMARK INTER + INTRA:         -13.711
REMARK INTER:                 -11.727
REMARK INTRA:                  -1.983
REMARK UNBOUND:                -2.111
REMARK  Name = lig_assembled_17.pdb
REMARK  22 active torsions:
REMARK  status: ('A' for Active; 'I' for Inactive)
REMARK    1  A    between atoms: _2  and  _10
REMARK    2  A    between atoms: _3  and  _11
REMARK    3  A    between atoms: _3  and  _12
REMARK    4  A    between atoms: _3  and  _14
REMARK    5  A    between atoms: _5  and  _19
REMARK    6  A    between atoms: _6  and  _14
REMARK    7  A    between atoms: _7  and  _8
REMARK    8  A    between atoms: _7  and  _19
REMARK    9  A    between atoms: _10  and  _11
REMARK   10  A    between atoms: _12  and  _13
REMARK   11  A    between atoms: _15  and  _35
REMARK   12  A    between atoms: _17  and  _23
REMARK   13  A    between atoms: _18  and  _22
REMARK   14  A    between atoms: _22  and  _23
REMARK   15  A    between atoms: _25  and  _26
REMARK   16  A    between atoms: _27  and  _28
REMARK   17  A    between atoms: _29  and  _31
REMARK   18  A    between atoms: _31  and  _32
REMARK   19  A    between atoms: _31  and  _33
REMARK   20  A    between atoms: _33  and  _34
REMARK   21  A    between atoms: _33  and  _35
REMARK   22  A    between atoms: _36  and  _38
REMARK                            x       y       z     vdW  Elec       q    Type
REMARK                         _______ _______ _______ _____ _____    ______ ____
ROOT
ATOM      1  C   UNL     1       2.975   2.901  32.718  0.00  0.00    +0.163 C 
ENDROOT
BRANCH   1   2
ATOM      2  O   UNL     1       3.719   2.059  31.822  0.00  0.00    -0.388 OA
ATOM      3  H   UNL     1       4.135   2.599  31.145  0.00  0.00    +0.210 HD
ENDBRANCH   1   2
BRANCH   1   4
ATOM      4  C   UNL     1       3.894   3.935  33.391  0.00  0.00    +0.175 C 
BRANCH   4   5
ATOM      5  C   UNL     1       5.315   3.393  33.606  0.00  0.00    +0.176 C 
ATOM      6  O   UNL     1       5.203   2.025  34.086  0.00  0.00    -0.332 OA
ATOM      7  C   UNL     1       6.470   1.304  34.247  0.00  0.00    +0.277 C 
ATOM      8  C   UNL     1       7.433   2.102  35.160  0.00  0.00    +0.110 C 
ATOM      9  C   UNL     1       7.559   3.572  34.708  0.00  0.00    +0.143 C 
ATOM     10  C   UNL     1       6.183   4.224  34.569  0.00  0.00    +0.133 C 
BRANCH  10  11
ATOM     11  N   UNL     1       6.312   5.596  34.055  0.00  0.00    -0.308 N 
ATOM     12  H   UNL     1       6.596   5.714  33.092  0.00  0.00    +0.149 HD
ATOM     13  C   UNL     1       6.078   6.696  34.776  0.00  0.00    +0.210 C 
ATOM     14  C   UNL     1       5.673   6.482  36.247  0.00  0.00    +0.109 C 
ATOM     15  O   UNL     1       6.180   7.833  34.315  0.00  0.00    -0.276 OA
ENDBRANCH  10  11
BRANCH   7  16
ATOM     16  C   UNL     1       7.139   1.061  32.879  0.00  0.00    +0.414 C 
ATOM     17  O   UNL     1       6.461   0.729  31.907  0.00  0.00    -0.240 OA
ATOM     18  O   UNL     1       8.356   1.197  32.746  0.00  0.00    -0.240 OA
ENDBRANCH   7  16
BRANCH   9  19
ATOM     19  O   UNL     1       8.333   4.304  35.660  0.00  0.00    -0.390 OA
ATOM     20  H   UNL     1       8.729   5.067  35.232  0.00  0.00    +0.210 HD
ENDBRANCH   9  19
BRANCH   7  21
ATOM     21  O   UNL     1       6.185   0.032  34.884  0.00  0.00    -0.343 OA
ATOM     22  C   UNL     1       7.298  -0.555  35.605  0.00  0.00    +0.198 C 
ENDBRANCH   7  21
ENDBRANCH   4   5
BRANCH   4  23
ATOM     23  O   UNL     1       3.328   4.358  34.648  0.00  0.00    -0.387 OA
ATOM     24  H   UNL     1       2.691   5.059  34.493  0.00  0.00    +0.210 HD
ENDBRANCH   4  23
ENDBRANCH   1   4
BRANCH   1  25
ATOM     25  C   UNL     1       1.868   3.623  31.957  0.00  0.00    +0.141 C 
BRANCH  25  28
ATOM     26  C   UNL     1       1.378   3.488  29.539  0.00  0.00    +0.401 C 
ATOM     27  O   UNL     1       0.252   3.009  29.698  0.00  0.00    -0.226 OA
ATOM     28  N   UNL     1       2.203   3.799  30.539  0.00  0.00    -0.279 N 
ATOM     29  H   UNL     1       3.111   4.179  30.307  0.00  0.00    +0.152 HD
BRANCH  26  30
ATOM     30  O   UNL     1       1.849   3.728  28.210  0.00  0.00    -0.444 OA
BRANCH  30  31
ATOM     31  C   UNL     1       0.985   3.080  27.273  0.00  0.00    +0.292 C 
BRANCH  31  33
ATOM     32  N   UNL     1      -0.146   4.889  26.023  0.00  0.00    -0.131 NA
ATOM     33  C   UNL     1       0.819   3.917  26.070  0.00  0.00    +0.120 A 
ATOM     34  C   UNL     1       1.519   3.916  24.884  0.00  0.00    +0.137 A 
ATOM     35  N   UNL     1       0.944   4.923  24.168  0.00  0.00    -0.250 N 
ATOM     36  N   UNL     1      -0.062   5.498  24.849  0.00  0.00    -0.065 NA
BRANCH  35  37
ATOM     37  C   UNL     1       1.316   5.426  22.862  0.00  0.00    +0.160 C 
BRANCH  37  38
ATOM     38  C   UNL     1       1.872   4.295  21.986  0.00  0.00    +0.107 C 
BRANCH  38  39
ATOM     39  N   UNL     1       1.010   3.859  20.860  0.00  0.00    -0.301 NA
BRANCH  39  40
ATOM     40  C   UNL     1      -0.142   4.750  20.627  0.00  0.00    +0.081 C 
ATOM     41  C   UNL     1      -1.343   4.137  19.913  0.00  0.00    +0.020 C 
ENDBRANCH  39  40
BRANCH  39  42
ATOM     42  C   UNL     1       1.853   3.666  19.662  0.00  0.00    +0.081 C 
ATOM     43  C   UNL     1       1.908   2.233  19.141  0.00  0.00    +0.020 C 
ENDBRANCH  39  42
ENDBRANCH  38  39
ENDBRANCH  37  38
ENDBRANCH  35  37
ENDBRANCH  31  33
ENDBRANCH  30  31
ENDBRANCH  26  30
ENDBRANCH  25  28
ENDBRANCH   1  25
TORSDOF 18
