REMARK VINA RESULT:    -5.518      6.276     11.892
REMARK INTER + INTRA:         -13.644
REMARK INTER:                 -10.910
REMARK INTRA:                  -2.735
REMARK UNBOUND:                -3.450
REMARK  Name = lig_assembled_66.pdb
REMARK  18 active torsions:
REMARK  status: ('A' for Active; 'I' for Inactive)
REMARK    1  A    between atoms: _2  and  _10
REMARK    2  A    between atoms: _5  and  _21
REMARK    3  A    between atoms: _7  and  _8
REMARK    4  A    between atoms: _7  and  _21
REMARK    5  A    between atoms: _10  and  _11
REMARK    6  A    between atoms: _15  and  _16
REMARK    7  A    between atoms: _17  and  _37
REMARK    8  A    between atoms: _19  and  _25
REMARK    9  A    between atoms: _20  and  _24
REMARK   10  A    between atoms: _24  and  _25
REMARK   11  A    between atoms: _27  and  _28
REMARK   12  A    between atoms: _29  and  _30
REMARK   13  A    between atoms: _31  and  _33
REMARK   14  A    between atoms: _33  and  _34
REMARK   15  A    between atoms: _33  and  _35
REMARK   16  A    between atoms: _35  and  _36
REMARK   17  A    between atoms: _35  and  _37
REMARK   18  A    between atoms: _38  and  _40
REMARK                            x       y       z     vdW  Elec       q    Type
REMARK                         _______ _______ _______ _____ _____    ______ ____
ROOT
ATOM      1  C   UNL     1      -2.028   3.622  22.847  0.00  0.00    +0.163 C 
ENDROOT
BRANCH   1   2
ATOM      2  O   UNL     1      -2.971   2.747  22.208  0.00  0.00    -0.388 OA
ATOM      3  H   UNL     1      -2.937   1.882  22.624  0.00  0.00    +0.210 HD
ENDBRANCH   1   2
BRANCH   1   4
ATOM      4  C   UNL     1      -1.476   4.657  21.852  0.00  0.00    +0.175 C 
BRANCH   4   5
ATOM      5  C   UNL     1      -0.381   4.067  20.951  0.00  0.00    +0.176 C 
ATOM      6  O   UNL     1      -1.033   3.337  19.875  0.00  0.00    -0.332 OA
ATOM      7  C   UNL     1      -0.140   2.788  18.850  0.00  0.00    +0.277 C 
ATOM      8  C   UNL     1       0.950   1.900  19.500  0.00  0.00    +0.110 C 
ATOM      9  C   UNL     1       1.649   2.623  20.671  0.00  0.00    +0.143 C 
ATOM     10  C   UNL     1       0.627   3.156  21.676  0.00  0.00    +0.133 C 
BRANCH  10  11
ATOM     11  N   UNL     1       1.300   3.917  22.740  0.00  0.00    -0.308 N 
ATOM     12  H   UNL     1       1.656   4.834  22.512  0.00  0.00    +0.149 HD
ATOM     13  C   UNL     1       1.472   3.474  23.989  0.00  0.00    +0.210 C 
ATOM     14  C   UNL     1       0.941   2.061  24.298  0.00  0.00    +0.109 C 
ATOM     15  O   UNL     1       2.026   4.139  24.864  0.00  0.00    -0.276 OA
ENDBRANCH  10  11
BRANCH   7  16
ATOM     16  C   UNL     1       0.530   3.921  18.045  0.00  0.00    +0.414 C 
ATOM     17  O   UNL     1      -0.145   4.845  17.595  0.00  0.00    -0.240 OA
ATOM     18  O   UNL     1       1.746   3.910  17.847  0.00  0.00    -0.240 OA
ENDBRANCH   7  16
BRANCH   7  19
ATOM     19  O   UNL     1      -0.933   1.960  17.961  0.00  0.00    -0.343 OA
ATOM     20  C   UNL     1      -2.243   1.598  18.467  0.00  0.00    +0.198 C 
ENDBRANCH   7  19
BRANCH   9  21
ATOM     21  O   UNL     1       2.535   1.719  21.334  0.00  0.00    -0.390 OA
ATOM     22  H   UNL     1       2.117   0.858  21.408  0.00  0.00    +0.210 HD
ENDBRANCH   9  21
ENDBRANCH   4   5
BRANCH   4  23
ATOM     23  O   UNL     1      -0.970   5.807  22.559  0.00  0.00    -0.387 OA
ATOM     24  H   UNL     1      -0.336   5.522  23.221  0.00  0.00    +0.210 HD
ENDBRANCH   4  23
ENDBRANCH   1   4
BRANCH   1  25
ATOM     25  C   UNL     1      -2.694   4.343  24.015  0.00  0.00    +0.141 C 
BRANCH  25  28
ATOM     26  C   UNL     1      -1.197   5.095  25.832  0.00  0.00    +0.401 C 
ATOM     27  O   UNL     1      -1.027   6.219  25.354  0.00  0.00    -0.226 OA
ATOM     28  N   UNL     1      -1.955   4.152  25.269  0.00  0.00    -0.279 N 
ATOM     29  H   UNL     1      -2.025   3.257  25.732  0.00  0.00    +0.152 HD
BRANCH  26  30
ATOM     30  O   UNL     1      -0.548   4.756  27.060  0.00  0.00    -0.444 OA
BRANCH  30  31
ATOM     31  C   UNL     1      -0.854   3.403  27.405  0.00  0.00    +0.292 C 
BRANCH  31  33
ATOM     32  N   UNL     1       1.347   3.438  28.543  0.00  0.00    -0.131 NA
ATOM     33  C   UNL     1       0.344   2.726  27.941  0.00  0.00    +0.120 A 
ATOM     34  C   UNL     1       0.653   1.385  27.989  0.00  0.00    +0.137 A 
ATOM     35  N   UNL     1       1.829   1.342  28.682  0.00  0.00    -0.247 N 
ATOM     36  N   UNL     1       2.252   2.581  28.996  0.00  0.00    -0.065 NA
BRANCH  35  37
ATOM     37  C   UNL     1       2.452   0.180  29.288  0.00  0.00    +0.180 C 
BRANCH  37  38
ATOM     38  C   UNL     1       3.385  -0.551  28.357  0.00  0.00    -0.025 A 
ATOM     39  C   UNL     1       3.042  -0.735  27.010  0.00  0.00    +0.005 A 
ATOM     40  C   UNL     1       3.936  -1.337  26.122  0.00  0.00    +0.002 A 
ATOM     41  C   UNL     1       5.179  -1.781  26.575  0.00  0.00    +0.019 A 
ATOM     42  C   UNL     1       5.522  -1.638  27.922  0.00  0.00    +0.052 A 
ATOM     43  C   UNL     1       4.629  -1.023  28.809  0.00  0.00    +0.024 A 
BRANCH  42  44
ATOM     44  C   UNL     1       6.792  -2.108  28.393  0.00  0.00    +0.099 C 
ATOM     45  N   UNL     1       7.817  -2.497  28.777  0.00  0.00    -0.191 NA
ENDBRANCH  42  44
ENDBRANCH  37  38
ENDBRANCH  35  37
ENDBRANCH  31  33
ENDBRANCH  30  31
ENDBRANCH  26  30
ENDBRANCH  25  28
ENDBRANCH   1  25
TORSDOF 16
