REMARK VINA RESULT:    -6.622      2.140      4.561
REMARK INTER + INTRA:         -14.533
REMARK INTER:                 -12.471
REMARK INTRA:                  -2.062
REMARK UNBOUND:                -1.911
REMARK  Name = lig_assembled_26.pdb
REMARK  20 active torsions:
REMARK  status: ('A' for Active; 'I' for Inactive)
REMARK    1  A    between atoms: _2  and  _9
REMARK    2  A    between atoms: _4  and  _23
REMARK    3  A    between atoms: _6  and  _7
REMARK    4  A    between atoms: _6  and  _23
REMARK    5  A    between atoms: _9  and  _10
REMARK    6  A    between atoms: _9  and  _11
REMARK    7  A    between atoms: _11  and  _12
REMARK    8  A    between atoms: _12  and  _13
REMARK    9  A    between atoms: _19  and  _39
REMARK   10  A    between atoms: _21  and  _27
REMARK   11  A    between atoms: _22  and  _26
REMARK   12  A    between atoms: _26  and  _27
REMARK   13  A    between atoms: _29  and  _30
REMARK   14  A    between atoms: _31  and  _32
REMARK   15  A    between atoms: _33  and  _35
REMARK   16  A    between atoms: _35  and  _36
REMARK   17  A    between atoms: _35  and  _37
REMARK   18  A    between atoms: _37  and  _38
REMARK   19  A    between atoms: _37  and  _39
REMARK   20  A    between atoms: _40  and  _42
REMARK                            x       y       z     vdW  Elec       q    Type
REMARK                         _______ _______ _______ _____ _____    ______ ____
ROOT
ATOM      1  C   UNL     1       3.175   3.071  32.502  0.00  0.00    +0.163 C 
ENDROOT
BRANCH   1   2
ATOM      2  O   UNL     1       3.330   3.275  31.088  0.00  0.00    -0.388 OA
ATOM      3  H   UNL     1       3.343   2.425  30.641  0.00  0.00    +0.210 HD
ENDBRANCH   1   2
BRANCH   1   4
ATOM      4  C   UNL     1       4.072   4.034  33.298  0.00  0.00    +0.175 C 
BRANCH   4   5
ATOM      5  C   UNL     1       5.462   3.438  33.569  0.00  0.00    +0.176 C 
ATOM      6  O   UNL     1       5.279   2.071  34.028  0.00  0.00    -0.332 OA
ATOM      7  C   UNL     1       6.511   1.303  34.238  0.00  0.00    +0.277 C 
ATOM      8  C   UNL     1       7.460   2.056  35.201  0.00  0.00    +0.110 C 
ATOM      9  C   UNL     1       7.660   3.525  34.772  0.00  0.00    +0.143 C 
ATOM     10  C   UNL     1       6.315   4.228  34.579  0.00  0.00    +0.133 C 
BRANCH  10  11
ATOM     11  N   UNL     1       6.517   5.599  34.086  0.00  0.00    -0.308 N 
ATOM     12  H   UNL     1       6.858   5.716  33.143  0.00  0.00    +0.149 HD
ATOM     13  C   UNL     1       6.278   6.700  34.805  0.00  0.00    +0.210 C 
ATOM     14  C   UNL     1       5.783   6.488  36.248  0.00  0.00    +0.109 C 
ATOM     15  O   UNL     1       6.442   7.837  34.361  0.00  0.00    -0.276 OA
ENDBRANCH  10  11
BRANCH   7  16
ATOM     16  C   UNL     1       7.231   1.048  32.898  0.00  0.00    +0.414 C 
ATOM     17  O   UNL     1       6.588   0.728  31.899  0.00  0.00    -0.240 OA
ATOM     18  O   UNL     1       8.455   1.163  32.815  0.00  0.00    -0.240 OA
ENDBRANCH   7  16
BRANCH   7  19
ATOM     19  O   UNL     1       6.151   0.036  34.847  0.00  0.00    -0.343 OA
ATOM     20  C   UNL     1       4.742  -0.298  34.780  0.00  0.00    +0.198 C 
ENDBRANCH   7  19
BRANCH   9  21
ATOM     21  O   UNL     1       8.415   4.219  35.765  0.00  0.00    -0.390 OA
ATOM     22  H   UNL     1       8.948   3.592  36.259  0.00  0.00    +0.210 HD
ENDBRANCH   9  21
ENDBRANCH   4   5
BRANCH   4  23
ATOM     23  O   UNL     1       3.435   4.395  34.540  0.00  0.00    -0.387 OA
ATOM     24  H   UNL     1       3.031   5.261  34.452  0.00  0.00    +0.210 HD
ENDBRANCH   4  23
ENDBRANCH   1   4
BRANCH   1  25
ATOM     25  C   UNL     1       1.719   3.283  32.903  0.00  0.00    +0.141 C 
BRANCH  25  28
ATOM     26  C   UNL     1      -0.104   3.604  31.266  0.00  0.00    +0.401 C 
ATOM     27  O   UNL     1      -0.256   4.800  31.528  0.00  0.00    -0.226 OA
ATOM     28  N   UNL     1       0.791   2.818  31.864  0.00  0.00    -0.279 N 
ATOM     29  H   UNL     1       0.834   1.847  31.587  0.00  0.00    +0.152 HD
BRANCH  26  30
ATOM     30  O   UNL     1      -0.930   3.002  30.265  0.00  0.00    -0.444 OA
BRANCH  30  31
ATOM     31  C   UNL     1      -0.167   2.040  29.532  0.00  0.00    +0.292 C 
BRANCH  31  33
ATOM     32  N   UNL     1       1.564   3.363  28.345  0.00  0.00    -0.131 NA
ATOM     33  C   UNL     1       0.396   2.650  28.315  0.00  0.00    +0.120 A 
ATOM     34  C   UNL     1      -0.082   2.624  27.025  0.00  0.00    +0.137 A 
ATOM     35  N   UNL     1       0.819   3.362  26.319  0.00  0.00    -0.248 N 
ATOM     36  N   UNL     1       1.825   3.781  27.113  0.00  0.00    -0.065 NA
BRANCH  35  37
ATOM     37  C   UNL     1       0.858   3.660  24.895  0.00  0.00    +0.113 C 
ATOM     38  C   UNL     1       0.564   5.126  24.546  0.00  0.00    +0.033 C 
BRANCH  37  39
ATOM     39  C   UNL     1       2.148   3.161  24.219  0.00  0.00    +0.106 C 
BRANCH  39  40
ATOM     40  C   UNL     1       1.917   2.120  23.140  0.00  0.00    +0.165 C 
ATOM     41  O   UNL     1       1.830   0.920  23.392  0.00  0.00    -0.292 OA
BRANCH  40  42
ATOM     42  C   UNL     1       1.833   2.565  21.716  0.00  0.00    +0.017 A 
ATOM     43  C   UNL     1       1.767   3.915  21.353  0.00  0.00    +0.011 A 
ATOM     44  C   UNL     1       1.732   4.276  20.004  0.00  0.00    +0.001 A 
ATOM     45  C   UNL     1       1.755   3.294  19.014  0.00  0.00    +0.000 A 
ATOM     46  C   UNL     1       1.808   1.949  19.367  0.00  0.00    +0.001 A 
ATOM     47  C   UNL     1       1.848   1.585  20.713  0.00  0.00    +0.011 A 
ENDBRANCH  40  42
ENDBRANCH  39  40
ENDBRANCH  37  39
ENDBRANCH  35  37
ENDBRANCH  31  33
ENDBRANCH  30  31
ENDBRANCH  26  30
ENDBRANCH  25  28
ENDBRANCH   1  25
TORSDOF 17
