REMARK VINA RESULT:    -6.015      1.061      1.305
REMARK INTER + INTRA:         -13.011
REMARK INTER:                 -11.115
REMARK INTRA:                  -1.895
REMARK UNBOUND:                -2.248
REMARK  Name = lig_assembled_61.pdb
REMARK  17 active torsions:
REMARK  status: ('A' for Active; 'I' for Inactive)
REMARK    1  A    between atoms: _2  and  _9
REMARK    2  A    between atoms: _4  and  _17
REMARK    3  A    between atoms: _6  and  _7
REMARK    4  A    between atoms: _6  and  _17
REMARK    5  A    between atoms: _9  and  _10
REMARK    6  A    between atoms: _13  and  _33
REMARK    7  A    between atoms: _15  and  _21
REMARK    8  A    between atoms: _16  and  _20
REMARK    9  A    between atoms: _20  and  _21
REMARK   10  A    between atoms: _23  and  _24
REMARK   11  A    between atoms: _25  and  _26
REMARK   12  A    between atoms: _27  and  _29
REMARK   13  A    between atoms: _29  and  _30
REMARK   14  A    between atoms: _29  and  _31
REMARK   15  A    between atoms: _31  and  _32
REMARK   16  A    between atoms: _31  and  _33
REMARK   17  A    between atoms: _34  and  _36
REMARK                            x       y       z     vdW  Elec       q    Type
REMARK                         _______ _______ _______ _____ _____    ______ ____
ROOT
ATOM      1  C   UNL     1       4.123   3.574  32.436  0.00  0.00    +0.163 C 
ENDROOT
BRANCH   1   2
ATOM      2  O   UNL     1       3.307   4.222  33.426  0.00  0.00    -0.388 OA
ATOM      3  H   UNL     1       2.380   4.089  33.214  0.00  0.00    +0.210 HD
ENDBRANCH   1   2
BRANCH   1   4
ATOM      4  C   UNL     1       3.360   2.412  31.809  0.00  0.00    +0.141 C 
BRANCH   4   7
ATOM      5  C   UNL     1       1.675   3.590  30.439  0.00  0.00    +0.401 C 
ATOM      6  O   UNL     1       1.097   4.088  31.408  0.00  0.00    -0.226 OA
ATOM      7  N   UNL     1       2.737   2.789  30.535  0.00  0.00    -0.279 N 
ATOM      8  H   UNL     1       3.136   2.422  29.682  0.00  0.00    +0.152 HD
BRANCH   5   9
ATOM      9  O   UNL     1       1.191   3.871  29.122  0.00  0.00    -0.444 OA
BRANCH   9  10
ATOM     10  C   UNL     1       1.767   2.947  28.195  0.00  0.00    +0.292 C 
BRANCH  10  12
ATOM     11  N   UNL     1       2.772   3.863  26.127  0.00  0.00    -0.131 NA
ATOM     12  C   UNL     1       1.657   3.463  26.818  0.00  0.00    +0.120 A 
ATOM     13  C   UNL     1       0.546   3.635  26.022  0.00  0.00    +0.137 A 
ATOM     14  N   UNL     1       1.044   4.197  24.883  0.00  0.00    -0.247 N 
ATOM     15  N   UNL     1       2.386   4.294  24.933  0.00  0.00    -0.065 NA
BRANCH  14  16
ATOM     16  C   UNL     1       0.319   4.627  23.701  0.00  0.00    +0.180 C 
BRANCH  16  17
ATOM     17  C   UNL     1       0.812   3.937  22.460  0.00  0.00    -0.019 A 
ATOM     18  C   UNL     1       1.631   4.554  21.455  0.00  0.00    +0.013 A 
ATOM     19  C   UNL     1       1.910   3.711  20.401  0.00  0.00    +0.045 A 
ATOM     20  S   UNL     1       1.206   2.170  20.610  0.00  0.00    -0.105 S 
ATOM     21  C   UNL     1       0.516   2.630  22.104  0.00  0.00    +0.050 A 
ENDBRANCH  16  17
ENDBRANCH  14  16
ENDBRANCH  10  12
ENDBRANCH   9  10
ENDBRANCH   5   9
ENDBRANCH   4   7
ENDBRANCH   1   4
BRANCH   1  22
ATOM     22  C   UNL     1       5.432   3.055  33.055  0.00  0.00    +0.175 C 
BRANCH  22  23
ATOM     23  C   UNL     1       5.797   3.802  34.346  0.00  0.00    +0.176 C 
ATOM     24  O   UNL     1       5.738   5.229  34.069  0.00  0.00    -0.332 OA
ATOM     25  C   UNL     1       5.955   6.108  35.222  0.00  0.00    +0.277 C 
ATOM     26  C   UNL     1       7.295   5.764  35.919  0.00  0.00    +0.110 C 
ATOM     27  C   UNL     1       7.417   4.253  36.206  0.00  0.00    +0.143 C 
ATOM     28  C   UNL     1       7.169   3.433  34.939  0.00  0.00    +0.133 C 
BRANCH  28  29
ATOM     29  N   UNL     1       7.202   1.993  35.242  0.00  0.00    -0.308 N 
ATOM     30  H   UNL     1       6.450   1.611  35.798  0.00  0.00    +0.149 HD
ATOM     31  C   UNL     1       8.161   1.159  34.831  0.00  0.00    +0.210 C 
ATOM     32  C   UNL     1       9.307   1.778  34.008  0.00  0.00    +0.109 C 
ATOM     33  O   UNL     1       8.155  -0.045  35.088  0.00  0.00    -0.276 OA
ENDBRANCH  28  29
BRANCH  25  34
ATOM     34  C   UNL     1       4.799   5.977  36.235  0.00  0.00    +0.414 C 
ATOM     35  O   UNL     1       3.698   5.566  35.870  0.00  0.00    -0.240 OA
ATOM     36  O   UNL     1       4.966   6.283  37.417  0.00  0.00    -0.240 OA
ENDBRANCH  25  34
BRANCH  25  37
ATOM     37  O   UNL     1       6.029   7.473  34.738  0.00  0.00    -0.343 OA
ATOM     38  C   UNL     1       7.372   7.980  34.537  0.00  0.00    +0.198 C 
ENDBRANCH  25  37
BRANCH  27  39
ATOM     39  O   UNL     1       8.722   3.961  36.707  0.00  0.00    -0.390 OA
ATOM     40  H   UNL     1       9.097   4.751  37.103  0.00  0.00    +0.210 HD
ENDBRANCH  27  39
ENDBRANCH  22  23
BRANCH  22  41
ATOM     41  O   UNL     1       6.508   3.158  32.101  0.00  0.00    -0.387 OA
ATOM     42  H   UNL     1       7.201   3.719  32.459  0.00  0.00    +0.210 HD
ENDBRANCH  22  41
ENDBRANCH   1  22
TORSDOF 15
