REMARK VINA RESULT:    -6.445     14.137     18.030
REMARK INTER + INTRA:         -13.344
REMARK INTER:                 -11.268
REMARK INTRA:                  -2.076
REMARK UNBOUND:                -1.813
REMARK  Name = lig_assembled_41.pdb
REMARK  18 active torsions:
REMARK  status: ('A' for Active; 'I' for Inactive)
REMARK    1  A    between atoms: _2  and  _9
REMARK    2  A    between atoms: _4  and  _21
REMARK    3  A    between atoms: _6  and  _7
REMARK    4  A    between atoms: _6  and  _21
REMARK    5  A    between atoms: _10  and  _11
REMARK    6  A    between atoms: _11  and  _12
REMARK    7  A    between atoms: _17  and  _37
REMARK    8  A    between atoms: _19  and  _25
REMARK    9  A    between atoms: _20  and  _24
REMARK   10  A    between atoms: _24  and  _25
REMARK   11  A    between atoms: _27  and  _28
REMARK   12  A    between atoms: _29  and  _30
REMARK   13  A    between atoms: _31  and  _33
REMARK   14  A    between atoms: _33  and  _34
REMARK   15  A    between atoms: _33  and  _35
REMARK   16  A    between atoms: _35  and  _36
REMARK   17  A    between atoms: _35  and  _37
REMARK   18  A    between atoms: _38  and  _40
REMARK                            x       y       z     vdW  Elec       q    Type
REMARK                         _______ _______ _______ _____ _____    ______ ____
ROOT
ATOM      1  C   UNL     1      18.526   5.764  23.913  0.00  0.00    +0.163 C 
ENDROOT
BRANCH   1   2
ATOM      2  O   UNL     1      17.504   5.828  22.905  0.00  0.00    -0.388 OA
ATOM      3  H   UNL     1      16.670   6.079  23.310  0.00  0.00    +0.210 HD
ENDBRANCH   1   2
BRANCH   1   4
ATOM      4  C   UNL     1      19.576   6.841  23.660  0.00  0.00    +0.141 C 
BRANCH   4   7
ATOM      5  C   UNL     1      20.699   7.658  25.703  0.00  0.00    +0.401 C 
ATOM      6  O   UNL     1      21.584   6.800  25.674  0.00  0.00    -0.226 OA
ATOM      7  N   UNL     1      19.717   7.748  24.805  0.00  0.00    -0.279 N 
ATOM      8  H   UNL     1      19.032   8.481  24.920  0.00  0.00    +0.152 HD
BRANCH   5   9
ATOM      9  O   UNL     1      20.703   8.624  26.758  0.00  0.00    -0.444 OA
BRANCH   9  10
ATOM     10  C   UNL     1      19.589   9.507  26.602  0.00  0.00    +0.292 C 
BRANCH  10  12
ATOM     11  N   UNL     1      17.853  10.534  28.021  0.00  0.00    -0.131 NA
ATOM     12  C   UNL     1      19.049   9.891  27.919  0.00  0.00    +0.121 A 
ATOM     13  C   UNL     1      19.561   9.689  29.182  0.00  0.00    +0.143 A 
ATOM     14  N   UNL     1      18.686  10.328  30.030  0.00  0.00    -0.219 N 
ATOM     15  N   UNL     1      17.612  10.748  29.306  0.00  0.00    -0.060 NA
BRANCH  14  16
ATOM     16  C   UNL     1      18.708  10.483  31.446  0.00  0.00    +0.077 A 
ATOM     17  C   UNL     1      18.071   9.617  32.360  0.00  0.00    +0.043 A 
ATOM     18  C   UNL     1      18.132   9.919  33.737  0.00  0.00    +0.013 A 
ATOM     19  C   UNL     1      18.800  11.054  34.202  0.00  0.00    +0.001 A 
ATOM     20  C   UNL     1      19.447  11.892  33.305  0.00  0.00    +0.002 A 
ATOM     21  C   UNL     1      19.412  11.604  31.942  0.00  0.00    +0.028 A 
BRANCH  17  22
ATOM     22  C   UNL     1      17.509   8.283  31.990  0.00  0.00    +0.162 C 
ATOM     23  O   UNL     1      16.297   8.164  31.823  0.00  0.00    -0.292 OA
ATOM     24  C   UNL     1      18.423   7.093  31.820  0.00  0.00    +0.091 C 
ENDBRANCH  17  22
ENDBRANCH  14  16
ENDBRANCH  10  12
ENDBRANCH   9  10
ENDBRANCH   5   9
ENDBRANCH   4   7
ENDBRANCH   1   4
BRANCH   1  25
ATOM     25  C   UNL     1      19.200   4.381  23.926  0.00  0.00    +0.175 C 
BRANCH  25  26
ATOM     26  C   UNL     1      18.425   3.368  24.780  0.00  0.00    +0.176 C 
ATOM     27  O   UNL     1      19.294   2.940  25.864  0.00  0.00    -0.332 OA
ATOM     28  C   UNL     1      18.682   2.044  26.851  0.00  0.00    +0.277 C 
ATOM     29  C   UNL     1      18.069   0.806  26.152  0.00  0.00    +0.110 C 
ATOM     30  C   UNL     1      17.161   1.211  24.971  0.00  0.00    +0.143 C 
ATOM     31  C   UNL     1      17.896   2.145  24.009  0.00  0.00    +0.133 C 
BRANCH  31  32
ATOM     32  N   UNL     1      16.995   2.593  22.936  0.00  0.00    -0.308 N 
ATOM     33  H   UNL     1      16.216   3.184  23.190  0.00  0.00    +0.149 HD
ATOM     34  C   UNL     1      17.138   2.268  21.648  0.00  0.00    +0.210 C 
ATOM     35  C   UNL     1      18.319   1.344  21.296  0.00  0.00    +0.109 C 
ATOM     36  O   UNL     1      16.376   2.670  20.768  0.00  0.00    -0.276 OA
ENDBRANCH  31  32
BRANCH  28  37
ATOM     37  C   UNL     1      17.588   2.779  27.652  0.00  0.00    +0.414 C 
ATOM     38  O   UNL     1      17.882   3.419  28.661  0.00  0.00    -0.240 OA
ATOM     39  O   UNL     1      16.411   2.732  27.290  0.00  0.00    -0.240 OA
ENDBRANCH  28  37
BRANCH  30  40
ATOM     40  O   UNL     1      16.740   0.044  24.264  0.00  0.00    -0.390 OA
ATOM     41  H   UNL     1      17.128   0.043  23.386  0.00  0.00    +0.210 HD
ENDBRANCH  30  40
BRANCH  28  42
ATOM     42  O   UNL     1      19.725   1.590  27.752  0.00  0.00    -0.343 OA
ATOM     43  C   UNL     1      21.035   1.444  27.148  0.00  0.00    +0.198 C 
ENDBRANCH  28  42
ENDBRANCH  25  26
BRANCH  25  44
ATOM     44  O   UNL     1      20.557   4.495  24.399  0.00  0.00    -0.387 OA
ATOM     45  H   UNL     1      20.899   3.622  24.603  0.00  0.00    +0.210 HD
ENDBRANCH  25  44
ENDBRANCH   1  25
TORSDOF 15
