REMARK VINA RESULT:    -6.174     15.554     17.538
REMARK INTER + INTRA:         -14.411
REMARK INTER:                 -10.904
REMARK INTRA:                  -3.506
REMARK UNBOUND:                -2.643
REMARK  Name = lig_assembled_21.pdb
REMARK  20 active torsions:
REMARK  status: ('A' for Active; 'I' for Inactive)
REMARK    1  A    between atoms: _2  and  _9
REMARK    2  A    between atoms: _4  and  _23
REMARK    3  A    between atoms: _6  and  _7
REMARK    4  A    between atoms: _6  and  _23
REMARK    5  A    between atoms: _9  and  _10
REMARK    6  A    between atoms: _11  and  _18
REMARK    7  A    between atoms: _12  and  _13
REMARK    8  A    between atoms: _12  and  _18
REMARK    9  A    between atoms: _19  and  _39
REMARK   10  A    between atoms: _21  and  _27
REMARK   11  A    between atoms: _22  and  _26
REMARK   12  A    between atoms: _26  and  _27
REMARK   13  A    between atoms: _29  and  _30
REMARK   14  A    between atoms: _31  and  _32
REMARK   15  A    between atoms: _33  and  _35
REMARK   16  A    between atoms: _35  and  _36
REMARK   17  A    between atoms: _35  and  _37
REMARK   18  A    between atoms: _37  and  _38
REMARK   19  A    between atoms: _37  and  _39
REMARK   20  A    between atoms: _40  and  _42
REMARK                            x       y       z     vdW  Elec       q    Type
REMARK                         _______ _______ _______ _____ _____    ______ ____
ROOT
ATOM      1  C   UNL     1      19.477   6.171  30.875  0.00  0.00    +0.163 C 
ENDROOT
BRANCH   1   2
ATOM      2  O   UNL     1      20.338   6.985  31.688  0.00  0.00    -0.388 OA
ATOM      3  H   UNL     1      19.884   7.798  31.923  0.00  0.00    +0.210 HD
ENDBRANCH   1   2
BRANCH   1   4
ATOM      4  C   UNL     1      19.551   6.597  29.399  0.00  0.00    +0.175 C 
BRANCH   4   5
ATOM      5  C   UNL     1      19.450   8.120  29.231  0.00  0.00    +0.176 C 
ATOM      6  O   UNL     1      18.489   8.615  30.203  0.00  0.00    -0.332 OA
ATOM      7  C   UNL     1      18.338  10.072  30.262  0.00  0.00    +0.277 C 
ATOM      8  C   UNL     1      18.003  10.638  28.861  0.00  0.00    +0.110 C 
ATOM      9  C   UNL     1      18.980  10.115  27.787  0.00  0.00    +0.143 C 
ATOM     10  C   UNL     1      19.062   8.588  27.816  0.00  0.00    +0.133 C 
BRANCH  10  11
ATOM     11  N   UNL     1      20.060   8.107  26.848  0.00  0.00    -0.308 N 
ATOM     12  H   UNL     1      21.034   8.281  27.049  0.00  0.00    +0.149 HD
ATOM     13  C   UNL     1      19.761   7.455  25.721  0.00  0.00    +0.210 C 
ATOM     14  C   UNL     1      18.266   7.228  25.430  0.00  0.00    +0.109 C 
ATOM     15  O   UNL     1      20.619   7.050  24.935  0.00  0.00    -0.276 OA
ENDBRANCH  10  11
BRANCH   7  16
ATOM     16  C   UNL     1      19.628  10.733  30.791  0.00  0.00    +0.414 C 
ATOM     17  O   UNL     1      20.374  10.117  31.551  0.00  0.00    -0.240 OA
ATOM     18  O   UNL     1      19.922  11.882  30.458  0.00  0.00    -0.240 OA
ENDBRANCH   7  16
BRANCH   9  19
ATOM     19  O   UNL     1      18.546  10.538  26.494  0.00  0.00    -0.390 OA
ATOM     20  H   UNL     1      19.207  11.119  26.108  0.00  0.00    +0.210 HD
ENDBRANCH   9  19
BRANCH   7  21
ATOM     21  O   UNL     1      17.234  10.373  31.154  0.00  0.00    -0.343 OA
ATOM     22  C   UNL     1      17.205   9.596  32.378  0.00  0.00    +0.198 C 
ENDBRANCH   7  21
ENDBRANCH   4   5
BRANCH   4  23
ATOM     23  O   UNL     1      18.513   5.944  28.641  0.00  0.00    -0.387 OA
ATOM     24  H   UNL     1      18.908   5.321  28.026  0.00  0.00    +0.210 HD
ENDBRANCH   4  23
ENDBRANCH   1   4
BRANCH   1  25
ATOM     25  C   UNL     1      19.872   4.704  31.002  0.00  0.00    +0.141 C 
BRANCH  25  28
ATOM     26  C   UNL     1      20.572   2.963  29.394  0.00  0.00    +0.401 C 
ATOM     27  O   UNL     1      19.949   2.060  29.956  0.00  0.00    -0.226 OA
ATOM     28  N   UNL     1      20.597   4.227  29.818  0.00  0.00    -0.279 N 
ATOM     29  H   UNL     1      21.146   4.895  29.295  0.00  0.00    +0.152 HD
BRANCH  26  30
ATOM     30  O   UNL     1      21.325   2.659  28.217  0.00  0.00    -0.444 OA
BRANCH  30  31
ATOM     31  C   UNL     1      21.532   3.855  27.460  0.00  0.00    +0.292 C 
BRANCH  31  33
ATOM     32  N   UNL     1      21.303   3.866  25.000  0.00  0.00    -0.131 NA
ATOM     33  C   UNL     1      20.715   3.830  26.234  0.00  0.00    +0.120 A 
ATOM     34  C   UNL     1      19.349   3.739  26.078  0.00  0.00    +0.137 A 
ATOM     35  N   UNL     1      19.176   3.631  24.724  0.00  0.00    -0.247 N 
ATOM     36  N   UNL     1      20.353   3.747  24.084  0.00  0.00    -0.065 NA
BRANCH  35  37
ATOM     37  C   UNL     1      17.919   3.340  24.042  0.00  0.00    +0.184 C 
BRANCH  37  38
ATOM     38  C   UNL     1      17.335   1.972  24.301  0.00  0.00    +0.016 A 
ATOM     39  C   UNL     1      17.697   0.851  23.531  0.00  0.00    +0.137 A 
ATOM     40  C   UNL     1      17.149  -0.406  23.789  0.00  0.00    +0.047 A 
ATOM     41  C   UNL     1      16.240  -0.562  24.836  0.00  0.00    +0.004 A 
ATOM     42  C   UNL     1      15.858   0.538  25.600  0.00  0.00    +0.001 A 
ATOM     43  C   UNL     1      16.403   1.796  25.338  0.00  0.00    +0.009 A 
BRANCH  39  44
ATOM     44  O   UNL     1      18.570   1.080  22.441  0.00  0.00    -0.426 OA
BRANCH  44  45
ATOM     45  C   UNL     1      18.173   0.913  21.113  0.00  0.00    +0.309 C 
ATOM     46  O   UNL     1      18.549   0.049  20.332  0.00  0.00    -0.251 OA
ATOM     47  C   UNL     1      17.124   1.934  20.787  0.00  0.00    +0.136 C 
ENDBRANCH  44  45
ENDBRANCH  39  44
ENDBRANCH  37  38
ENDBRANCH  35  37
ENDBRANCH  31  33
ENDBRANCH  30  31
ENDBRANCH  26  30
ENDBRANCH  25  28
ENDBRANCH   1  25
TORSDOF 17
