REMARK VINA RESULT:    -5.919      2.064      4.075
REMARK INTER + INTRA:         -12.836
REMARK INTER:                 -11.442
REMARK INTRA:                  -1.394
REMARK UNBOUND:                -2.246
REMARK  Name = lig_assembled_5.pdb
REMARK  18 active torsions:
REMARK  status: ('A' for Active; 'I' for Inactive)
REMARK    1  A    between atoms: _2  and  _9
REMARK    2  A    between atoms: _4  and  _20
REMARK    3  A    between atoms: _6  and  _7
REMARK    4  A    between atoms: _6  and  _20
REMARK    5  A    between atoms: _12  and  _15
REMARK    6  A    between atoms: _13  and  _15
REMARK    7  A    between atoms: _16  and  _36
REMARK    8  A    between atoms: _18  and  _24
REMARK    9  A    between atoms: _19  and  _23
REMARK   10  A    between atoms: _23  and  _24
REMARK   11  A    between atoms: _26  and  _27
REMARK   12  A    between atoms: _28  and  _29
REMARK   13  A    between atoms: _30  and  _32
REMARK   14  A    between atoms: _32  and  _33
REMARK   15  A    between atoms: _32  and  _34
REMARK   16  A    between atoms: _34  and  _35
REMARK   17  A    between atoms: _34  and  _36
REMARK   18  A    between atoms: _37  and  _39
REMARK                            x       y       z     vdW  Elec       q    Type
REMARK                         _______ _______ _______ _____ _____    ______ ____
ROOT
ATOM      1  C   UNL     1       6.782   2.427  32.858  0.00  0.00    +0.163 C 
ENDROOT
BRANCH   1   2
ATOM      2  O   UNL     1       7.046   3.276  31.729  0.00  0.00    -0.388 OA
ATOM      3  H   UNL     1       6.318   3.891  31.613  0.00  0.00    +0.210 HD
ENDBRANCH   1   2
BRANCH   1   4
ATOM      4  C   UNL     1       5.584   1.529  32.565  0.00  0.00    +0.141 C 
BRANCH   4   7
ATOM      5  C   UNL     1       3.634   1.598  31.048  0.00  0.00    +0.401 C 
ATOM      6  O   UNL     1       3.551   0.372  30.947  0.00  0.00    -0.226 OA
ATOM      7  N   UNL     1       4.558   2.225  31.778  0.00  0.00    -0.279 N 
ATOM      8  H   UNL     1       4.551   3.235  31.791  0.00  0.00    +0.152 HD
BRANCH   5   9
ATOM      9  O   UNL     1       2.697   2.418  30.345  0.00  0.00    -0.444 OA
BRANCH   9  10
ATOM     10  C   UNL     1       2.033   1.637  29.348  0.00  0.00    +0.292 C 
BRANCH  10  12
ATOM     11  N   UNL     1       2.176   3.711  28.006  0.00  0.00    -0.131 NA
ATOM     12  C   UNL     1       2.018   2.357  28.060  0.00  0.00    +0.121 A 
ATOM     13  C   UNL     1       1.867   1.871  26.783  0.00  0.00    +0.143 A 
ATOM     14  N   UNL     1       1.968   2.974  25.966  0.00  0.00    -0.220 N 
ATOM     15  N   UNL     1       2.137   4.080  26.733  0.00  0.00    -0.060 NA
BRANCH  14  16
ATOM     16  C   UNL     1       1.945   3.036  24.548  0.00  0.00    +0.067 A 
ATOM     17  C   UNL     1       1.856   4.266  23.886  0.00  0.00    +0.031 A 
ATOM     18  C   UNL     1       1.773   4.301  22.492  0.00  0.00    +0.048 A 
ATOM     19  C   UNL     1       1.798   3.124  21.742  0.00  0.00    +0.120 A 
ATOM     20  C   UNL     1       1.904   1.899  22.398  0.00  0.00    +0.048 A 
ATOM     21  C   UNL     1       1.976   1.852  23.797  0.00  0.00    +0.031 A 
BRANCH  19  22
ATOM     22  O   UNL     1       1.647   3.297  20.394  0.00  0.00    -0.495 OA
ATOM     23  C   UNL     1       2.243   2.313  19.561  0.00  0.00    +0.277 C 
ENDBRANCH  19  22
ENDBRANCH  14  16
ENDBRANCH  10  12
ENDBRANCH   9  10
ENDBRANCH   5   9
ENDBRANCH   4   7
ENDBRANCH   1   4
BRANCH   1  24
ATOM     24  C   UNL     1       6.504   3.260  34.120  0.00  0.00    +0.175 C 
BRANCH  24  25
ATOM     25  C   UNL     1       7.786   3.552  34.914  0.00  0.00    +0.176 C 
ATOM     26  O   UNL     1       8.143   2.348  35.646  0.00  0.00    -0.332 OA
ATOM     27  C   UNL     1       9.409   2.407  36.383  0.00  0.00    +0.277 C 
ATOM     28  C   UNL     1       9.422   3.624  37.340  0.00  0.00    +0.110 C 
ATOM     29  C   UNL     1       9.017   4.924  36.613  0.00  0.00    +0.143 C 
ATOM     30  C   UNL     1       7.688   4.750  35.877  0.00  0.00    +0.133 C 
BRANCH  30  31
ATOM     31  N   UNL     1       7.357   5.966  35.118  0.00  0.00    -0.308 N 
ATOM     32  H   UNL     1       8.006   6.269  34.406  0.00  0.00    +0.149 HD
ATOM     33  C   UNL     1       6.254   6.695  35.309  0.00  0.00    +0.210 C 
ATOM     34  C   UNL     1       5.297   6.222  36.419  0.00  0.00    +0.109 C 
ATOM     35  O   UNL     1       5.995   7.701  34.647  0.00  0.00    -0.276 OA
ENDBRANCH  30  31
BRANCH  27  36
ATOM     36  C   UNL     1      10.604   2.501  35.412  0.00  0.00    +0.414 C 
ATOM     37  O   UNL     1      11.657   3.024  35.774  0.00  0.00    -0.240 OA
ATOM     38  O   UNL     1      10.514   2.055  34.268  0.00  0.00    -0.240 OA
ENDBRANCH  27  36
BRANCH  27  39
ATOM     39  O   UNL     1       9.521   1.199  37.179  0.00  0.00    -0.343 OA
ATOM     40  C   UNL     1       8.587   1.105  38.285  0.00  0.00    +0.198 C 
ENDBRANCH  27  39
BRANCH  29  41
ATOM     41  O   UNL     1       8.896   5.987  37.559  0.00  0.00    -0.390 OA
ATOM     42  H   UNL     1       9.236   5.700  38.410  0.00  0.00    +0.210 HD
ENDBRANCH  29  41
ENDBRANCH  24  25
BRANCH  24  43
ATOM     43  O   UNL     1       5.544   2.586  34.959  0.00  0.00    -0.387 OA
ATOM     44  H   UNL     1       5.658   1.636  34.877  0.00  0.00    +0.210 HD
ENDBRANCH  24  43
ENDBRANCH   1  24
TORSDOF 15
