REMARK VINA RESULT:    -6.779     14.483     18.166
REMARK INTER + INTRA:         -13.704
REMARK INTER:                 -11.884
REMARK INTRA:                  -1.821
REMARK UNBOUND:                -1.575
REMARK  Name = lig_assembled_0.pdb
REMARK  17 active torsions:
REMARK  status: ('A' for Active; 'I' for Inactive)
REMARK    1  A    between atoms: _2  and  _10
REMARK    2  A    between atoms: _5  and  _21
REMARK    3  A    between atoms: _7  and  _8
REMARK    4  A    between atoms: _7  and  _21
REMARK    5  A    between atoms: _11  and  _12
REMARK    6  A    between atoms: _17  and  _37
REMARK    7  A    between atoms: _19  and  _25
REMARK    8  A    between atoms: _20  and  _24
REMARK    9  A    between atoms: _24  and  _25
REMARK   10  A    between atoms: _27  and  _28
REMARK   11  A    between atoms: _29  and  _30
REMARK   12  A    between atoms: _31  and  _33
REMARK   13  A    between atoms: _33  and  _34
REMARK   14  A    between atoms: _33  and  _35
REMARK   15  A    between atoms: _35  and  _36
REMARK   16  A    between atoms: _35  and  _37
REMARK   17  A    between atoms: _38  and  _40
REMARK                            x       y       z     vdW  Elec       q    Type
REMARK                         _______ _______ _______ _____ _____    ______ ____
ROOT
ATOM      1  C   UNL     1      16.641   1.083  26.172  0.00  0.00    +0.163 C 
ENDROOT
BRANCH   1   2
ATOM      2  O   UNL     1      15.592   0.395  26.872  0.00  0.00    -0.388 OA
ATOM      3  H   UNL     1      15.603   0.649  27.798  0.00  0.00    +0.210 HD
ENDBRANCH   1   2
BRANCH   1   4
ATOM      4  C   UNL     1      16.762   2.513  26.690  0.00  0.00    +0.141 C 
BRANCH   4   7
ATOM      5  C   UNL     1      19.173   3.042  26.573  0.00  0.00    +0.401 C 
ATOM      6  O   UNL     1      19.476   2.308  27.516  0.00  0.00    -0.226 OA
ATOM      7  N   UNL     1      17.928   3.203  26.123  0.00  0.00    -0.279 N 
ATOM      8  H   UNL     1      17.778   3.836  25.350  0.00  0.00    +0.152 HD
BRANCH   5   9
ATOM      9  O   UNL     1      20.202   3.779  25.908  0.00  0.00    -0.444 OA
BRANCH   9  10
ATOM     10  C   UNL     1      19.651   4.977  25.354  0.00  0.00    +0.292 C 
BRANCH  10  12
ATOM     11  N   UNL     1      21.143   6.514  26.577  0.00  0.00    -0.131 NA
ATOM     12  C   UNL     1      19.878   6.116  26.263  0.00  0.00    +0.121 A 
ATOM     13  C   UNL     1      18.975   6.940  26.895  0.00  0.00    +0.143 A 
ATOM     14  N   UNL     1      19.739   7.781  27.672  0.00  0.00    -0.219 N 
ATOM     15  N   UNL     1      21.052   7.556  27.389  0.00  0.00    -0.060 NA
BRANCH  14  16
ATOM     16  C   UNL     1      19.362   8.836  28.550  0.00  0.00    +0.079 A 
ATOM     17  C   UNL     1      19.543  10.209  28.283  0.00  0.00    +0.062 A 
ATOM     18  C   UNL     1      19.160  11.149  29.264  0.00  0.00    +0.015 A 
ATOM     19  C   UNL     1      18.623  10.746  30.487  0.00  0.00    +0.001 A 
ATOM     20  C   UNL     1      18.431   9.396  30.743  0.00  0.00    +0.002 A 
ATOM     21  C   UNL     1      18.785   8.450  29.782  0.00  0.00    +0.028 A 
BRANCH  17  22
ATOM     22  C   UNL     1      19.942  10.756  26.956  0.00  0.00    +0.244 C 
ATOM     23  O   UNL     1      21.110  10.876  26.623  0.00  0.00    -0.270 OA
ATOM     24  N   UNL     1      18.942  11.092  26.082  0.00  0.00    -0.325 N 
ATOM     25  H   UNL     1      19.222  11.415  25.164  0.00  0.00    +0.145 HD
ATOM     26  H   UNL     1      17.955  11.010  26.275  0.00  0.00    +0.145 HD
ENDBRANCH  17  22
ENDBRANCH  14  16
ENDBRANCH  10  12
ENDBRANCH   9  10
ENDBRANCH   5   9
ENDBRANCH   4   7
ENDBRANCH   1   4
BRANCH   1  27
ATOM     27  C   UNL     1      16.371   1.106  24.658  0.00  0.00    +0.175 C 
BRANCH  27  28
ATOM     28  C   UNL     1      17.536   0.511  23.854  0.00  0.00    +0.176 C 
ATOM     29  O   UNL     1      17.580   1.184  22.566  0.00  0.00    -0.332 OA
ATOM     30  C   UNL     1      18.702   0.816  21.697  0.00  0.00    +0.277 C 
ATOM     31  C   UNL     1      18.745  -0.717  21.488  0.00  0.00    +0.110 C 
ATOM     32  C   UNL     1      18.669  -1.477  22.829  0.00  0.00    +0.143 C 
ATOM     33  C   UNL     1      17.467  -1.015  23.653  0.00  0.00    +0.133 C 
BRANCH  33  34
ATOM     34  N   UNL     1      17.454  -1.683  24.964  0.00  0.00    -0.308 N 
ATOM     35  H   UNL     1      18.171  -1.429  25.630  0.00  0.00    +0.149 HD
ATOM     36  C   UNL     1      16.558  -2.602  25.332  0.00  0.00    +0.210 C 
ATOM     37  C   UNL     1      15.495  -2.987  24.285  0.00  0.00    +0.109 C 
ATOM     38  O   UNL     1      16.563  -3.135  26.443  0.00  0.00    -0.276 OA
ENDBRANCH  33  34
BRANCH  30  39
ATOM     39  C   UNL     1      20.040   1.293  22.300  0.00  0.00    +0.414 C 
ATOM     40  O   UNL     1      21.055   0.610  22.174  0.00  0.00    -0.240 OA
ATOM     41  O   UNL     1      20.103   2.359  22.914  0.00  0.00    -0.240 OA
ENDBRANCH  30  39
BRANCH  32  42
ATOM     42  O   UNL     1      18.559  -2.879  22.582  0.00  0.00    -0.390 OA
ATOM     43  H   UNL     1      17.658  -3.165  22.748  0.00  0.00    +0.210 HD
ENDBRANCH  32  42
BRANCH  30  44
ATOM     44  O   UNL     1      18.496   1.448  20.407  0.00  0.00    -0.343 OA
ATOM     45  C   UNL     1      17.119   1.788  20.104  0.00  0.00    +0.198 C 
ENDBRANCH  30  44
ENDBRANCH  27  28
BRANCH  27  46
ATOM     46  O   UNL     1      16.103   2.453  24.221  0.00  0.00    -0.387 OA
ATOM     47  H   UNL     1      16.928   2.942  24.167  0.00  0.00    +0.210 HD
ENDBRANCH  27  46
ENDBRANCH   1  27
TORSDOF 15
