REMARK VINA RESULT:    -6.473     14.168     15.820
REMARK INTER + INTRA:         -14.528
REMARK INTER:                 -11.715
REMARK INTRA:                  -2.813
REMARK UNBOUND:                -2.378
REMARK  Name = lig_assembled_68.pdb
REMARK  19 active torsions:
REMARK  status: ('A' for Active; 'I' for Inactive)
REMARK    1  A    between atoms: _2  and  _9
REMARK    2  A    between atoms: _4  and  _21
REMARK    3  A    between atoms: _6  and  _7
REMARK    4  A    between atoms: _6  and  _21
REMARK    5  A    between atoms: _9  and  _10
REMARK    6  A    between atoms: _10  and  _11
REMARK    7  A    between atoms: _10  and  _16
REMARK    8  A    between atoms: _17  and  _37
REMARK    9  A    between atoms: _19  and  _25
REMARK   10  A    between atoms: _20  and  _24
REMARK   11  A    between atoms: _24  and  _25
REMARK   12  A    between atoms: _27  and  _28
REMARK   13  A    between atoms: _29  and  _30
REMARK   14  A    between atoms: _31  and  _33
REMARK   15  A    between atoms: _33  and  _34
REMARK   16  A    between atoms: _33  and  _35
REMARK   17  A    between atoms: _35  and  _36
REMARK   18  A    between atoms: _35  and  _37
REMARK   19  A    between atoms: _38  and  _40
REMARK                            x       y       z     vdW  Elec       q    Type
REMARK                         _______ _______ _______ _____ _____    ______ ____
ROOT
ATOM      1  C   UNL     1      18.891  10.641  29.611  0.00  0.00    +0.163 C 
ENDROOT
BRANCH   1   2
ATOM      2  O   UNL     1      17.538  11.098  29.454  0.00  0.00    -0.388 OA
ATOM      3  H   UNL     1      17.082  10.537  28.821  0.00  0.00    +0.210 HD
ENDBRANCH   1   2
BRANCH   1   4
ATOM      4  C   UNL     1      18.927   9.221  30.201  0.00  0.00    +0.175 C 
BRANCH   4   5
ATOM      5  C   UNL     1      18.010   9.080  31.426  0.00  0.00    +0.176 C 
ATOM      6  O   UNL     1      18.182  10.265  32.251  0.00  0.00    -0.332 OA
ATOM      7  C   UNL     1      17.302  10.356  33.420  0.00  0.00    +0.277 C 
ATOM      8  C   UNL     1      17.431   9.085  34.295  0.00  0.00    +0.110 C 
ATOM      9  C   UNL     1      17.287   7.799  33.456  0.00  0.00    +0.143 C 
ATOM     10  C   UNL     1      18.246   7.810  32.265  0.00  0.00    +0.133 C 
BRANCH  10  11
ATOM     11  N   UNL     1      18.039   6.620  31.424  0.00  0.00    -0.308 N 
ATOM     12  H   UNL     1      17.178   6.559  30.898  0.00  0.00    +0.149 HD
ATOM     13  C   UNL     1      18.913   5.617  31.312  0.00  0.00    +0.210 C 
ATOM     14  C   UNL     1      20.202   5.728  32.146  0.00  0.00    +0.109 C 
ATOM     15  O   UNL     1      18.718   4.639  30.588  0.00  0.00    -0.276 OA
ENDBRANCH  10  11
BRANCH   7  16
ATOM     16  C   UNL     1      15.833  10.536  32.986  0.00  0.00    +0.414 C 
ATOM     17  O   UNL     1      14.930   9.971  33.603  0.00  0.00    -0.240 OA
ATOM     18  O   UNL     1      15.550  11.245  32.019  0.00  0.00    -0.240 OA
ENDBRANCH   7  16
BRANCH   7  19
ATOM     19  O   UNL     1      17.721  11.499  34.209  0.00  0.00    -0.343 OA
ATOM     20  C   UNL     1      18.539  12.465  33.501  0.00  0.00    +0.198 C 
ENDBRANCH   7  19
BRANCH   9  21
ATOM     21  O   UNL     1      17.562   6.658  34.270  0.00  0.00    -0.390 OA
ATOM     22  H   UNL     1      18.378   6.245  33.978  0.00  0.00    +0.210 HD
ENDBRANCH   9  21
ENDBRANCH   4   5
BRANCH   4  23
ATOM     23  O   UNL     1      20.279   8.861  30.549  0.00  0.00    -0.387 OA
ATOM     24  H   UNL     1      20.545   8.089  30.044  0.00  0.00    +0.210 HD
ENDBRANCH   4  23
ENDBRANCH   1   4
BRANCH   1  25
ATOM     25  C   UNL     1      19.606  10.651  28.264  0.00  0.00    +0.141 C 
BRANCH  25  28
ATOM     26  C   UNL     1      20.349   9.018  26.566  0.00  0.00    +0.401 C 
ATOM     27  O   UNL     1      21.063   9.825  25.966  0.00  0.00    -0.226 OA
ATOM     28  N   UNL     1      19.628   9.320  27.646  0.00  0.00    -0.279 N 
ATOM     29  H   UNL     1      19.065   8.592  28.063  0.00  0.00    +0.152 HD
BRANCH  26  30
ATOM     30  O   UNL     1      20.271   7.672  26.090  0.00  0.00    -0.444 OA
BRANCH  30  31
ATOM     31  C   UNL     1      18.899   7.288  25.965  0.00  0.00    +0.292 C 
BRANCH  31  33
ATOM     32  N   UNL     1      18.365   5.252  27.275  0.00  0.00    -0.131 NA
ATOM     33  C   UNL     1      18.758   5.827  26.093  0.00  0.00    +0.120 A 
ATOM     34  C   UNL     1      18.976   4.838  25.163  0.00  0.00    +0.137 A 
ATOM     35  N   UNL     1      18.690   3.685  25.836  0.00  0.00    -0.249 N 
ATOM     36  N   UNL     1      18.334   3.936  27.107  0.00  0.00    -0.065 NA
BRANCH  35  37
ATOM     37  C   UNL     1      18.832   2.324  25.362  0.00  0.00    +0.181 C 
BRANCH  37  38
ATOM     38  C   UNL     1      17.527   1.780  24.767  0.00  0.00    +0.166 C 
BRANCH  38  39
ATOM     39  C   UNL     1      17.462   1.832  23.247  0.00  0.00    -0.017 A 
ATOM     40  C   UNL     1      18.117   0.833  22.504  0.00  0.00    +0.006 A 
ATOM     41  C   UNL     1      18.061   0.828  21.109  0.00  0.00    +0.000 A 
ATOM     42  C   UNL     1      17.346   1.813  20.435  0.00  0.00    +0.000 A 
ATOM     43  C   UNL     1      16.677   2.797  21.153  0.00  0.00    +0.000 A 
ATOM     44  C   UNL     1      16.730   2.805  22.550  0.00  0.00    +0.006 A 
ENDBRANCH  38  39
BRANCH  38  45
ATOM     45  O   UNL     1      16.427   2.538  25.282  0.00  0.00    -0.385 OA
ATOM     46  H   UNL     1      15.742   1.917  25.578  0.00  0.00    +0.210 HD
ENDBRANCH  38  45
ENDBRANCH  37  38
ENDBRANCH  35  37
ENDBRANCH  31  33
ENDBRANCH  30  31
ENDBRANCH  26  30
ENDBRANCH  25  28
ENDBRANCH   1  25
TORSDOF 17
