REMARK VINA RESULT:    -6.516     13.470     17.832
REMARK INTER + INTRA:         -14.651
REMARK INTER:                 -12.366
REMARK INTRA:                  -2.285
REMARK UNBOUND:                -2.230
REMARK  Name = lig_assembled_9.pdb
REMARK  20 active torsions:
REMARK  status: ('A' for Active; 'I' for Inactive)
REMARK    1  A    between atoms: _2  and  _9
REMARK    2  A    between atoms: _4  and  _23
REMARK    3  A    between atoms: _6  and  _7
REMARK    4  A    between atoms: _6  and  _23
REMARK    5  A    between atoms: _11  and  _12
REMARK    6  A    between atoms: _12  and  _17
REMARK    7  A    between atoms: _13  and  _14
REMARK    8  A    between atoms: _13  and  _17
REMARK    9  A    between atoms: _19  and  _39
REMARK   10  A    between atoms: _21  and  _27
REMARK   11  A    between atoms: _22  and  _26
REMARK   12  A    between atoms: _26  and  _27
REMARK   13  A    between atoms: _29  and  _30
REMARK   14  A    between atoms: _31  and  _32
REMARK   15  A    between atoms: _33  and  _35
REMARK   16  A    between atoms: _35  and  _36
REMARK   17  A    between atoms: _35  and  _37
REMARK   18  A    between atoms: _37  and  _38
REMARK   19  A    between atoms: _37  and  _39
REMARK   20  A    between atoms: _40  and  _42
REMARK                            x       y       z     vdW  Elec       q    Type
REMARK                         _______ _______ _______ _____ _____    ______ ____
ROOT
ATOM      1  C   UNL     1      18.233   2.730  27.954  0.00  0.00    +0.163 C 
ENDROOT
BRANCH   1   2
ATOM      2  O   UNL     1      17.612   3.597  28.917  0.00  0.00    -0.388 OA
ATOM      3  H   UNL     1      17.851   3.315  29.803  0.00  0.00    +0.210 HD
ENDBRANCH   1   2
BRANCH   1   4
ATOM      4  C   UNL     1      17.176   2.004  27.105  0.00  0.00    +0.175 C 
BRANCH   4   5
ATOM      5  C   UNL     1      17.720   1.599  25.727  0.00  0.00    +0.176 C 
ATOM      6  O   UNL     1      17.055   2.418  24.726  0.00  0.00    -0.332 OA
ATOM      7  C   UNL     1      17.527   2.244  23.349  0.00  0.00    +0.277 C 
ATOM      8  C   UNL     1      17.456   0.753  22.937  0.00  0.00    +0.110 C 
ATOM      9  C   UNL     1      18.122  -0.160  23.987  0.00  0.00    +0.143 C 
ATOM     10  C   UNL     1      17.559   0.107  25.383  0.00  0.00    +0.133 C 
BRANCH  10  11
ATOM     11  N   UNL     1      18.263  -0.707  26.387  0.00  0.00    -0.308 N 
ATOM     12  H   UNL     1      19.249  -0.535  26.527  0.00  0.00    +0.149 HD
ATOM     13  C   UNL     1      17.684  -1.659  27.124  0.00  0.00    +0.210 C 
ATOM     14  C   UNL     1      16.187  -1.915  26.868  0.00  0.00    +0.109 C 
ATOM     15  O   UNL     1      18.296  -2.315  27.968  0.00  0.00    -0.276 OA
ENDBRANCH  10  11
BRANCH   7  16
ATOM     16  C   UNL     1      18.976   2.752  23.199  0.00  0.00    +0.414 C 
ATOM     17  O   UNL     1      19.797   2.103  22.551  0.00  0.00    -0.240 OA
ATOM     18  O   UNL     1      19.325   3.809  23.726  0.00  0.00    -0.240 OA
ENDBRANCH   7  16
BRANCH   7  19
ATOM     19  O   UNL     1      16.651   3.002  22.475  0.00  0.00    -0.343 OA
ATOM     20  C   UNL     1      16.626   2.555  21.096  0.00  0.00    +0.198 C 
ENDBRANCH   7  19
BRANCH   9  21
ATOM     21  O   UNL     1      17.902  -1.529  23.644  0.00  0.00    -0.390 OA
ATOM     22  H   UNL     1      18.379  -2.094  24.256  0.00  0.00    +0.210 HD
ENDBRANCH   9  21
ENDBRANCH   4   5
BRANCH   4  23
ATOM     23  O   UNL     1      16.006   2.831  26.954  0.00  0.00    -0.387 OA
ATOM     24  H   UNL     1      15.417   2.438  26.305  0.00  0.00    +0.210 HD
ENDBRANCH   4  23
ENDBRANCH   1   4
BRANCH   1  25
ATOM     25  C   UNL     1      19.152   3.537  27.042  0.00  0.00    +0.141 C 
BRANCH  25  28
ATOM     26  C   UNL     1      19.222   5.966  26.597  0.00  0.00    +0.401 C 
ATOM     27  O   UNL     1      20.417   6.079  26.880  0.00  0.00    -0.226 OA
ATOM     28  N   UNL     1      18.549   4.817  26.651  0.00  0.00    -0.279 N 
ATOM     29  H   UNL     1      17.568   4.826  26.408  0.00  0.00    +0.152 HD
BRANCH  26  30
ATOM     30  O   UNL     1      18.493   7.126  26.187  0.00  0.00    -0.444 OA
BRANCH  30  31
ATOM     31  C   UNL     1      19.385   8.239  26.080  0.00  0.00    +0.292 C 
BRANCH  31  33
ATOM     32  N   UNL     1      18.591  10.445  26.872  0.00  0.00    -0.131 NA
ATOM     33  C   UNL     1      19.114   9.216  27.151  0.00  0.00    +0.121 A 
ATOM     34  C   UNL     1      19.299   9.103  28.509  0.00  0.00    +0.143 A 
ATOM     35  N   UNL     1      18.834  10.289  29.030  0.00  0.00    -0.220 N 
ATOM     36  N   UNL     1      18.432  11.094  28.018  0.00  0.00    -0.060 NA
BRANCH  35  37
ATOM     37  C   UNL     1      18.725  10.677  30.390  0.00  0.00    +0.068 A 
ATOM     38  C   UNL     1      17.589  10.337  31.139  0.00  0.00    +0.042 A 
ATOM     39  C   UNL     1      17.471  10.751  32.474  0.00  0.00    +0.061 A 
ATOM     40  C   UNL     1      18.496  11.503  33.060  0.00  0.00    +0.015 A 
ATOM     41  C   UNL     1      19.634  11.832  32.321  0.00  0.00    +0.003 A 
ATOM     42  C   UNL     1      19.752  11.421  30.992  0.00  0.00    +0.028 A 
BRANCH  39  43
ATOM     43  C   UNL     1      16.312  10.361  33.319  0.00  0.00    +0.339 C 
ATOM     44  O   UNL     1      16.176  10.704  34.482  0.00  0.00    -0.245 OA
BRANCH  43  45
ATOM     45  O   UNL     1      15.513   9.506  32.635  0.00  0.00    -0.461 OA
BRANCH  45  46
ATOM     46  C   UNL     1      15.208   8.276  33.304  0.00  0.00    +0.229 C 
ATOM     47  C   UNL     1      16.244   7.247  32.890  0.00  0.00    +0.048 C 
ENDBRANCH  45  46
ENDBRANCH  43  45
ENDBRANCH  39  43
ENDBRANCH  35  37
ENDBRANCH  31  33
ENDBRANCH  30  31
ENDBRANCH  26  30
ENDBRANCH  25  28
ENDBRANCH   1  25
TORSDOF 17
