REMARK VINA RESULT:    -5.970     14.626     17.982
REMARK INTER + INTRA:         -12.746
REMARK INTER:                 -10.949
REMARK INTRA:                  -1.797
REMARK UNBOUND:                -2.413
REMARK  Name = lig_assembled_8.pdb
REMARK  16 active torsions:
REMARK  status: ('A' for Active; 'I' for Inactive)
REMARK    1  A    between atoms: _2  and  _9
REMARK    2  A    between atoms: _4  and  _18
REMARK    3  A    between atoms: _6  and  _7
REMARK    4  A    between atoms: _6  and  _18
REMARK    5  A    between atoms: _14  and  _34
REMARK    6  A    between atoms: _16  and  _22
REMARK    7  A    between atoms: _17  and  _21
REMARK    8  A    between atoms: _21  and  _22
REMARK    9  A    between atoms: _24  and  _25
REMARK   10  A    between atoms: _26  and  _27
REMARK   11  A    between atoms: _28  and  _30
REMARK   12  A    between atoms: _30  and  _31
REMARK   13  A    between atoms: _30  and  _32
REMARK   14  A    between atoms: _32  and  _33
REMARK   15  A    between atoms: _32  and  _34
REMARK   16  A    between atoms: _35  and  _37
REMARK                            x       y       z     vdW  Elec       q    Type
REMARK                         _______ _______ _______ _____ _____    ______ ____
ROOT
ATOM      1  C   UNL     1      18.586   5.784  23.925  0.00  0.00    +0.163 C 
ENDROOT
BRANCH   1   2
ATOM      2  O   UNL     1      17.533   5.882  22.953  0.00  0.00    -0.388 OA
ATOM      3  H   UNL     1      17.804   6.469  22.244  0.00  0.00    +0.210 HD
ENDBRANCH   1   2
BRANCH   1   4
ATOM      4  C   UNL     1      19.654   6.836  23.645  0.00  0.00    +0.141 C 
BRANCH   4   7
ATOM      5  C   UNL     1      20.673   7.629  25.752  0.00  0.00    +0.401 C 
ATOM      6  O   UNL     1      21.447   6.673  25.847  0.00  0.00    -0.226 OA
ATOM      7  N   UNL     1      19.797   7.782  24.759  0.00  0.00    -0.279 N 
ATOM      8  H   UNL     1      19.197   8.595  24.773  0.00  0.00    +0.152 HD
BRANCH   5   9
ATOM      9  O   UNL     1      20.696   8.644  26.759  0.00  0.00    -0.444 OA
BRANCH   9  10
ATOM     10  C   UNL     1      19.538   9.473  26.628  0.00  0.00    +0.292 C 
BRANCH  10  12
ATOM     11  N   UNL     1      18.003  10.688  28.130  0.00  0.00    -0.131 NA
ATOM     12  C   UNL     1      18.926   9.707  27.949  0.00  0.00    +0.121 A 
ATOM     13  C   UNL     1      19.125   9.056  29.144  0.00  0.00    +0.143 A 
ATOM     14  N   UNL     1      18.270   9.668  30.045  0.00  0.00    -0.219 N 
ATOM     15  N   UNL     1      17.618  10.659  29.397  0.00  0.00    -0.060 NA
BRANCH  14  16
ATOM     16  C   UNL     1      18.058   9.342  31.421  0.00  0.00    +0.081 A 
ATOM     17  C   UNL     1      17.292   8.193  31.721  0.00  0.00    +0.029 A 
ATOM     18  C   UNL     1      17.021   7.818  33.039  0.00  0.00    +0.002 A 
ATOM     19  C   UNL     1      17.508   8.579  34.091  0.00  0.00    +0.001 A 
ATOM     20  C   UNL     1      18.272   9.711  33.821  0.00  0.00    +0.017 A 
ATOM     21  C   UNL     1      18.556  10.102  32.498  0.00  0.00    +0.043 A 
ATOM     22 BR   UNL     1      19.622  11.678  32.384  0.00  0.00    -0.048 Br
ENDBRANCH  14  16
ENDBRANCH  10  12
ENDBRANCH   9  10
ENDBRANCH   5   9
ENDBRANCH   4   7
ENDBRANCH   1   4
BRANCH   1  23
ATOM     23  C   UNL     1      19.225   4.385  23.906  0.00  0.00    +0.175 C 
BRANCH  23  24
ATOM     24  C   UNL     1      18.437   3.377  24.756  0.00  0.00    +0.176 C 
ATOM     25  O   UNL     1      19.297   2.941  25.844  0.00  0.00    -0.332 OA
ATOM     26  C   UNL     1      18.673   2.050  26.827  0.00  0.00    +0.277 C 
ATOM     27  C   UNL     1      18.053   0.818  26.123  0.00  0.00    +0.110 C 
ATOM     28  C   UNL     1      17.154   1.231  24.938  0.00  0.00    +0.143 C 
ATOM     29  C   UNL     1      17.902   2.159  23.980  0.00  0.00    +0.133 C 
BRANCH  29  30
ATOM     30  N   UNL     1      17.010   2.615  22.903  0.00  0.00    -0.308 N 
ATOM     31  H   UNL     1      16.245   3.226  23.151  0.00  0.00    +0.149 HD
ATOM     32  C   UNL     1      17.145   2.273  21.618  0.00  0.00    +0.210 C 
ATOM     33  C   UNL     1      18.305   1.320  21.277  0.00  0.00    +0.109 C 
ATOM     34  O   UNL     1      16.391   2.682  20.735  0.00  0.00    -0.276 OA
ENDBRANCH  29  30
BRANCH  26  35
ATOM     35  C   UNL     1      17.580   2.793  27.623  0.00  0.00    +0.414 C 
ATOM     36  O   UNL     1      17.878   3.453  28.618  0.00  0.00    -0.240 OA
ATOM     37  O   UNL     1      16.401   2.734  27.270  0.00  0.00    -0.240 OA
ENDBRANCH  26  35
BRANCH  28  38
ATOM     38  O   UNL     1      16.728   0.067  24.228  0.00  0.00    -0.390 OA
ATOM     39  H   UNL     1      15.949  -0.299  24.653  0.00  0.00    +0.210 HD
ENDBRANCH  28  38
BRANCH  26  40
ATOM     40  O   UNL     1      19.707   1.587  27.733  0.00  0.00    -0.343 OA
ATOM     41  C   UNL     1      21.065   1.849  27.297  0.00  0.00    +0.198 C 
ENDBRANCH  26  40
ENDBRANCH  23  24
BRANCH  23  42
ATOM     42  O   UNL     1      20.591   4.456  24.360  0.00  0.00    -0.387 OA
ATOM     43  H   UNL     1      20.781   5.347  24.665  0.00  0.00    +0.210 HD
ENDBRANCH  23  42
ENDBRANCH   1  23
TORSDOF 14
