REMARK VINA RESULT:    -5.864      6.957     11.751
REMARK INTER + INTRA:         -13.079
REMARK INTER:                 -10.814
REMARK INTRA:                  -2.265
REMARK UNBOUND:                -1.902
REMARK  Name = lig_assembled_13.pdb
REMARK  20 active torsions:
REMARK  status: ('A' for Active; 'I' for Inactive)
REMARK    1  A    between atoms: _2  and  _9
REMARK    2  A    between atoms: _4  and  _18
REMARK    3  A    between atoms: _5  and  _11
REMARK    4  A    between atoms: _6  and  _7
REMARK    5  A    between atoms: _6  and  _18
REMARK    6  A    between atoms: _9  and  _10
REMARK    7  A    between atoms: _10  and  _12
REMARK    8  A    between atoms: _11  and  _12
REMARK    9  A    between atoms: _14  and  _34
REMARK   10  A    between atoms: _16  and  _22
REMARK   11  A    between atoms: _17  and  _21
REMARK   12  A    between atoms: _21  and  _22
REMARK   13  A    between atoms: _24  and  _25
REMARK   14  A    between atoms: _26  and  _27
REMARK   15  A    between atoms: _28  and  _30
REMARK   16  A    between atoms: _30  and  _31
REMARK   17  A    between atoms: _30  and  _32
REMARK   18  A    between atoms: _32  and  _33
REMARK   19  A    between atoms: _32  and  _34
REMARK   20  A    between atoms: _35  and  _37
REMARK                            x       y       z     vdW  Elec       q    Type
REMARK                         _______ _______ _______ _____ _____    ______ ____
ROOT
ATOM      1  C   UNL     1       8.550   2.689  35.789  0.00  0.00    +0.163 C 
ENDROOT
BRANCH   1   2
ATOM      2  O   UNL     1       8.823   3.423  36.994  0.00  0.00    -0.388 OA
ATOM      3  H   UNL     1       9.051   2.812  37.698  0.00  0.00    +0.210 HD
ENDBRANCH   1   2
BRANCH   1   4
ATOM      4  C   UNL     1       8.495   3.629  34.572  0.00  0.00    +0.175 C 
BRANCH   4   5
ATOM      5  C   UNL     1       7.377   4.673  34.699  0.00  0.00    +0.176 C 
ATOM      6  O   UNL     1       7.762   5.617  35.736  0.00  0.00    -0.332 OA
ATOM      7  C   UNL     1       6.857   6.755  35.926  0.00  0.00    +0.277 C 
ATOM      8  C   UNL     1       5.412   6.260  36.179  0.00  0.00    +0.110 C 
ATOM      9  C   UNL     1       4.969   5.230  35.119  0.00  0.00    +0.143 C 
ATOM     10  C   UNL     1       5.983   4.092  35.002  0.00  0.00    +0.133 C 
BRANCH  10  11
ATOM     11  N   UNL     1       5.595   3.163  33.930  0.00  0.00    -0.308 N 
ATOM     12  H   UNL     1       5.645   3.496  32.977  0.00  0.00    +0.149 HD
ATOM     13  C   UNL     1       5.179   1.910  34.133  0.00  0.00    +0.210 C 
ATOM     14  C   UNL     1       5.089   1.442  35.598  0.00  0.00    +0.109 C 
ATOM     15  O   UNL     1       4.874   1.149  33.214  0.00  0.00    -0.276 OA
ENDBRANCH  10  11
BRANCH   7  16
ATOM     16  C   UNL     1       6.877   7.681  34.692  0.00  0.00    +0.414 C 
ATOM     17  O   UNL     1       5.822   8.041  34.170  0.00  0.00    -0.240 OA
ATOM     18  O   UNL     1       7.946   8.068  34.219  0.00  0.00    -0.240 OA
ENDBRANCH   7  16
BRANCH   7  19
ATOM     19  O   UNL     1       7.300   7.491  37.095  0.00  0.00    -0.343 OA
ATOM     20  C   UNL     1       8.518   6.994  37.706  0.00  0.00    +0.198 C 
ENDBRANCH   7  19
BRANCH   9  21
ATOM     21  O   UNL     1       3.695   4.690  35.475  0.00  0.00    -0.390 OA
ATOM     22  H   UNL     1       3.524   3.902  34.955  0.00  0.00    +0.210 HD
ENDBRANCH   9  21
ENDBRANCH   4   5
BRANCH   4  23
ATOM     23  O   UNL     1       8.326   2.864  33.362  0.00  0.00    -0.387 OA
ATOM     24  H   UNL     1       7.390   2.732  33.195  0.00  0.00    +0.210 HD
ENDBRANCH   4  23
ENDBRANCH   1   4
BRANCH   1  25
ATOM     25  C   UNL     1       9.627   1.632  35.568  0.00  0.00    +0.141 C 
BRANCH  25  28
ATOM     26  C   UNL     1      11.801   2.798  35.430  0.00  0.00    +0.401 C 
ATOM     27  O   UNL     1      11.876   3.001  36.644  0.00  0.00    -0.226 OA
ATOM     28  N   UNL     1      10.783   2.171  34.840  0.00  0.00    -0.279 N 
ATOM     29  H   UNL     1      10.807   2.061  33.836  0.00  0.00    +0.152 HD
BRANCH  26  30
ATOM     30  O   UNL     1      12.858   3.257  34.583  0.00  0.00    -0.444 OA
BRANCH  30  31
ATOM     31  C   UNL     1      14.048   3.433  35.356  0.00  0.00    +0.292 C 
BRANCH  31  33
ATOM     32  N   UNL     1      14.214   5.902  35.380  0.00  0.00    -0.131 NA
ATOM     33  C   UNL     1      14.719   4.692  34.988  0.00  0.00    +0.120 A 
ATOM     34  C   UNL     1      15.861   4.897  34.252  0.00  0.00    +0.137 A 
ATOM     35  N   UNL     1      15.960   6.256  34.172  0.00  0.00    -0.241 N 
ATOM     36  N   UNL     1      14.998   6.856  34.891  0.00  0.00    -0.065 NA
BRANCH  35  37
ATOM     37  C   UNL     1      16.987   7.044  33.527  0.00  0.00    +0.265 C 
BRANCH  37  38
ATOM     38  C   UNL     1      16.494   8.411  33.151  0.00  0.00    +0.329 C 
ATOM     39  O   UNL     1      15.670   8.676  32.288  0.00  0.00    -0.249 OA
BRANCH  38  40
ATOM     40  O   UNL     1      17.197   9.347  33.858  0.00  0.00    -0.464 OA
BRANCH  40  41
ATOM     41  C   UNL     1      16.438  10.498  34.259  0.00  0.00    +0.229 C 
ATOM     42  C   UNL     1      17.111  11.726  33.672  0.00  0.00    +0.048 C 
ENDBRANCH  40  41
ENDBRANCH  38  40
ENDBRANCH  37  38
ENDBRANCH  35  37
ENDBRANCH  31  33
ENDBRANCH  30  31
ENDBRANCH  26  30
ENDBRANCH  25  28
ENDBRANCH   1  25
TORSDOF 17
