REMARK VINA RESULT:    -6.622      2.290      3.781
REMARK INTER + INTRA:         -13.529
REMARK INTER:                 -11.485
REMARK INTRA:                  -2.044
REMARK UNBOUND:                -1.294
REMARK  Name = lig_assembled_24.pdb
REMARK  19 active torsions:
REMARK  status: ('A' for Active; 'I' for Inactive)
REMARK    1  A    between atoms: _2  and  _9
REMARK    2  A    between atoms: _4  and  _21
REMARK    3  A    between atoms: _6  and  _7
REMARK    4  A    between atoms: _6  and  _21
REMARK    5  A    between atoms: _9  and  _10
REMARK    6  A    between atoms: _13  and  _16
REMARK    7  A    between atoms: _14  and  _16
REMARK    8  A    between atoms: _17  and  _37
REMARK    9  A    between atoms: _19  and  _25
REMARK   10  A    between atoms: _20  and  _24
REMARK   11  A    between atoms: _24  and  _25
REMARK   12  A    between atoms: _27  and  _28
REMARK   13  A    between atoms: _29  and  _30
REMARK   14  A    between atoms: _31  and  _33
REMARK   15  A    between atoms: _33  and  _34
REMARK   16  A    between atoms: _33  and  _35
REMARK   17  A    between atoms: _35  and  _36
REMARK   18  A    between atoms: _35  and  _37
REMARK   19  A    between atoms: _38  and  _40
REMARK                            x       y       z     vdW  Elec       q    Type
REMARK                         _______ _______ _______ _____ _____    ______ ____
ROOT
ATOM      1  C   UNL     1      -0.105   4.026  32.052  0.00  0.00    +0.163 C 
ENDROOT
BRANCH   1   2
ATOM      2  O   UNL     1      -0.654   2.737  32.369  0.00  0.00    -0.388 OA
ATOM      3  H   UNL     1      -1.474   2.610  31.886  0.00  0.00    +0.210 HD
ENDBRANCH   1   2
BRANCH   1   4
ATOM      4  C   UNL     1       1.296   3.890  31.430  0.00  0.00    +0.175 C 
BRANCH   4   5
ATOM      5  C   UNL     1       2.298   3.245  32.399  0.00  0.00    +0.176 C 
ATOM      6  O   UNL     1       3.312   4.237  32.718  0.00  0.00    -0.332 OA
ATOM      7  C   UNL     1       4.302   3.831  33.721  0.00  0.00    +0.277 C 
ATOM      8  C   UNL     1       4.981   2.503  33.304  0.00  0.00    +0.110 C 
ATOM      9  C   UNL     1       3.942   1.427  32.924  0.00  0.00    +0.143 C 
ATOM     10  C   UNL     1       2.960   1.957  31.878  0.00  0.00    +0.133 C 
BRANCH  10  11
ATOM     11  N   UNL     1       1.924   0.953  31.589  0.00  0.00    -0.308 N 
ATOM     12  H   UNL     1       1.373   0.608  32.363  0.00  0.00    +0.149 HD
ATOM     13  C   UNL     1       1.664   0.469  30.372  0.00  0.00    +0.210 C 
ATOM     14  C   UNL     1       2.538   0.996  29.218  0.00  0.00    +0.109 C 
ATOM     15  O   UNL     1       0.779  -0.361  30.157  0.00  0.00    -0.276 OA
ENDBRANCH  10  11
BRANCH   7  16
ATOM     16  C   UNL     1       3.642   3.660  35.104  0.00  0.00    +0.414 C 
ATOM     17  O   UNL     1       2.706   4.386  35.438  0.00  0.00    -0.240 OA
ATOM     18  O   UNL     1       4.044   2.797  35.886  0.00  0.00    -0.240 OA
ENDBRANCH   7  16
BRANCH   7  19
ATOM     19  O   UNL     1       5.320   4.862  33.789  0.00  0.00    -0.343 OA
ATOM     20  C   UNL     1       6.655   4.386  34.094  0.00  0.00    +0.198 C 
ENDBRANCH   7  19
BRANCH   9  21
ATOM     21  O   UNL     1       4.608   0.276  32.404  0.00  0.00    -0.390 OA
ATOM     22  H   UNL     1       3.965  -0.416  32.231  0.00  0.00    +0.210 HD
ENDBRANCH   9  21
ENDBRANCH   4   5
BRANCH   4  23
ATOM     23  O   UNL     1       1.777   5.180  31.003  0.00  0.00    -0.387 OA
ATOM     24  H   UNL     1       1.043   5.796  30.956  0.00  0.00    +0.210 HD
ENDBRANCH   4  23
ENDBRANCH   1   4
BRANCH   1  25
ATOM     25  C   UNL     1      -1.024   4.760  31.080  0.00  0.00    +0.141 C 
BRANCH  25  28
ATOM     26  C   UNL     1      -1.791   3.456  29.126  0.00  0.00    +0.401 C 
ATOM     27  O   UNL     1      -2.820   3.059  29.677  0.00  0.00    -0.226 OA
ATOM     28  N   UNL     1      -0.892   4.249  29.710  0.00  0.00    -0.279 N 
ATOM     29  H   UNL     1      -0.073   4.514  29.180  0.00  0.00    +0.152 HD
BRANCH  26  30
ATOM     30  O   UNL     1      -1.521   3.051  27.781  0.00  0.00    -0.444 OA
BRANCH  30  31
ATOM     31  C   UNL     1      -0.113   3.102  27.540  0.00  0.00    +0.292 C 
BRANCH  31  33
ATOM     32  N   UNL     1      -0.571   4.984  25.998  0.00  0.00    -0.131 NA
ATOM     33  C   UNL     1       0.171   3.879  26.318  0.00  0.00    +0.120 A 
ATOM     34  C   UNL     1       1.141   3.695  25.360  0.00  0.00    +0.137 A 
ATOM     35  N   UNL     1       0.987   4.758  24.519  0.00  0.00    -0.247 N 
ATOM     36  N   UNL     1      -0.070   5.510  24.890  0.00  0.00    -0.065 NA
BRANCH  35  37
ATOM     37  C   UNL     1       1.788   5.199  23.388  0.00  0.00    +0.180 C 
BRANCH  37  38
ATOM     38  C   UNL     1       1.277   4.753  22.039  0.00  0.00    -0.026 A 
ATOM     39  C   UNL     1       2.052   3.916  21.226  0.00  0.00    +0.009 A 
ATOM     40  C   UNL     1       1.570   3.506  19.979  0.00  0.00    +0.046 A 
ATOM     41  C   UNL     1       0.309   3.908  19.536  0.00  0.00    +0.120 A 
ATOM     42  C   UNL     1      -0.456   4.759  20.329  0.00  0.00    +0.046 A 
ATOM     43  C   UNL     1       0.023   5.179  21.575  0.00  0.00    +0.009 A 
BRANCH  41  44
ATOM     44  O   UNL     1      -0.045   3.461  18.293  0.00  0.00    -0.495 OA
ATOM     45  C   UNL     1       1.031   3.011  17.476  0.00  0.00    +0.277 C 
ENDBRANCH  41  44
ENDBRANCH  37  38
ENDBRANCH  35  37
ENDBRANCH  31  33
ENDBRANCH  30  31
ENDBRANCH  26  30
ENDBRANCH  25  28
ENDBRANCH   1  25
TORSDOF 16
