REMARK VINA RESULT:    -6.514     14.991     18.461
REMARK INTER + INTRA:         -13.560
REMARK INTER:                 -11.901
REMARK INTRA:                  -1.658
REMARK UNBOUND:                -1.905
REMARK  Name = lig_assembled_38.pdb
REMARK  17 active torsions:
REMARK  status: ('A' for Active; 'I' for Inactive)
REMARK    1  A    between atoms: _2  and  _9
REMARK    2  A    between atoms: _4  and  _19
REMARK    3  A    between atoms: _6  and  _7
REMARK    4  A    between atoms: _6  and  _19
REMARK    5  A    between atoms: _9  and  _10
REMARK    6  A    between atoms: _15  and  _35
REMARK    7  A    between atoms: _17  and  _23
REMARK    8  A    between atoms: _18  and  _22
REMARK    9  A    between atoms: _22  and  _23
REMARK   10  A    between atoms: _25  and  _26
REMARK   11  A    between atoms: _27  and  _28
REMARK   12  A    between atoms: _29  and  _31
REMARK   13  A    between atoms: _31  and  _32
REMARK   14  A    between atoms: _31  and  _33
REMARK   15  A    between atoms: _33  and  _34
REMARK   16  A    between atoms: _33  and  _35
REMARK   17  A    between atoms: _36  and  _38
REMARK                            x       y       z     vdW  Elec       q    Type
REMARK                         _______ _______ _______ _____ _____    ______ ____
ROOT
ATOM      1  C   UNL     1      17.096   1.962  26.086  0.00  0.00    +0.163 C 
ENDROOT
BRANCH   1   2
ATOM      2  O   UNL     1      16.154   2.798  26.777  0.00  0.00    -0.388 OA
ATOM      3  H   UNL     1      15.569   2.251  27.308  0.00  0.00    +0.210 HD
ENDBRANCH   1   2
BRANCH   1   4
ATOM      4  C   UNL     1      18.431   2.685  25.945  0.00  0.00    +0.141 C 
BRANCH   4   7
ATOM      5  C   UNL     1      19.257   4.961  25.450  0.00  0.00    +0.401 C 
ATOM      6  O   UNL     1      20.441   4.620  25.393  0.00  0.00    -0.226 OA
ATOM      7  N   UNL     1      18.252   4.123  25.709  0.00  0.00    -0.279 N 
ATOM      8  H   UNL     1      17.315   4.499  25.744  0.00  0.00    +0.152 HD
BRANCH   5   9
ATOM      9  O   UNL     1      18.918   6.333  25.233  0.00  0.00    -0.444 OA
BRANCH   9  10
ATOM     10  C   UNL     1      20.086   7.144  25.383  0.00  0.00    +0.292 C 
BRANCH  10  12
ATOM     11  N   UNL     1      21.109   8.286  27.329  0.00  0.00    -0.131 NA
ATOM     12  C   UNL     1      19.990   7.964  26.607  0.00  0.00    +0.120 A 
ATOM     13  C   UNL     1      18.890   8.546  27.196  0.00  0.00    +0.137 A 
ATOM     14  N   UNL     1      19.412   9.256  28.239  0.00  0.00    -0.247 N 
ATOM     15  N   UNL     1      20.745   9.085  28.323  0.00  0.00    -0.065 NA
BRANCH  14  16
ATOM     16  C   UNL     1      18.754  10.281  29.031  0.00  0.00    +0.180 C 
BRANCH  16  17
ATOM     17  C   UNL     1      18.226   9.774  30.350  0.00  0.00    -0.025 A 
ATOM     18  C   UNL     1      18.056   8.399  30.578  0.00  0.00    +0.005 A 
ATOM     19  C   UNL     1      17.652   7.931  31.833  0.00  0.00    +0.001 A 
ATOM     20  C   UNL     1      17.413   8.829  32.872  0.00  0.00    +0.015 A 
ATOM     21  C   UNL     1      17.569  10.193  32.650  0.00  0.00    +0.018 A 
ATOM     22 BR   UNL     1      17.255  11.414  34.059  0.00  0.00    -0.050 Br
ATOM     23  C   UNL     1      17.972  10.670  31.401  0.00  0.00    +0.020 A 
ENDBRANCH  16  17
ENDBRANCH  14  16
ENDBRANCH  10  12
ENDBRANCH   9  10
ENDBRANCH   5   9
ENDBRANCH   4   7
ENDBRANCH   1   4
BRANCH   1  24
ATOM     24  C   UNL     1      16.571   1.578  24.692  0.00  0.00    +0.175 C 
BRANCH  24  25
ATOM     25  C   UNL     1      17.649   0.900  23.834  0.00  0.00    +0.176 C 
ATOM     26  O   UNL     1      17.637   1.528  22.522  0.00  0.00    -0.332 OA
ATOM     27  C   UNL     1      18.680   1.078  21.595  0.00  0.00    +0.277 C 
ATOM     28  C   UNL     1      18.638  -0.462  21.438  0.00  0.00    +0.110 C 
ATOM     29  C   UNL     1      18.617  -1.173  22.808  0.00  0.00    +0.143 C 
ATOM     30  C   UNL     1      17.496  -0.626  23.693  0.00  0.00    +0.133 C 
BRANCH  30  31
ATOM     31  N   UNL     1      17.541  -1.249  25.025  0.00  0.00    -0.308 N 
ATOM     32  H   UNL     1      18.308  -1.003  25.635  0.00  0.00    +0.149 HD
ATOM     33  C   UNL     1      16.635  -2.118  25.481  0.00  0.00    +0.210 C 
ATOM     34  C   UNL     1      15.494  -2.493  24.517  0.00  0.00    +0.109 C 
ATOM     35  O   UNL     1      16.691  -2.613  26.607  0.00  0.00    -0.276 OA
ENDBRANCH  30  31
BRANCH  27  36
ATOM     36  C   UNL     1      20.076   1.508  22.091  0.00  0.00    +0.414 C 
ATOM     37  O   UNL     1      20.189   2.407  22.924  0.00  0.00    -0.240 OA
ATOM     38  O   UNL     1      21.089   0.957  21.659  0.00  0.00    -0.240 OA
ENDBRANCH  27  36
BRANCH  27  39
ATOM     39  O   UNL     1      18.417   1.677  20.299  0.00  0.00    -0.343 OA
ATOM     40  C   UNL     1      17.014   1.886  19.995  0.00  0.00    +0.198 C 
ENDBRANCH  27  39
BRANCH  29  41
ATOM     41  O   UNL     1      18.425  -2.575  22.620  0.00  0.00    -0.390 OA
ATOM     42  H   UNL     1      19.191  -3.051  22.950  0.00  0.00    +0.210 HD
ENDBRANCH  29  41
ENDBRANCH  24  25
BRANCH  24  43
ATOM     43  O   UNL     1      16.058   2.744  24.016  0.00  0.00    -0.387 OA
ATOM     44  H   UNL     1      16.572   3.514  24.271  0.00  0.00    +0.210 HD
ENDBRANCH  24  43
ENDBRANCH   1  24
TORSDOF 15
