REMARK VINA RESULT:    -7.040      7.415     12.387
REMARK INTER + INTRA:         -14.302
REMARK INTER:                 -12.595
REMARK INTRA:                  -1.706
REMARK UNBOUND:                -1.294
REMARK  Name = lig_assembled_24.pdb
REMARK  19 active torsions:
REMARK  status: ('A' for Active; 'I' for Inactive)
REMARK    1  A    between atoms: _2  and  _9
REMARK    2  A    between atoms: _4  and  _21
REMARK    3  A    between atoms: _6  and  _7
REMARK    4  A    between atoms: _6  and  _21
REMARK    5  A    between atoms: _9  and  _10
REMARK    6  A    between atoms: _13  and  _16
REMARK    7  A    between atoms: _14  and  _16
REMARK    8  A    between atoms: _17  and  _37
REMARK    9  A    between atoms: _19  and  _25
REMARK   10  A    between atoms: _20  and  _24
REMARK   11  A    between atoms: _24  and  _25
REMARK   12  A    between atoms: _27  and  _28
REMARK   13  A    between atoms: _29  and  _30
REMARK   14  A    between atoms: _31  and  _33
REMARK   15  A    between atoms: _33  and  _34
REMARK   16  A    between atoms: _33  and  _35
REMARK   17  A    between atoms: _35  and  _36
REMARK   18  A    between atoms: _35  and  _37
REMARK   19  A    between atoms: _38  and  _40
REMARK                            x       y       z     vdW  Elec       q    Type
REMARK                         _______ _______ _______ _____ _____    ______ ____
ROOT
ATOM      1  C   UNL     1       7.244   2.505  34.485  0.00  0.00    +0.163 C 
ENDROOT
BRANCH   1   2
ATOM      2  O   UNL     1       7.282   2.478  35.921  0.00  0.00    -0.388 OA
ATOM      3  H   UNL     1       7.062   1.596  36.231  0.00  0.00    +0.210 HD
ENDBRANCH   1   2
BRANCH   1   4
ATOM      4  C   UNL     1       7.742   3.857  33.946  0.00  0.00    +0.175 C 
BRANCH   4   5
ATOM      5  C   UNL     1       7.164   5.041  34.736  0.00  0.00    +0.176 C 
ATOM      6  O   UNL     1       7.888   5.135  35.993  0.00  0.00    -0.332 OA
ATOM      7  C   UNL     1       7.543   6.282  36.839  0.00  0.00    +0.277 C 
ATOM      8  C   UNL     1       6.018   6.315  37.109  0.00  0.00    +0.110 C 
ATOM      9  C   UNL     1       5.206   6.185  35.803  0.00  0.00    +0.143 C 
ATOM     10  C   UNL     1       5.649   4.962  35.000  0.00  0.00    +0.133 C 
BRANCH  10  11
ATOM     11  N   UNL     1       4.929   4.898  33.719  0.00  0.00    -0.308 N 
ATOM     12  H   UNL     1       5.154   5.589  33.017  0.00  0.00    +0.149 HD
ATOM     13  C   UNL     1       3.998   3.987  33.423  0.00  0.00    +0.210 C 
ATOM     14  C   UNL     1       3.660   2.964  34.523  0.00  0.00    +0.109 C 
ATOM     15  O   UNL     1       3.422   3.949  32.335  0.00  0.00    -0.276 OA
ENDBRANCH  10  11
BRANCH   7  16
ATOM     16  C   UNL     1       7.977   7.604  36.173  0.00  0.00    +0.414 C 
ATOM     17  O   UNL     1       8.086   8.630  36.844  0.00  0.00    -0.240 OA
ATOM     18  O   UNL     1       8.219   7.645  34.966  0.00  0.00    -0.240 OA
ENDBRANCH   7  16
BRANCH   7  19
ATOM     19  O   UNL     1       8.228   6.126  38.108  0.00  0.00    -0.343 OA
ATOM     20  C   UNL     1       9.647   5.844  38.007  0.00  0.00    +0.198 C 
ENDBRANCH   7  19
BRANCH   9  21
ATOM     21  O   UNL     1       3.816   6.068  36.110  0.00  0.00    -0.390 OA
ATOM     22  H   UNL     1       3.500   5.203  35.841  0.00  0.00    +0.210 HD
ENDBRANCH   9  21
ENDBRANCH   4   5
BRANCH   4  23
ATOM     23  O   UNL     1       7.415   3.985  32.548  0.00  0.00    -0.387 OA
ATOM     24  H   UNL     1       7.318   3.112  32.160  0.00  0.00    +0.210 HD
ENDBRANCH   4  23
ENDBRANCH   1   4
BRANCH   1  25
ATOM     25  C   UNL     1       8.108   1.382  33.919  0.00  0.00    +0.141 C 
BRANCH  25  28
ATOM     26  C   UNL     1      10.370   1.646  34.879  0.00  0.00    +0.401 C 
ATOM     27  O   UNL     1      10.050   1.219  35.991  0.00  0.00    -0.226 OA
ATOM     28  N   UNL     1       9.524   1.761  33.854  0.00  0.00    -0.279 N 
ATOM     29  H   UNL     1       9.879   2.131  32.983  0.00  0.00    +0.152 HD
BRANCH  26  30
ATOM     30  O   UNL     1      11.722   2.050  34.652  0.00  0.00    -0.444 OA
BRANCH  30  31
ATOM     31  C   UNL     1      12.277   2.564  35.866  0.00  0.00    +0.292 C 
BRANCH  31  33
ATOM     32  N   UNL     1      13.755   3.782  34.298  0.00  0.00    -0.131 NA
ATOM     33  C   UNL     1      13.290   3.595  35.572  0.00  0.00    +0.120 A 
ATOM     34  C   UNL     1      13.899   4.500  36.411  0.00  0.00    +0.137 A 
ATOM     35  N   UNL     1      14.672   5.258  35.581  0.00  0.00    -0.247 N 
ATOM     36  N   UNL     1      14.608   4.796  34.315  0.00  0.00    -0.065 NA
BRANCH  35  37
ATOM     37  C   UNL     1      15.457   6.454  35.843  0.00  0.00    +0.180 C 
BRANCH  37  38
ATOM     38  C   UNL     1      15.968   7.157  34.609  0.00  0.00    -0.026 A 
ATOM     39  C   UNL     1      17.208   6.813  34.056  0.00  0.00    +0.009 A 
ATOM     40  C   UNL     1      17.673   7.468  32.912  0.00  0.00    +0.046 A 
ATOM     41  C   UNL     1      16.905   8.459  32.297  0.00  0.00    +0.120 A 
ATOM     42  C   UNL     1      15.683   8.823  32.856  0.00  0.00    +0.046 A 
ATOM     43  C   UNL     1      15.215   8.176  34.006  0.00  0.00    +0.009 A 
BRANCH  41  44
ATOM     44  O   UNL     1      17.473   9.042  31.198  0.00  0.00    -0.495 OA
ATOM     45  C   UNL     1      18.370   8.216  30.462  0.00  0.00    +0.277 C 
ENDBRANCH  41  44
ENDBRANCH  37  38
ENDBRANCH  35  37
ENDBRANCH  31  33
ENDBRANCH  30  31
ENDBRANCH  26  30
ENDBRANCH  25  28
ENDBRANCH   1  25
TORSDOF 16
