REMARK VINA RESULT:    -7.453      1.559      2.446
REMARK INTER + INTRA:         -17.462
REMARK INTER:                 -13.199
REMARK INTRA:                  -4.263
REMARK UNBOUND:                -3.474
REMARK  Name = lig_assembled_34.pdb
REMARK  19 active torsions:
REMARK  status: ('A' for Active; 'I' for Inactive)
REMARK    1  A    between atoms: _2  and  _9
REMARK    2  A    between atoms: _4  and  _37
REMARK    3  A    between atoms: _6  and  _7
REMARK    4  A    between atoms: _6  and  _37
REMARK    5  A    between atoms: _11  and  _12
REMARK    6  A    between atoms: _13  and  _14
REMARK    7  A    between atoms: _18  and  _31
REMARK    8  A    between atoms: _33  and  _53
REMARK    9  A    between atoms: _35  and  _41
REMARK   10  A    between atoms: _36  and  _40
REMARK   11  A    between atoms: _40  and  _41
REMARK   12  A    between atoms: _43  and  _44
REMARK   13  A    between atoms: _45  and  _46
REMARK   14  A    between atoms: _47  and  _49
REMARK   15  A    between atoms: _49  and  _50
REMARK   16  A    between atoms: _49  and  _51
REMARK   17  A    between atoms: _51  and  _52
REMARK   18  A    between atoms: _51  and  _53
REMARK   19  A    between atoms: _54  and  _56
REMARK                            x       y       z     vdW  Elec       q    Type
REMARK                         _______ _______ _______ _____ _____    ______ ____
ROOT
ATOM      1  N   UNL     1       1.333  22.490  13.305  0.00  0.00    -0.131 NA
ATOM      2  C   UNL     1       2.331  23.030  14.066  0.00  0.00    +0.121 A 
ATOM      3  C   UNL     1       1.957  22.983  15.386  0.00  0.00    +0.143 A 
ATOM      4  N   UNL     1       0.721  22.374  15.399  0.00  0.00    -0.220 N 
ATOM      5  N   UNL     1       0.351  22.107  14.118  0.00  0.00    -0.060 NA
ENDROOT
BRANCH   4   6
ATOM      6  C   UNL     1      -0.064  22.012  16.527  0.00  0.00    +0.068 A 
ATOM      7  C   UNL     1       0.358  22.376  17.809  0.00  0.00    +0.038 A 
ATOM      8  C   UNL     1      -0.304  21.942  18.984  0.00  0.00    +0.007 A 
ATOM      9  C   UNL     1      -1.478  21.174  18.850  0.00  0.00    -0.008 A 
ATOM     10  C   UNL     1      -1.927  20.851  17.546  0.00  0.00    +0.011 A 
ATOM     11  C   UNL     1      -1.224  21.248  16.395  0.00  0.00    +0.028 A 
BRANCH   9  12
ATOM     12  C   UNL     1      -2.255  20.598  19.995  0.00  0.00    +0.004 A 
ATOM     13  C   UNL     1      -3.339  21.227  20.532  0.00  0.00    +0.026 A 
ATOM     14  C   UNL     1      -3.797  22.545  20.077  0.00  0.00    +0.016 A 
ATOM     15  C   UNL     1      -4.743  23.227  20.740  0.00  0.00    +0.051 A 
ATOM     16  C   UNL     1      -5.386  22.649  21.944  0.00  0.00    +0.183 A 
ATOM     17  O   UNL     1      -6.206  23.289  22.598  0.00  0.00    -0.288 OA
ATOM     18  C   UNL     1      -5.060  21.250  22.285  0.00  0.00    +0.097 A 
ATOM     19  C   UNL     1      -4.127  20.580  21.598  0.00  0.00    +0.140 A 
ATOM     20  O   UNL     1      -3.957  19.229  21.864  0.00  0.00    -0.455 OA
ATOM     21  C   UNL     1      -2.851  18.597  21.362  0.00  0.00    +0.140 A 
ATOM     22  C   UNL     1      -2.678  17.264  21.735  0.00  0.00    +0.092 A 
ATOM     23  C   UNL     1      -1.550  16.580  21.309  0.00  0.00    +0.120 A 
ATOM     24  C   UNL     1      -0.559  17.235  20.586  0.00  0.00    +0.046 A 
ATOM     25  C   UNL     1      -0.752  18.567  20.209  0.00  0.00    +0.016 A 
ATOM     26  C   UNL     1      -1.934  19.248  20.540  0.00  0.00    +0.026 A 
BRANCH  23  27
ATOM     27  O   UNL     1      -1.447  15.254  21.610  0.00  0.00    -0.507 OA
ATOM     28  H   UNL     1      -1.944  14.761  20.937  0.00  0.00    +0.292 HD
ENDBRANCH  23  27
ENDBRANCH   9  12
BRANCH   8  29
ATOM     29  C   UNL     1       0.364  22.283  20.302  0.00  0.00    +0.072 C 
ATOM     30  O   UNL     1       0.113  23.438  20.774  0.00  0.00    -0.545 OA
ATOM     31  O   UNL     1       1.172  21.445  20.800  0.00  0.00    -0.545 OA
ENDBRANCH   8  29
ENDBRANCH   4   6
BRANCH   2  32
ATOM     32  C   UNL     1       3.579  23.555  13.479  0.00  0.00    +0.292 C 
BRANCH  32  33
ATOM     33  O   UNL     1       4.710  22.818  13.951  0.00  0.00    -0.444 OA
BRANCH  33  34
ATOM     34  C   UNL     1       4.813  21.588  13.230  0.00  0.00    +0.401 C 
ATOM     35  O   UNL     1       5.208  21.609  12.062  0.00  0.00    -0.226 OA
ATOM     36  N   UNL     1       4.473  20.475  13.882  0.00  0.00    -0.279 N 
ATOM     37  H   UNL     1       4.170  20.559  14.842  0.00  0.00    +0.152 HD
BRANCH  36  38
ATOM     38  C   UNL     1       4.514  19.135  13.283  0.00  0.00    +0.141 C 
BRANCH  38  39
ATOM     39  C   UNL     1       3.121  18.630  12.925  0.00  0.00    +0.163 C 
BRANCH  39  40
ATOM     40  O   UNL     1       2.131  19.596  13.317  0.00  0.00    -0.388 OA
ATOM     41  H   UNL     1       1.760  20.009  12.534  0.00  0.00    +0.210 HD
ENDBRANCH  39  40
BRANCH  39  42
ATOM     42  C   UNL     1       3.048  18.349  11.415  0.00  0.00    +0.175 C 
BRANCH  42  43
ATOM     43  C   UNL     1       1.600  18.220  10.920  0.00  0.00    +0.176 C 
ATOM     44  O   UNL     1       0.889  17.347  11.840  0.00  0.00    -0.332 OA
ATOM     45  C   UNL     1      -0.546  17.190  11.585  0.00  0.00    +0.277 C 
ATOM     46  C   UNL     1      -0.789  16.724  10.128  0.00  0.00    +0.110 C 
ATOM     47  C   UNL     1      -0.027  17.603   9.114  0.00  0.00    +0.143 C 
ATOM     48  C   UNL     1       1.456  17.700   9.477  0.00  0.00    +0.133 C 
BRANCH  48  49
ATOM     49  N   UNL     1       2.153  18.610   8.555  0.00  0.00    -0.308 N 
ATOM     50  H   UNL     1       1.906  19.589   8.581  0.00  0.00    +0.149 HD
ATOM     51  C   UNL     1       3.092  18.226   7.686  0.00  0.00    +0.210 C 
ATOM     52  C   UNL     1       3.428  16.723   7.652  0.00  0.00    +0.109 C 
ATOM     53  O   UNL     1       3.670  19.013   6.935  0.00  0.00    -0.276 OA
ENDBRANCH  48  49
BRANCH  45  54
ATOM     54  C   UNL     1      -1.294  18.516  11.832  0.00  0.00    +0.414 C 
ATOM     55  O   UNL     1      -2.366  18.739  11.270  0.00  0.00    -0.240 OA
ATOM     56  O   UNL     1      -0.827  19.364  12.594  0.00  0.00    -0.240 OA
ENDBRANCH  45  54
BRANCH  47  57
ATOM     57  O   UNL     1      -0.155  17.049   7.804  0.00  0.00    -0.390 OA
ATOM     58  H   UNL     1       0.418  16.283   7.722  0.00  0.00    +0.210 HD
ENDBRANCH  47  57
BRANCH  45  59
ATOM     59  O   UNL     1      -1.053  16.169  12.482  0.00  0.00    -0.343 OA
ATOM     60  C   UNL     1      -0.071  15.194  12.917  0.00  0.00    +0.198 C 
ENDBRANCH  45  59
ENDBRANCH  42  43
BRANCH  42  61
ATOM     61  O   UNL     1       3.790  17.155  11.095  0.00  0.00    -0.387 OA
ATOM     62  H   UNL     1       3.180  16.435  10.921  0.00  0.00    +0.210 HD
ENDBRANCH  42  61
ENDBRANCH  39  42
ENDBRANCH  38  39
ENDBRANCH  36  38
ENDBRANCH  33  34
ENDBRANCH  32  33
ENDBRANCH   2  32
TORSDOF 17
