REMARK VINA RESULT:    -5.673     13.731     15.854
REMARK INTER + INTRA:         -14.207
REMARK INTER:                 -11.655
REMARK INTRA:                  -2.551
REMARK UNBOUND:                -2.564
REMARK  Name = lig_assembled_74.pdb
REMARK  24 active torsions:
REMARK  status: ('A' for Active; 'I' for Inactive)
REMARK    1  A    between atoms: _2  and  _9
REMARK    2  A    between atoms: _4  and  _22
REMARK    3  A    between atoms: _5  and  _14
REMARK    4  A    between atoms: _6  and  _7
REMARK    5  A    between atoms: _6  and  _22
REMARK    6  A    between atoms: _9  and  _10
REMARK    7  A    between atoms: _10  and  _11
REMARK    8  A    between atoms: _10  and  _13
REMARK    9  A    between atoms: _11  and  _12
REMARK   10  A    between atoms: _12  and  _16
REMARK   11  A    between atoms: _13  and  _14
REMARK   12  A    between atoms: _14  and  _15
REMARK   13  A    between atoms: _18  and  _38
REMARK   14  A    between atoms: _20  and  _26
REMARK   15  A    between atoms: _21  and  _25
REMARK   16  A    between atoms: _25  and  _26
REMARK   17  A    between atoms: _28  and  _29
REMARK   18  A    between atoms: _30  and  _31
REMARK   19  A    between atoms: _32  and  _34
REMARK   20  A    between atoms: _34  and  _35
REMARK   21  A    between atoms: _34  and  _36
REMARK   22  A    between atoms: _36  and  _37
REMARK   23  A    between atoms: _36  and  _38
REMARK   24  A    between atoms: _39  and  _41
REMARK                            x       y       z     vdW  Elec       q    Type
REMARK                         _______ _______ _______ _____ _____    ______ ____
ROOT
ATOM      1  C   UNL     1       6.966   3.820  33.456  0.00  0.00    +0.163 C 
ENDROOT
BRANCH   1   2
ATOM      2  O   UNL     1       7.562   5.017  32.931  0.00  0.00    -0.388 OA
ATOM      3  H   UNL     1       7.973   4.825  32.084  0.00  0.00    +0.210 HD
ENDBRANCH   1   2
BRANCH   1   4
ATOM      4  C   UNL     1       5.755   4.153  34.345  0.00  0.00    +0.175 C 
BRANCH   4   5
ATOM      5  C   UNL     1       6.061   5.283  35.338  0.00  0.00    +0.176 C 
ATOM      6  O   UNL     1       7.449   5.152  35.752  0.00  0.00    -0.332 OA
ATOM      7  C   UNL     1       7.953   6.215  36.626  0.00  0.00    +0.277 C 
ATOM      8  C   UNL     1       7.047   6.366  37.873  0.00  0.00    +0.110 C 
ATOM      9  C   UNL     1       5.558   6.477  37.485  0.00  0.00    +0.143 C 
ATOM     10  C   UNL     1       5.141   5.323  36.573  0.00  0.00    +0.133 C 
BRANCH  10  11
ATOM     11  N   UNL     1       3.744   5.487  36.140  0.00  0.00    -0.308 N 
ATOM     12  H   UNL     1       3.538   6.228  35.484  0.00  0.00    +0.149 HD
ATOM     13  C   UNL     1       2.732   4.721  36.556  0.00  0.00    +0.210 C 
ATOM     14  C   UNL     1       3.075   3.618  37.574  0.00  0.00    +0.109 C 
ATOM     15  O   UNL     1       1.574   4.872  36.165  0.00  0.00    -0.276 OA
ENDBRANCH  10  11
BRANCH   7  16
ATOM     16  C   UNL     1       8.018   7.559  35.871  0.00  0.00    +0.414 C 
ATOM     17  O   UNL     1       8.219   8.606  36.485  0.00  0.00    -0.240 OA
ATOM     18  O   UNL     1       7.871   7.596  34.649  0.00  0.00    -0.240 OA
ENDBRANCH   7  16
BRANCH   9  19
ATOM     19  O   UNL     1       4.750   6.461  38.663  0.00  0.00    -0.390 OA
ATOM     20  H   UNL     1       3.872   6.139  38.445  0.00  0.00    +0.210 HD
ENDBRANCH   9  19
BRANCH   7  21
ATOM     21  O   UNL     1       9.282   5.839  37.070  0.00  0.00    -0.343 OA
ATOM     22  C   UNL     1       9.400   5.565  38.489  0.00  0.00    +0.198 C 
ENDBRANCH   7  21
ENDBRANCH   4   5
BRANCH   4  23
ATOM     23  O   UNL     1       5.319   2.975  35.052  0.00  0.00    -0.387 OA
ATOM     24  H   UNL     1       5.963   2.272  34.932  0.00  0.00    +0.210 HD
ENDBRANCH   4  23
ENDBRANCH   1   4
BRANCH   1  25
ATOM     25  C   UNL     1       6.525   2.911  32.313  0.00  0.00    +0.141 C 
BRANCH  25  28
ATOM     26  C   UNL     1       4.415   1.738  31.788  0.00  0.00    +0.401 C 
ATOM     27  O   UNL     1       4.973   0.705  31.412  0.00  0.00    -0.226 OA
ATOM     28  N   UNL     1       5.063   2.821  32.219  0.00  0.00    -0.279 N 
ATOM     29  H   UNL     1       4.517   3.624  32.497  0.00  0.00    +0.152 HD
BRANCH  26  30
ATOM     30  O   UNL     1       2.986   1.804  31.764  0.00  0.00    -0.444 OA
BRANCH  30  31
ATOM     31  C   UNL     1       2.575   3.139  31.459  0.00  0.00    +0.292 C 
BRANCH  31  33
ATOM     32  N   UNL     1       0.800   3.843  29.871  0.00  0.00    -0.131 NA
ATOM     33  C   UNL     1       1.992   3.210  30.104  0.00  0.00    +0.120 A 
ATOM     34  C   UNL     1       2.515   2.780  28.903  0.00  0.00    +0.137 A 
ATOM     35  N   UNL     1       1.688   3.344  27.973  0.00  0.00    -0.251 N 
ATOM     36  N   UNL     1       0.610   3.897  28.559  0.00  0.00    -0.065 NA
BRANCH  35  37
ATOM     37  C   UNL     1       2.016   3.668  26.599  0.00  0.00    +0.149 C 
BRANCH  37  38
ATOM     38  C   UNL     1       1.263   2.855  25.524  0.00  0.00    +0.021 C 
BRANCH  38  39
ATOM     39  C   UNL     1      -0.091   3.475  25.121  0.00  0.00    +0.125 C 
BRANCH  39  40
ATOM     40  C   UNL     1      -0.142   4.988  25.192  0.00  0.00    +0.305 C 
ATOM     41  O   UNL     1      -0.800   5.628  25.995  0.00  0.00    -0.251 OA
BRANCH  40  42
ATOM     42  O   UNL     1       0.678   5.583  24.306  0.00  0.00    -0.481 OA
ATOM     43  H   UNL     1       0.924   5.043  23.533  0.00  0.00    +0.295 HD
ENDBRANCH  40  42
ENDBRANCH  39  40
ENDBRANCH  38  39
BRANCH  38  44
ATOM     44  C   UNL     1       1.138   1.377  25.998  0.00  0.00    +0.009 C 
BRANCH  44  45
ATOM     45  C   UNL     1       2.308   0.446  25.616  0.00  0.00    -0.017 C 
ATOM     46  C   UNL     1       2.755  -0.433  26.787  0.00  0.00    +0.007 C 
ATOM     47  C   UNL     1       1.918  -0.454  24.438  0.00  0.00    +0.007 C 
ENDBRANCH  44  45
ENDBRANCH  38  44
ENDBRANCH  37  38
ENDBRANCH  35  37
ENDBRANCH  31  33
ENDBRANCH  30  31
ENDBRANCH  26  30
ENDBRANCH  25  28
ENDBRANCH   1  25
TORSDOF 20
