REMARK VINA RESULT:    -6.911     20.972     24.423
REMARK INTER + INTRA:         -14.836
REMARK INTER:                 -12.214
REMARK INTRA:                  -2.622
REMARK UNBOUND:                -2.067
REMARK  Name = lig_assembled_79.pdb
REMARK  20 active torsions:
REMARK  status: ('A' for Active; 'I' for Inactive)
REMARK    1  A    between atoms: _2  and  _10
REMARK    2  A    between atoms: _5  and  _26
REMARK    3  A    between atoms: _7  and  _8
REMARK    4  A    between atoms: _7  and  _26
REMARK    5  A    between atoms: _10  and  _11
REMARK    6  A    between atoms: _10  and  _12
REMARK    7  A    between atoms: _10  and  _13
REMARK    8  A    between atoms: _13  and  _14
REMARK    9  A    between atoms: _22  and  _42
REMARK   10  A    between atoms: _24  and  _30
REMARK   11  A    between atoms: _25  and  _29
REMARK   12  A    between atoms: _29  and  _30
REMARK   13  A    between atoms: _32  and  _33
REMARK   14  A    between atoms: _34  and  _35
REMARK   15  A    between atoms: _36  and  _38
REMARK   16  A    between atoms: _38  and  _39
REMARK   17  A    between atoms: _38  and  _40
REMARK   18  A    between atoms: _40  and  _41
REMARK   19  A    between atoms: _40  and  _42
REMARK   20  A    between atoms: _43  and  _45
REMARK                            x       y       z     vdW  Elec       q    Type
REMARK                         _______ _______ _______ _____ _____    ______ ____
ROOT
ATOM      1  C   UNL     1      18.555   5.780  23.978  0.00  0.00    +0.401 C 
ATOM      2  O   UNL     1      18.368   6.643  23.117  0.00  0.00    -0.226 OA
ATOM      3  N   UNL     1      18.203   4.501  23.840  0.00  0.00    -0.279 N 
ATOM      4  H   UNL     1      18.408   3.865  24.598  0.00  0.00    +0.152 HD
ENDROOT
BRANCH   3   5
ATOM      5  C   UNL     1      17.534   3.964  22.648  0.00  0.00    +0.141 C 
BRANCH   5   6
ATOM      6  C   UNL     1      16.922   2.592  22.909  0.00  0.00    +0.163 C 
BRANCH   6   7
ATOM      7  O   UNL     1      17.305   1.677  21.870  0.00  0.00    -0.388 OA
ATOM      8  H   UNL     1      16.588   1.592  21.237  0.00  0.00    +0.210 HD
ENDBRANCH   6   7
BRANCH   6   9
ATOM      9  C   UNL     1      17.376   2.080  24.287  0.00  0.00    +0.175 C 
BRANCH   9  10
ATOM     10  C   UNL     1      18.230   0.808  24.179  0.00  0.00    +0.176 C 
ATOM     11  O   UNL     1      17.339  -0.337  24.271  0.00  0.00    -0.332 OA
ATOM     12  C   UNL     1      17.969  -1.647  24.080  0.00  0.00    +0.277 C 
ATOM     13  C   UNL     1      19.154  -1.826  25.061  0.00  0.00    +0.110 C 
ATOM     14  C   UNL     1      20.112  -0.617  25.022  0.00  0.00    +0.143 C 
ATOM     15  C   UNL     1      19.352   0.693  25.228  0.00  0.00    +0.133 C 
BRANCH  15  16
ATOM     16  N   UNL     1      20.261   1.843  25.102  0.00  0.00    -0.308 N 
ATOM     17  H   UNL     1      20.738   1.973  24.221  0.00  0.00    +0.149 HD
ATOM     18  C   UNL     1      20.498   2.726  26.077  0.00  0.00    +0.210 C 
ATOM     19  C   UNL     1      19.776   2.485  27.416  0.00  0.00    +0.109 C 
ATOM     20  O   UNL     1      21.255   3.688  25.938  0.00  0.00    -0.276 OA
ENDBRANCH  15  16
BRANCH  12  21
ATOM     21  C   UNL     1      18.472  -1.807  22.630  0.00  0.00    +0.414 C 
ATOM     22  O   UNL     1      19.172  -2.770  22.319  0.00  0.00    -0.240 OA
ATOM     23  O   UNL     1      18.178  -0.973  21.773  0.00  0.00    -0.240 OA
ENDBRANCH  12  21
BRANCH  14  24
ATOM     24  O   UNL     1      21.101  -0.752  26.044  0.00  0.00    -0.390 OA
ATOM     25  H   UNL     1      20.708  -1.165  26.817  0.00  0.00    +0.210 HD
ENDBRANCH  14  24
BRANCH  12  26
ATOM     26  O   UNL     1      16.979  -2.668  24.369  0.00  0.00    -0.343 OA
ATOM     27  C   UNL     1      15.601  -2.231  24.263  0.00  0.00    +0.198 C 
ENDBRANCH  12  26
ENDBRANCH   9  10
BRANCH   9  28
ATOM     28  O   UNL     1      16.231   1.840  25.130  0.00  0.00    -0.387 OA
ATOM     29  H   UNL     1      15.850   0.985  24.916  0.00  0.00    +0.210 HD
ENDBRANCH   9  28
ENDBRANCH   6   9
ENDBRANCH   5   6
ENDBRANCH   3   5
BRANCH   1  30
ATOM     30  O   UNL     1      19.191   6.148  25.204  0.00  0.00    -0.444 OA
BRANCH  30  31
ATOM     31  C   UNL     1      20.325   6.975  24.925  0.00  0.00    +0.292 C 
BRANCH  31  33
ATOM     32  N   UNL     1      21.503   8.851  26.009  0.00  0.00    -0.131 NA
ATOM     33  C   UNL     1      20.366   8.112  25.861  0.00  0.00    +0.120 A 
ATOM     34  C   UNL     1      19.392   8.613  26.696  0.00  0.00    +0.138 A 
ATOM     35  N   UNL     1      19.961   9.718  27.265  0.00  0.00    -0.238 N 
ATOM     36  N   UNL     1      21.265   9.799  26.900  0.00  0.00    -0.064 NA
BRANCH  35  37
ATOM     37  C   UNL     1      19.450  10.651  28.312  0.00  0.00    +0.122 C 
ATOM     38  C   UNL     1      17.915  10.717  28.128  0.00  0.00    +0.044 C 
ATOM     39  C   UNL     1      20.188  11.979  28.055  0.00  0.00    +0.044 C 
BRANCH  37  40
ATOM     40  C   UNL     1      19.721  10.168  29.752  0.00  0.00    +0.192 C 
ATOM     41  O   UNL     1      20.754  10.506  30.338  0.00  0.00    -0.289 OA
BRANCH  40  42
ATOM     42  C   UNL     1      18.784   9.271  30.489  0.00  0.00    +0.045 A 
ATOM     43  C   UNL     1      18.800   7.902  30.245  0.00  0.00    +0.095 A 
ATOM     44  N   UNL     1      17.851   7.288  31.003  0.00  0.00    -0.360 N 
ATOM     45  H   UNL     1      17.652   6.297  31.002  0.00  0.00    +0.165 HD
ATOM     46  C   UNL     1      17.187   8.216  31.764  0.00  0.00    +0.047 A 
ATOM     47  C   UNL     1      16.136   8.018  32.671  0.00  0.00    +0.026 A 
ATOM     48  C   UNL     1      15.615   9.131  33.330  0.00  0.00    +0.002 A 
ATOM     49  C   UNL     1      16.131  10.394  33.090  0.00  0.00    +0.001 A 
ATOM     50  C   UNL     1      17.182  10.571  32.182  0.00  0.00    +0.011 A 
ATOM     51  C   UNL     1      17.743   9.472  31.482  0.00  0.00    +0.010 A 
ENDBRANCH  40  42
ENDBRANCH  37  40
ENDBRANCH  35  37
ENDBRANCH  31  33
ENDBRANCH  30  31
ENDBRANCH   1  30
TORSDOF 16
