REMARK VINA RESULT:    -5.633     22.632     25.629
REMARK INTER + INTRA:         -12.639
REMARK INTER:                 -10.242
REMARK INTRA:                  -2.397
REMARK UNBOUND:                -1.902
REMARK  Name = lig_assembled_13.pdb
REMARK  20 active torsions:
REMARK  status: ('A' for Active; 'I' for Inactive)
REMARK    1  A    between atoms: _2  and  _9
REMARK    2  A    between atoms: _4  and  _18
REMARK    3  A    between atoms: _5  and  _11
REMARK    4  A    between atoms: _6  and  _7
REMARK    5  A    between atoms: _6  and  _18
REMARK    6  A    between atoms: _9  and  _10
REMARK    7  A    between atoms: _10  and  _12
REMARK    8  A    between atoms: _11  and  _12
REMARK    9  A    between atoms: _14  and  _34
REMARK   10  A    between atoms: _16  and  _22
REMARK   11  A    between atoms: _17  and  _21
REMARK   12  A    between atoms: _21  and  _22
REMARK   13  A    between atoms: _24  and  _25
REMARK   14  A    between atoms: _26  and  _27
REMARK   15  A    between atoms: _28  and  _30
REMARK   16  A    between atoms: _30  and  _31
REMARK   17  A    between atoms: _30  and  _32
REMARK   18  A    between atoms: _32  and  _33
REMARK   19  A    between atoms: _32  and  _34
REMARK   20  A    between atoms: _35  and  _37
REMARK                            x       y       z     vdW  Elec       q    Type
REMARK                         _______ _______ _______ _____ _____    ______ ____
ROOT
ATOM      1  C   UNL     1       2.503  16.286   8.532  0.00  0.00    +0.163 C 
ENDROOT
BRANCH   1   2
ATOM      2  O   UNL     1       2.111  15.798   7.239  0.00  0.00    -0.388 OA
ATOM      3  H   UNL     1       1.153  15.804   7.171  0.00  0.00    +0.210 HD
ENDBRANCH   1   2
BRANCH   1   4
ATOM      4  C   UNL     1       2.538  15.145   9.563  0.00  0.00    +0.175 C 
BRANCH   4   5
ATOM      5  C   UNL     1       1.305  15.157  10.480  0.00  0.00    +0.176 C 
ATOM      6  O   UNL     1       0.156  14.747   9.689  0.00  0.00    -0.332 OA
ATOM      7  C   UNL     1      -1.102  14.598  10.428  0.00  0.00    +0.277 C 
ATOM      8  C   UNL     1      -1.434  15.899  11.199  0.00  0.00    +0.110 C 
ATOM      9  C   UNL     1      -0.231  16.391  12.030  0.00  0.00    +0.143 C 
ATOM     10  C   UNL     1       1.024  16.508  11.163  0.00  0.00    +0.133 C 
BRANCH  10  11
ATOM     11  N   UNL     1       2.183  16.894  11.984  0.00  0.00    -0.308 N 
ATOM     12  H   UNL     1       2.554  16.210  12.627  0.00  0.00    +0.149 HD
ATOM     13  C   UNL     1       2.776  18.090  11.934  0.00  0.00    +0.210 C 
ATOM     14  C   UNL     1       2.170  19.120  10.962  0.00  0.00    +0.109 C 
ATOM     15  O   UNL     1       3.754  18.381  12.622  0.00  0.00    -0.276 OA
ENDBRANCH  10  11
BRANCH   7  16
ATOM     16  C   UNL     1      -1.017  13.419  11.419  0.00  0.00    +0.414 C 
ATOM     17  O   UNL     1      -1.116  13.617  12.629  0.00  0.00    -0.240 OA
ATOM     18  O   UNL     1      -0.849  12.269  11.009  0.00  0.00    -0.240 OA
ENDBRANCH   7  16
BRANCH   7  19
ATOM     19  O   UNL     1      -2.160  14.352   9.467  0.00  0.00    -0.343 OA
ATOM     20  C   UNL     1      -3.431  14.975   9.784  0.00  0.00    +0.198 C 
ENDBRANCH   7  19
BRANCH   9  21
ATOM     21  O   UNL     1      -0.529  17.666  12.600  0.00  0.00    -0.390 OA
ATOM     22  H   UNL     1      -1.263  18.065  12.127  0.00  0.00    +0.210 HD
ENDBRANCH   9  21
ENDBRANCH   4   5
BRANCH   4  23
ATOM     23  O   UNL     1       3.743  15.223  10.351  0.00  0.00    -0.387 OA
ATOM     24  H   UNL     1       3.755  16.051  10.836  0.00  0.00    +0.210 HD
ENDBRANCH   4  23
ENDBRANCH   1   4
BRANCH   1  25
ATOM     25  C   UNL     1       3.880  16.938   8.448  0.00  0.00    +0.141 C 
BRANCH  25  28
ATOM     26  C   UNL     1       5.261  17.076   6.404  0.00  0.00    +0.401 C 
ATOM     27  O   UNL     1       5.150  18.300   6.299  0.00  0.00    -0.226 OA
ATOM     28  N   UNL     1       4.695  16.357   7.374  0.00  0.00    -0.279 N 
ATOM     29  H   UNL     1       4.836  15.357   7.370  0.00  0.00    +0.152 HD
BRANCH  26  30
ATOM     30  O   UNL     1       6.035  16.363   5.435  0.00  0.00    -0.444 OA
BRANCH  30  31
ATOM     31  C   UNL     1       5.188  15.943   4.362  0.00  0.00    +0.292 C 
BRANCH  31  33
ATOM     32  N   UNL     1       3.730  14.156   5.260  0.00  0.00    -0.131 NA
ATOM     33  C   UNL     1       4.821  14.525   4.521  0.00  0.00    +0.120 A 
ATOM     34  C   UNL     1       5.431  13.398   4.024  0.00  0.00    +0.137 A 
ATOM     35  N   UNL     1       4.704  12.371   4.552  0.00  0.00    -0.241 N 
ATOM     36  N   UNL     1       3.656  12.830   5.255  0.00  0.00    -0.065 NA
BRANCH  35  37
ATOM     37  C   UNL     1       4.882  10.951   4.351  0.00  0.00    +0.265 C 
BRANCH  37  38
ATOM     38  C   UNL     1       5.728  10.332   5.426  0.00  0.00    +0.329 C 
ATOM     39  O   UNL     1       6.946  10.398   5.522  0.00  0.00    -0.249 OA
BRANCH  38  40
ATOM     40  O   UNL     1       4.930   9.578   6.241  0.00  0.00    -0.464 OA
BRANCH  40  41
ATOM     41  C   UNL     1       4.336   8.431   5.614  0.00  0.00    +0.229 C 
ATOM     42  C   UNL     1       3.254   7.904   6.539  0.00  0.00    +0.048 C 
ENDBRANCH  40  41
ENDBRANCH  38  40
ENDBRANCH  37  38
ENDBRANCH  35  37
ENDBRANCH  31  33
ENDBRANCH  30  31
ENDBRANCH  26  30
ENDBRANCH  25  28
ENDBRANCH   1  25
TORSDOF 17
