REMARK VINA RESULT:    -6.439      1.838      4.218
REMARK INTER + INTRA:         -13.583
REMARK INTER:                 -12.167
REMARK INTRA:                  -1.416
REMARK UNBOUND:                -1.873
REMARK  Name = lig_assembled_60.pdb
REMARK  18 active torsions:
REMARK  status: ('A' for Active; 'I' for Inactive)
REMARK    1  A    between atoms: _2  and  _10
REMARK    2  A    between atoms: _3  and  _41
REMARK    3  A    between atoms: _5  and  _21
REMARK    4  A    between atoms: _7  and  _8
REMARK    5  A    between atoms: _7  and  _21
REMARK    6  A    between atoms: _13  and  _41
REMARK    7  A    between atoms: _17  and  _37
REMARK    8  A    between atoms: _19  and  _25
REMARK    9  A    between atoms: _20  and  _24
REMARK   10  A    between atoms: _24  and  _25
REMARK   11  A    between atoms: _27  and  _28
REMARK   12  A    between atoms: _29  and  _30
REMARK   13  A    between atoms: _31  and  _33
REMARK   14  A    between atoms: _33  and  _34
REMARK   15  A    between atoms: _33  and  _35
REMARK   16  A    between atoms: _35  and  _36
REMARK   17  A    between atoms: _35  and  _37
REMARK   18  A    between atoms: _38  and  _40
REMARK                            x       y       z     vdW  Elec       q    Type
REMARK                         _______ _______ _______ _____ _____    ______ ____
ROOT
ATOM      1  C   UNL     1       2.305   2.622  32.007  0.00  0.00    +0.141 C 
ENDROOT
BRANCH   1   4
ATOM      2  C   UNL     1       0.884   3.826  30.384  0.00  0.00    +0.401 C 
ATOM      3  O   UNL     1       0.270   4.458  31.247  0.00  0.00    -0.226 OA
ATOM      4  N   UNL     1       1.846   2.943  30.650  0.00  0.00    -0.279 N 
ATOM      5  H   UNL     1       2.285   2.467  29.874  0.00  0.00    +0.152 HD
BRANCH   2   6
ATOM      6  O   UNL     1       0.558   4.035  29.007  0.00  0.00    -0.444 OA
BRANCH   6   7
ATOM      7  C   UNL     1       0.813   2.837  28.269  0.00  0.00    +0.292 C 
BRANCH   7   9
ATOM      8  N   UNL     1       2.419   3.938  26.740  0.00  0.00    -0.131 NA
ATOM      9  C   UNL     1       1.311   3.162  26.919  0.00  0.00    +0.121 A 
ATOM     10  C   UNL     1       0.825   2.782  25.690  0.00  0.00    +0.143 A 
ATOM     11  N   UNL     1       1.701   3.326  24.777  0.00  0.00    -0.220 N 
ATOM     12  N   UNL     1       2.645   4.041  25.437  0.00  0.00    -0.060 NA
BRANCH  11  13
ATOM     13  C   UNL     1       1.717   3.175  23.366  0.00  0.00    +0.067 A 
ATOM     14  C   UNL     1       1.779   1.898  22.785  0.00  0.00    +0.030 A 
ATOM     15  C   UNL     1       1.865   1.764  21.398  0.00  0.00    +0.030 A 
ATOM     16  C   UNL     1       1.874   2.903  20.589  0.00  0.00    +0.105 A 
ATOM     17  C   UNL     1       1.797   4.179  21.156  0.00  0.00    +0.030 A 
ATOM     18  C   UNL     1       1.711   4.313  22.545  0.00  0.00    +0.030 A 
BRANCH  16  19
ATOM     19  S   UNL     1       2.062   2.722  18.840  0.00  0.00    +0.056 S 
ATOM     20  O   UNL     1       1.612   3.927  18.185  0.00  0.00    -0.153 OA
ATOM     21  O   UNL     1       3.346   2.120  18.564  0.00  0.00    -0.153 OA
BRANCH  19  22
ATOM     22  N   UNL     1       0.916   1.548  18.494  0.00  0.00    -0.204 NA
ATOM     23  H   UNL     1      -0.021   1.944  18.576  0.00  0.00    +0.144 HD
ATOM     24  H   UNL     1       1.071   0.730  19.084  0.00  0.00    +0.144 HD
ENDBRANCH  19  22
ENDBRANCH  16  19
ENDBRANCH  11  13
ENDBRANCH   7   9
ENDBRANCH   6   7
ENDBRANCH   2   6
ENDBRANCH   1   4
BRANCH   1  25
ATOM     25  C   UNL     1       3.740   3.078  32.246  0.00  0.00    +0.163 C 
BRANCH  25  26
ATOM     26  O   UNL     1       3.772   4.494  32.488  0.00  0.00    -0.388 OA
ATOM     27  H   UNL     1       3.359   4.955  31.754  0.00  0.00    +0.210 HD
ENDBRANCH  25  26
BRANCH  25  28
ATOM     28  C   UNL     1       4.336   2.303  33.433  0.00  0.00    +0.175 C 
BRANCH  28  29
ATOM     29  C   UNL     1       5.652   1.603  33.065  0.00  0.00    +0.176 C 
ATOM     30  O   UNL     1       5.550   0.213  33.478  0.00  0.00    -0.332 OA
ATOM     31  C   UNL     1       6.683  -0.643  33.110  0.00  0.00    +0.277 C 
ATOM     32  C   UNL     1       8.009  -0.038  33.631  0.00  0.00    +0.110 C 
ATOM     33  C   UNL     1       8.148   1.450  33.243  0.00  0.00    +0.143 C 
ATOM     34  C   UNL     1       6.914   2.245  33.670  0.00  0.00    +0.133 C 
BRANCH  34  35
ATOM     35  N   UNL     1       7.020   3.642  33.219  0.00  0.00    -0.308 N 
ATOM     36  H   UNL     1       6.991   3.819  32.224  0.00  0.00    +0.149 HD
ATOM     37  C   UNL     1       7.152   4.690  34.037  0.00  0.00    +0.210 C 
ATOM     38  C   UNL     1       7.219   4.383  35.545  0.00  0.00    +0.109 C 
ATOM     39  O   UNL     1       7.224   5.850  33.630  0.00  0.00    -0.276 OA
ENDBRANCH  34  35
BRANCH  31  40
ATOM     40  C   UNL     1       6.761  -0.817  31.579  0.00  0.00    +0.414 C 
ATOM     41  O   UNL     1       5.806  -0.505  30.870  0.00  0.00    -0.240 OA
ATOM     42  O   UNL     1       7.779  -1.269  31.054  0.00  0.00    -0.240 OA
ENDBRANCH  31  40
BRANCH  33  43
ATOM     43  O   UNL     1       9.306   2.005  33.869  0.00  0.00    -0.390 OA
ATOM     44  H   UNL     1       9.571   2.802  33.404  0.00  0.00    +0.210 HD
ENDBRANCH  33  43
BRANCH  31  45
ATOM     45  O   UNL     1       6.491  -1.936  33.740  0.00  0.00    -0.343 OA
ATOM     46  C   UNL     1       6.935  -2.018  35.118  0.00  0.00    +0.198 C 
ENDBRANCH  31  45
ENDBRANCH  28  29
BRANCH  28  47
ATOM     47  O   UNL     1       3.382   1.340  33.926  0.00  0.00    -0.387 OA
ATOM     48  H   UNL     1       2.595   1.797  34.233  0.00  0.00    +0.210 HD
ENDBRANCH  28  47
ENDBRANCH  25  28
ENDBRANCH   1  25
TORSDOF 16
