REMARK VINA RESULT:    -7.070      5.035      6.430
REMARK INTER + INTRA:         -14.065
REMARK INTER:                 -11.869
REMARK INTRA:                  -2.196
REMARK UNBOUND:                -1.828
REMARK  Name = lig_assembled_70.pdb
REMARK  16 active torsions:
REMARK  status: ('A' for Active; 'I' for Inactive)
REMARK    1  A    between atoms: _2  and  _10
REMARK    2  A    between atoms: _5  and  _22
REMARK    3  A    between atoms: _7  and  _8
REMARK    4  A    between atoms: _7  and  _22
REMARK    5  A    between atoms: _18  and  _38
REMARK    6  A    between atoms: _20  and  _26
REMARK    7  A    between atoms: _21  and  _25
REMARK    8  A    between atoms: _25  and  _26
REMARK    9  A    between atoms: _28  and  _29
REMARK   10  A    between atoms: _30  and  _31
REMARK   11  A    between atoms: _32  and  _34
REMARK   12  A    between atoms: _34  and  _35
REMARK   13  A    between atoms: _34  and  _36
REMARK   14  A    between atoms: _36  and  _37
REMARK   15  A    between atoms: _36  and  _38
REMARK   16  A    between atoms: _39  and  _41
REMARK                            x       y       z     vdW  Elec       q    Type
REMARK                         _______ _______ _______ _____ _____    ______ ____
ROOT
ATOM      1  C   UNL     1       8.018   2.462  34.264  0.00  0.00    +0.163 C 
ENDROOT
BRANCH   1   2
ATOM      2  O   UNL     1       8.842   2.744  35.407  0.00  0.00    -0.388 OA
ATOM      3  H   UNL     1       9.682   2.286  35.318  0.00  0.00    +0.210 HD
ENDBRANCH   1   2
BRANCH   1   4
ATOM      4  C   UNL     1       8.603   1.296  33.474  0.00  0.00    +0.141 C 
BRANCH   4   7
ATOM      5  C   UNL     1       7.423  -0.842  33.099  0.00  0.00    +0.401 C 
ATOM      6  O   UNL     1       8.171  -1.492  33.834  0.00  0.00    -0.226 OA
ATOM      7  N   UNL     1       7.556   0.464  32.868  0.00  0.00    -0.279 N 
ATOM      8  H   UNL     1       6.899   0.907  32.242  0.00  0.00    +0.152 HD
BRANCH   5   9
ATOM      9  O   UNL     1       6.345  -1.511  32.440  0.00  0.00    -0.444 OA
BRANCH   9  10
ATOM     10  C   UNL     1       5.585  -0.563  31.685  0.00  0.00    +0.292 C 
BRANCH  10  12
ATOM     11  N   UNL     1       4.396  -0.700  29.514  0.00  0.00    -0.131 NA
ATOM     12  C   UNL     1       5.496  -0.980  30.273  0.00  0.00    +0.121 A 
ATOM     13  C   UNL     1       6.407  -1.666  29.505  0.00  0.00    +0.143 A 
ATOM     14  N   UNL     1       5.820  -1.771  28.265  0.00  0.00    -0.218 N 
ATOM     15  N   UNL     1       4.598  -1.191  28.297  0.00  0.00    -0.060 NA
BRANCH  14  16
ATOM     16  C   UNL     1       6.348  -2.351  27.093  0.00  0.00    +0.086 A 
ATOM     17  C   UNL     1       7.695  -2.662  27.008  0.00  0.00    +0.139 A 
ATOM     18  N   UNL     1       8.261  -3.262  25.929  0.00  0.00    -0.253 NA
ATOM     19  C   UNL     1       7.469  -3.582  24.888  0.00  0.00    +0.071 A 
ATOM     20  C   UNL     1       6.090  -3.290  24.880  0.00  0.00    +0.002 A 
ATOM     21  C   UNL     1       5.293  -3.639  23.775  0.00  0.00    +0.010 A 
ATOM     22  C   UNL     1       5.855  -4.297  22.684  0.00  0.00    +0.001 A 
ATOM     23  C   UNL     1       7.212  -4.595  22.690  0.00  0.00    +0.002 A 
ATOM     24  C   UNL     1       8.004  -4.231  23.783  0.00  0.00    +0.028 A 
ATOM     25  C   UNL     1       5.536  -2.658  26.000  0.00  0.00    +0.039 A 
ENDBRANCH  14  16
ENDBRANCH  10  12
ENDBRANCH   9  10
ENDBRANCH   5   9
ENDBRANCH   4   7
ENDBRANCH   1   4
BRANCH   1  26
ATOM     26  C   UNL     1       7.903   3.695  33.351  0.00  0.00    +0.175 C 
BRANCH  26  27
ATOM     27  C   UNL     1       7.042   4.800  33.980  0.00  0.00    +0.176 C 
ATOM     28  O   UNL     1       7.783   5.363  35.098  0.00  0.00    -0.332 OA
ATOM     29  C   UNL     1       7.157   6.512  35.759  0.00  0.00    +0.277 C 
ATOM     30  C   UNL     1       5.718   6.159  36.209  0.00  0.00    +0.110 C 
ATOM     31  C   UNL     1       4.901   5.529  35.062  0.00  0.00    +0.143 C 
ATOM     32  C   UNL     1       5.646   4.345  34.444  0.00  0.00    +0.133 C 
BRANCH  32  33
ATOM     33  N   UNL     1       4.898   3.807  33.297  0.00  0.00    -0.308 N 
ATOM     34  H   UNL     1       4.829   4.381  32.468  0.00  0.00    +0.149 HD
ATOM     35  C   UNL     1       4.303   2.611  33.280  0.00  0.00    +0.210 C 
ATOM     36  C   UNL     1       4.404   1.772  34.568  0.00  0.00    +0.109 C 
ATOM     37  O   UNL     1       3.695   2.181  32.299  0.00  0.00    -0.276 OA
ENDBRANCH  32  33
BRANCH  29  38
ATOM     38  C   UNL     1       7.118   7.731  34.815  0.00  0.00    +0.414 C 
ATOM     39  O   UNL     1       8.163   8.273  34.457  0.00  0.00    -0.240 OA
ATOM     40  O   UNL     1       6.042   8.174  34.412  0.00  0.00    -0.240 OA
ENDBRANCH  29  38
BRANCH  31  41
ATOM     41  O   UNL     1       3.638   5.082  35.559  0.00  0.00    -0.390 OA
ATOM     42  H   UNL     1       3.139   4.677  34.847  0.00  0.00    +0.210 HD
ENDBRANCH  31  41
BRANCH  29  43
ATOM     43  O   UNL     1       7.940   6.832  36.938  0.00  0.00    -0.343 OA
ATOM     44  C   UNL     1       9.150   6.049  37.101  0.00  0.00    +0.198 C 
ENDBRANCH  29  43
ENDBRANCH  26  27
BRANCH  26  45
ATOM     45  O   UNL     1       7.364   3.315  32.069  0.00  0.00    -0.387 OA
ATOM     46  H   UNL     1       7.708   3.901  31.391  0.00  0.00    +0.210 HD
ENDBRANCH  26  45
ENDBRANCH   1  26
TORSDOF 14
