REMARK VINA RESULT:    -6.842      1.846      4.096
REMARK INTER + INTRA:         -13.043
REMARK INTER:                 -11.884
REMARK INTRA:                  -1.160
REMARK UNBOUND:                -1.202
REMARK  Name = lig_assembled_40.pdb
REMARK  17 active torsions:
REMARK  status: ('A' for Active; 'I' for Inactive)
REMARK    1  A    between atoms: _2  and  _9
REMARK    2  A    between atoms: _4  and  _19
REMARK    3  A    between atoms: _6  and  _7
REMARK    4  A    between atoms: _6  and  _19
REMARK    5  A    between atoms: _12  and  _13
REMARK    6  A    between atoms: _15  and  _35
REMARK    7  A    between atoms: _17  and  _23
REMARK    8  A    between atoms: _18  and  _22
REMARK    9  A    between atoms: _22  and  _23
REMARK   10  A    between atoms: _25  and  _26
REMARK   11  A    between atoms: _27  and  _28
REMARK   12  A    between atoms: _29  and  _31
REMARK   13  A    between atoms: _31  and  _32
REMARK   14  A    between atoms: _31  and  _33
REMARK   15  A    between atoms: _33  and  _34
REMARK   16  A    between atoms: _33  and  _35
REMARK   17  A    between atoms: _36  and  _38
REMARK                            x       y       z     vdW  Elec       q    Type
REMARK                         _______ _______ _______ _____ _____    ______ ____
ROOT
ATOM      1  C   UNL     1       6.317   2.469  33.172  0.00  0.00    +0.163 C 
ENDROOT
BRANCH   1   2
ATOM      2  O   UNL     1       6.261   1.381  32.236  0.00  0.00    -0.388 OA
ATOM      3  H   UNL     1       7.054   0.845  32.318  0.00  0.00    +0.210 HD
ENDBRANCH   1   2
BRANCH   1   4
ATOM      4  C   UNL     1       5.164   3.435  32.921  0.00  0.00    +0.141 C 
BRANCH   4   7
ATOM      5  C   UNL     1       3.353   2.798  31.364  0.00  0.00    +0.401 C 
ATOM      6  O   UNL     1       2.575   2.459  32.259  0.00  0.00    -0.226 OA
ATOM      7  N   UNL     1       4.585   3.259  31.583  0.00  0.00    -0.279 N 
ATOM      8  H   UNL     1       5.153   3.502  30.783  0.00  0.00    +0.152 HD
BRANCH   5   9
ATOM      9  O   UNL     1       2.932   2.693  30.002  0.00  0.00    -0.444 OA
BRANCH   9  10
ATOM     10  C   UNL     1       1.533   2.974  29.911  0.00  0.00    +0.292 C 
BRANCH  10  12
ATOM     11  N   UNL     1       0.036   4.044  28.256  0.00  0.00    -0.131 NA
ATOM     12  C   UNL     1       1.170   3.334  28.528  0.00  0.00    +0.121 A 
ATOM     13  C   UNL     1       1.830   3.074  27.351  0.00  0.00    +0.143 A 
ATOM     14  N   UNL     1       1.072   3.678  26.373  0.00  0.00    -0.220 N 
ATOM     15  N   UNL     1      -0.022   4.242  26.945  0.00  0.00    -0.060 NA
BRANCH  14  16
ATOM     16  C   UNL     1       1.340   3.782  24.984  0.00  0.00    +0.067 A 
ATOM     17  C   UNL     1       1.236   5.011  24.324  0.00  0.00    +0.028 A 
ATOM     18  C   UNL     1       1.435   5.086  22.942  0.00  0.00    +0.005 A 
ATOM     19  C   UNL     1       1.738   3.938  22.204  0.00  0.00    -0.050 A 
ATOM     20  C   UNL     1       1.877   2.716  22.871  0.00  0.00    +0.005 A 
ATOM     21  C   UNL     1       1.906   4.006  20.714  0.00  0.00    +0.044 C 
ATOM     22  C   UNL     1       1.680   2.634  24.253  0.00  0.00    +0.028 A 
ENDBRANCH  14  16
ENDBRANCH  10  12
ENDBRANCH   9  10
ENDBRANCH   5   9
ENDBRANCH   4   7
ENDBRANCH   1   4
BRANCH   1  23
ATOM     23  C   UNL     1       7.653   3.224  33.059  0.00  0.00    +0.175 C 
BRANCH  23  24
ATOM     24  C   UNL     1       8.370   3.336  34.413  0.00  0.00    +0.176 C 
ATOM     25  O   UNL     1       8.608   1.989  34.906  0.00  0.00    -0.332 OA
ATOM     26  C   UNL     1       9.382   1.895  36.147  0.00  0.00    +0.277 C 
ATOM     27  C   UNL     1       8.728   2.751  37.259  0.00  0.00    +0.110 C 
ATOM     28  C   UNL     1       8.427   4.184  36.771  0.00  0.00    +0.143 C 
ATOM     29  C   UNL     1       7.620   4.164  35.473  0.00  0.00    +0.133 C 
BRANCH  29  30
ATOM     30  N   UNL     1       7.414   5.532  34.972  0.00  0.00    -0.308 N 
ATOM     31  H   UNL     1       8.192   5.991  34.521  0.00  0.00    +0.149 HD
ATOM     32  C   UNL     1       6.266   6.207  35.076  0.00  0.00    +0.210 C 
ATOM     33  C   UNL     1       5.107   5.489  35.793  0.00  0.00    +0.109 C 
ATOM     34  O   UNL     1       6.118   7.347  34.635  0.00  0.00    -0.276 OA
ENDBRANCH  29  30
BRANCH  26  35
ATOM     35  C   UNL     1      10.835   2.365  35.922  0.00  0.00    +0.414 C 
ATOM     36  O   UNL     1      11.277   2.489  34.781  0.00  0.00    -0.240 OA
ATOM     37  O   UNL     1      11.564   2.620  36.881  0.00  0.00    -0.240 OA
ENDBRANCH  26  35
BRANCH  28  38
ATOM     38  O   UNL     1       7.691   4.889  37.772  0.00  0.00    -0.390 OA
ATOM     39  H   UNL     1       7.132   4.273  38.252  0.00  0.00    +0.210 HD
ENDBRANCH  28  38
BRANCH  26  40
ATOM     40  O   UNL     1       9.378   0.509  36.575  0.00  0.00    -0.343 OA
ATOM     41  C   UNL     1       9.681  -0.454  35.535  0.00  0.00    +0.198 C 
ENDBRANCH  26  40
ENDBRANCH  23  24
BRANCH  23  42
ATOM     42  O   UNL     1       7.437   4.535  32.502  0.00  0.00    -0.387 OA
ATOM     43  H   UNL     1       6.642   4.527  31.963  0.00  0.00    +0.210 HD
ENDBRANCH  23  42
ENDBRANCH   1  23
TORSDOF 14
