REMARK VINA RESULT:    -5.428      1.955      4.257
REMARK INTER + INTRA:         -13.471
REMARK INTER:                 -11.299
REMARK INTRA:                  -2.172
REMARK UNBOUND:                -2.172
REMARK  Name = lig_assembled_54.pdb
REMARK  24 active torsions:
REMARK  status: ('A' for Active; 'I' for Inactive)
REMARK    1  A    between atoms: _2  and  _9
REMARK    2  A    between atoms: _4  and  _21
REMARK    3  A    between atoms: _5  and  _14
REMARK    4  A    between atoms: _6  and  _7
REMARK    5  A    between atoms: _6  and  _21
REMARK    6  A    between atoms: _9  and  _10
REMARK    7  A    between atoms: _10  and  _11
REMARK    8  A    between atoms: _11  and  _15
REMARK    9  A    between atoms: _11  and  _16
REMARK   10  A    between atoms: _12  and  _13
REMARK   11  A    between atoms: _12  and  _16
REMARK   12  A    between atoms: _14  and  _15
REMARK   13  A    between atoms: _17  and  _37
REMARK   14  A    between atoms: _19  and  _25
REMARK   15  A    between atoms: _20  and  _24
REMARK   16  A    between atoms: _24  and  _25
REMARK   17  A    between atoms: _27  and  _28
REMARK   18  A    between atoms: _29  and  _30
REMARK   19  A    between atoms: _31  and  _33
REMARK   20  A    between atoms: _33  and  _34
REMARK   21  A    between atoms: _33  and  _35
REMARK   22  A    between atoms: _35  and  _36
REMARK   23  A    between atoms: _35  and  _37
REMARK   24  A    between atoms: _38  and  _40
REMARK                            x       y       z     vdW  Elec       q    Type
REMARK                         _______ _______ _______ _____ _____    ______ ____
ROOT
ATOM      1  C   UNL     1       3.030   2.891  32.688  0.00  0.00    +0.163 C 
ENDROOT
BRANCH   1   2
ATOM      2  O   UNL     1       3.766   2.047  31.788  0.00  0.00    -0.388 OA
ATOM      3  H   UNL     1       3.480   1.137  31.896  0.00  0.00    +0.210 HD
ENDBRANCH   1   2
BRANCH   1   4
ATOM      4  C   UNL     1       3.956   3.923  33.356  0.00  0.00    +0.175 C 
BRANCH   4   5
ATOM      5  C   UNL     1       5.371   3.369  33.582  0.00  0.00    +0.176 C 
ATOM      6  O   UNL     1       5.244   2.000  34.057  0.00  0.00    -0.332 OA
ATOM      7  C   UNL     1       6.503   1.270  34.228  0.00  0.00    +0.277 C 
ATOM      8  C   UNL     1       7.465   2.057  35.152  0.00  0.00    +0.110 C 
ATOM      9  C   UNL     1       7.606   3.528  34.705  0.00  0.00    +0.143 C 
ATOM     10  C   UNL     1       6.236   4.190  34.555  0.00  0.00    +0.133 C 
BRANCH  10  11
ATOM     11  N   UNL     1       6.381   5.563  34.046  0.00  0.00    -0.308 N 
ATOM     12  H   UNL     1       6.673   5.682  33.086  0.00  0.00    +0.149 HD
ATOM     13  C   UNL     1       6.151   6.662  34.769  0.00  0.00    +0.210 C 
ATOM     14  C   UNL     1       5.733   6.448  36.236  0.00  0.00    +0.109 C 
ATOM     15  O   UNL     1       6.266   7.800  34.311  0.00  0.00    -0.276 OA
ENDBRANCH  10  11
BRANCH   7  16
ATOM     16  C   UNL     1       7.183   1.025  32.865  0.00  0.00    +0.414 C 
ATOM     17  O   UNL     1       8.402   1.147  32.749  0.00  0.00    -0.240 OA
ATOM     18  O   UNL     1       6.514   0.705  31.882  0.00  0.00    -0.240 OA
ENDBRANCH   7  16
BRANCH   9  19
ATOM     19  O   UNL     1       8.376   4.251  35.666  0.00  0.00    -0.390 OA
ATOM     20  H   UNL     1       7.864   4.361  36.470  0.00  0.00    +0.210 HD
ENDBRANCH   9  19
BRANCH   7  21
ATOM     21  O   UNL     1       6.202  -0.002  34.859  0.00  0.00    -0.343 OA
ATOM     22  C   UNL     1       4.861  -0.116  35.397  0.00  0.00    +0.198 C 
ENDBRANCH   7  21
ENDBRANCH   4   5
BRANCH   4  23
ATOM     23  O   UNL     1       3.390   4.363  34.606  0.00  0.00    -0.387 OA
ATOM     24  H   UNL     1       2.484   4.053  34.674  0.00  0.00    +0.210 HD
ENDBRANCH   4  23
ENDBRANCH   1   4
BRANCH   1  25
ATOM     25  C   UNL     1       1.920   3.616  31.934  0.00  0.00    +0.141 C 
BRANCH  25  28
ATOM     26  C   UNL     1       1.315   3.498  29.541  0.00  0.00    +0.401 C 
ATOM     27  O   UNL     1       0.149   3.160  29.756  0.00  0.00    -0.226 OA
ATOM     28  N   UNL     1       2.214   3.726  30.500  0.00  0.00    -0.279 N 
ATOM     29  H   UNL     1       3.150   3.989  30.224  0.00  0.00    +0.152 HD
BRANCH  26  30
ATOM     30  O   UNL     1       1.755   3.656  28.190  0.00  0.00    -0.444 OA
BRANCH  30  31
ATOM     31  C   UNL     1       1.737   2.387  27.530  0.00  0.00    +0.292 C 
BRANCH  31  33
ATOM     32  N   UNL     1       2.252   1.520  25.268  0.00  0.00    -0.131 NA
ATOM     33  C   UNL     1       1.908   2.571  26.076  0.00  0.00    +0.120 A 
ATOM     34  C   UNL     1       1.753   3.702  25.303  0.00  0.00    +0.137 A 
ATOM     35  N   UNL     1       1.980   3.266  24.033  0.00  0.00    -0.251 N 
ATOM     36  N   UNL     1       2.286   1.956  24.015  0.00  0.00    -0.065 NA
BRANCH  35  37
ATOM     37  C   UNL     1       1.867   4.007  22.793  0.00  0.00    +0.150 C 
BRANCH  37  38
ATOM     38  C   UNL     1       0.918   5.188  22.927  0.00  0.00    +0.084 C 
BRANCH  38  39
ATOM     39  C   UNL     1       0.066   5.431  21.676  0.00  0.00    +0.252 C 
BRANCH  39  40
ATOM     40  O   UNL     1      -1.240   5.880  22.049  0.00  0.00    -0.352 OA
BRANCH  40  41
ATOM     41  C   UNL     1      -2.165   4.827  22.315  0.00  0.00    +0.159 C 
ATOM     42  C   UNL     1      -2.877   5.121  23.620  0.00  0.00    +0.034 C 
ENDBRANCH  40  41
ENDBRANCH  39  40
BRANCH  39  43
ATOM     43  O   UNL     1      -0.031   4.189  20.969  0.00  0.00    -0.352 OA
BRANCH  43  44
ATOM     44  C   UNL     1       0.247   4.331  19.574  0.00  0.00    +0.159 C 
ATOM     45  C   UNL     1      -1.033   4.121  18.790  0.00  0.00    +0.034 C 
ENDBRANCH  43  44
ENDBRANCH  39  43
ENDBRANCH  38  39
ENDBRANCH  37  38
ENDBRANCH  35  37
ENDBRANCH  31  33
ENDBRANCH  30  31
ENDBRANCH  26  30
ENDBRANCH  25  28
ENDBRANCH   1  25
TORSDOF 20
