REMARK VINA RESULT:    -5.925      2.107      4.139
REMARK INTER + INTRA:         -13.111
REMARK INTER:                 -11.604
REMARK INTRA:                  -1.507
REMARK UNBOUND:                -2.511
REMARK  Name = lig_assembled_6.pdb
REMARK  17 active torsions:
REMARK  status: ('A' for Active; 'I' for Inactive)
REMARK    1  A    between atoms: _2  and  _10
REMARK    2  A    between atoms: _3  and  _13
REMARK    3  A    between atoms: _5  and  _21
REMARK    4  A    between atoms: _7  and  _8
REMARK    5  A    between atoms: _7  and  _21
REMARK    6  A    between atoms: _17  and  _37
REMARK    7  A    between atoms: _19  and  _25
REMARK    8  A    between atoms: _20  and  _24
REMARK    9  A    between atoms: _24  and  _25
REMARK   10  A    between atoms: _27  and  _28
REMARK   11  A    between atoms: _29  and  _30
REMARK   12  A    between atoms: _31  and  _33
REMARK   13  A    between atoms: _33  and  _34
REMARK   14  A    between atoms: _33  and  _35
REMARK   15  A    between atoms: _35  and  _36
REMARK   16  A    between atoms: _35  and  _37
REMARK   17  A    between atoms: _38  and  _40
REMARK                            x       y       z     vdW  Elec       q    Type
REMARK                         _______ _______ _______ _____ _____    ______ ____
ROOT
ATOM      1  C   UNL     1       6.265   3.100  33.474  0.00  0.00    +0.163 C 
ENDROOT
BRANCH   1   2
ATOM      2  O   UNL     1       6.170   2.092  34.494  0.00  0.00    -0.388 OA
ATOM      3  H   UNL     1       6.669   1.316  34.226  0.00  0.00    +0.210 HD
ENDBRANCH   1   2
BRANCH   1   4
ATOM      4  C   UNL     1       5.689   2.573  32.164  0.00  0.00    +0.141 C 
BRANCH   4   7
ATOM      5  C   UNL     1       3.359   2.757  31.363  0.00  0.00    +0.401 C 
ATOM      6  O   UNL     1       3.181   1.538  31.309  0.00  0.00    -0.226 OA
ATOM      7  N   UNL     1       4.502   3.328  31.745  0.00  0.00    -0.279 N 
ATOM      8  H   UNL     1       4.554   4.337  31.747  0.00  0.00    +0.152 HD
BRANCH   5   9
ATOM      9  O   UNL     1       2.290   3.632  30.992  0.00  0.00    -0.444 OA
BRANCH   9  10
ATOM     10  C   UNL     1       1.193   2.861  30.495  0.00  0.00    +0.292 C 
BRANCH  10  12
ATOM     11  N   UNL     1      -0.064   4.061  28.731  0.00  0.00    -0.131 NA
ATOM     12  C   UNL     1       0.930   3.194  29.082  0.00  0.00    +0.121 A 
ATOM     13  C   UNL     1       1.570   2.761  27.944  0.00  0.00    +0.143 A 
ATOM     14  N   UNL     1       0.945   3.421  26.911  0.00  0.00    -0.220 N 
ATOM     15  N   UNL     1      -0.055   4.187  27.411  0.00  0.00    -0.060 NA
BRANCH  14  16
ATOM     16  C   UNL     1       1.255   3.399  25.525  0.00  0.00    +0.067 A 
ATOM     17  C   UNL     1       1.171   4.568  24.754  0.00  0.00    +0.034 A 
ATOM     18  C   UNL     1       1.418   4.521  23.378  0.00  0.00    +0.086 A 
ATOM     19  C   UNL     1       1.754   3.305  22.772  0.00  0.00    +0.273 A 
ATOM     20  C   UNL     1       1.868   2.138  23.537  0.00  0.00    +0.086 A 
ATOM     21  C   UNL     1       1.620   2.188  24.913  0.00  0.00    +0.034 A 
BRANCH  19  22
ATOM     22  N   UNL     1       1.971   3.254  21.320  0.00  0.00    +0.080 N 
ATOM     23  O   UNL     1       2.210   2.149  20.812  0.00  0.00    +0.041 OA
ATOM     24  O   UNL     1       1.909   4.319  20.690  0.00  0.00    -0.576 OA
ENDBRANCH  19  22
ENDBRANCH  14  16
ENDBRANCH  10  12
ENDBRANCH   9  10
ENDBRANCH   5   9
ENDBRANCH   4   7
ENDBRANCH   1   4
BRANCH   1  25
ATOM     25  C   UNL     1       7.727   3.527  33.258  0.00  0.00    +0.175 C 
BRANCH  25  26
ATOM     26  C   UNL     1       8.483   3.693  34.585  0.00  0.00    +0.176 C 
ATOM     27  O   UNL     1       8.785   2.365  35.096  0.00  0.00    -0.332 OA
ATOM     28  C   UNL     1       9.602   2.325  36.312  0.00  0.00    +0.277 C 
ATOM     29  C   UNL     1       8.954   3.181  37.428  0.00  0.00    +0.110 C 
ATOM     30  C   UNL     1       8.586   4.592  36.923  0.00  0.00    +0.143 C 
ATOM     31  C   UNL     1       7.738   4.516  35.652  0.00  0.00    +0.133 C 
BRANCH  31  32
ATOM     32  N   UNL     1       7.467   5.865  35.132  0.00  0.00    -0.308 N 
ATOM     33  H   UNL     1       8.236   6.374  34.719  0.00  0.00    +0.149 HD
ATOM     34  C   UNL     1       6.272   6.461  35.170  0.00  0.00    +0.210 C 
ATOM     35  C   UNL     1       5.128   5.668  35.830  0.00  0.00    +0.109 C 
ATOM     36  O   UNL     1       6.072   7.586  34.713  0.00  0.00    -0.276 OA
ENDBRANCH  31  32
BRANCH  28  37
ATOM     37  C   UNL     1      11.029   2.841  36.030  0.00  0.00    +0.414 C 
ATOM     38  O   UNL     1      11.592   2.560  34.972  0.00  0.00    -0.240 OA
ATOM     39  O   UNL     1      11.616   3.537  36.858  0.00  0.00    -0.240 OA
ENDBRANCH  28  37
BRANCH  30  40
ATOM     40  O   UNL     1       7.858   5.291  37.933  0.00  0.00    -0.390 OA
ATOM     41  H   UNL     1       7.296   5.952  37.523  0.00  0.00    +0.210 HD
ENDBRANCH  30  40
BRANCH  28  42
ATOM     42  O   UNL     1       9.662   0.949  36.767  0.00  0.00    -0.343 OA
ATOM     43  C   UNL     1       8.980   0.688  38.020  0.00  0.00    +0.198 C 
ENDBRANCH  28  42
ENDBRANCH  25  26
BRANCH  25  44
ATOM     44  O   UNL     1       7.779   4.752  32.500  0.00  0.00    -0.387 OA
ATOM     45  H   UNL     1       7.185   5.397  32.892  0.00  0.00    +0.210 HD
ENDBRANCH  25  44
ENDBRANCH   1  25
TORSDOF 15
