REMARK VINA RESULT:    -5.230     18.207     21.952
REMARK INTER + INTRA:         -12.315
REMARK INTER:                  -9.510
REMARK INTRA:                  -2.805
REMARK UNBOUND:                -2.805
REMARK  Name = lig_assembled_72.pdb
REMARK  20 active torsions:
REMARK  status: ('A' for Active; 'I' for Inactive)
REMARK    1  A    between atoms: _2  and  _9
REMARK    2  A    between atoms: _4  and  _17
REMARK    3  A    between atoms: _5  and  _9
REMARK    4  A    between atoms: _5  and  _12
REMARK    5  A    between atoms: _6  and  _7
REMARK    6  A    between atoms: _6  and  _17
REMARK    7  A    between atoms: _9  and  _10
REMARK    8  A    between atoms: _9  and  _11
REMARK    9  A    between atoms: _13  and  _33
REMARK   10  A    between atoms: _15  and  _21
REMARK   11  A    between atoms: _16  and  _20
REMARK   12  A    between atoms: _20  and  _21
REMARK   13  A    between atoms: _23  and  _24
REMARK   14  A    between atoms: _25  and  _26
REMARK   15  A    between atoms: _27  and  _29
REMARK   16  A    between atoms: _29  and  _30
REMARK   17  A    between atoms: _29  and  _31
REMARK   18  A    between atoms: _31  and  _32
REMARK   19  A    between atoms: _31  and  _33
REMARK   20  A    between atoms: _34  and  _36
REMARK                            x       y       z     vdW  Elec       q    Type
REMARK                         _______ _______ _______ _____ _____    ______ ____
ROOT
ATOM      1  C   UNL     1       3.289   5.371  37.595  0.00  0.00    +0.163 C 
ENDROOT
BRANCH   1   2
ATOM      2  O   UNL     1       3.109   5.992  36.312  0.00  0.00    -0.388 OA
ATOM      3  H   UNL     1       3.903   5.875  35.785  0.00  0.00    +0.210 HD
ENDBRANCH   1   2
BRANCH   1   4
ATOM      4  C   UNL     1       4.534   5.928  38.307  0.00  0.00    +0.175 C 
BRANCH   4   5
ATOM      5  C   UNL     1       5.694   6.176  37.332  0.00  0.00    +0.176 C 
ATOM      6  O   UNL     1       5.700   5.095  36.359  0.00  0.00    -0.332 OA
ATOM      7  C   UNL     1       6.682   5.220  35.277  0.00  0.00    +0.277 C 
ATOM      8  C   UNL     1       8.105   5.408  35.858  0.00  0.00    +0.110 C 
ATOM      9  C   UNL     1       8.143   6.526  36.921  0.00  0.00    +0.143 C 
ATOM     10  C   UNL     1       7.079   6.298  37.995  0.00  0.00    +0.133 C 
BRANCH  10  11
ATOM     11  N   UNL     1       7.067   7.415  38.954  0.00  0.00    -0.308 N 
ATOM     12  H   UNL     1       6.729   8.310  38.631  0.00  0.00    +0.149 HD
ATOM     13  C   UNL     1       7.474   7.321  40.223  0.00  0.00    +0.210 C 
ATOM     14  C   UNL     1       8.008   5.950  40.677  0.00  0.00    +0.109 C 
ATOM     15  O   UNL     1       7.439   8.270  41.008  0.00  0.00    -0.276 OA
ENDBRANCH  10  11
BRANCH   7  16
ATOM     16  C   UNL     1       6.337   6.412  34.361  0.00  0.00    +0.414 C 
ATOM     17  O   UNL     1       7.228   7.150  33.942  0.00  0.00    -0.240 OA
ATOM     18  O   UNL     1       5.169   6.636  34.041  0.00  0.00    -0.240 OA
ENDBRANCH   7  16
BRANCH   9  19
ATOM     19  O   UNL     1       9.431   6.563  37.535  0.00  0.00    -0.390 OA
ATOM     20  H   UNL     1       9.962   7.250  37.125  0.00  0.00    +0.210 HD
ENDBRANCH   9  19
BRANCH   7  21
ATOM     21  O   UNL     1       6.661   3.990  34.508  0.00  0.00    -0.343 OA
ATOM     22  C   UNL     1       7.381   2.882  35.104  0.00  0.00    +0.198 C 
ENDBRANCH   7  21
ENDBRANCH   4   5
BRANCH   4  23
ATOM     23  O   UNL     1       4.950   5.030  39.356  0.00  0.00    -0.387 OA
ATOM     24  H   UNL     1       4.189   4.543  39.681  0.00  0.00    +0.210 HD
ENDBRANCH   4  23
ENDBRANCH   1   4
BRANCH   1  25
ATOM     25  C   UNL     1       2.058   5.604  38.465  0.00  0.00    +0.141 C 
BRANCH  25  28
ATOM     26  C   UNL     1       2.076   6.529  40.756  0.00  0.00    +0.401 C 
ATOM     27  O   UNL     1       1.676   5.486  41.281  0.00  0.00    -0.226 OA
ATOM     28  N   UNL     1       2.276   6.674  39.446  0.00  0.00    -0.279 N 
ATOM     29  H   UNL     1       2.596   7.572  39.109  0.00  0.00    +0.152 HD
BRANCH  26  30
ATOM     30  O   UNL     1       2.342   7.664  41.583  0.00  0.00    -0.444 OA
BRANCH  30  31
ATOM     31  C   UNL     1       3.550   8.297  41.151  0.00  0.00    +0.292 C 
BRANCH  31  33
ATOM     32  N   UNL     1       4.384  10.609  40.873  0.00  0.00    -0.131 NA
ATOM     33  C   UNL     1       3.330   9.741  40.954  0.00  0.00    +0.120 A 
ATOM     34  C   UNL     1       2.155  10.450  40.824  0.00  0.00    +0.137 A 
ATOM     35  N   UNL     1       2.559  11.747  40.665  0.00  0.00    -0.244 N 
ATOM     36  N   UNL     1       3.904  11.829  40.697  0.00  0.00    -0.065 NA
BRANCH  35  37
ATOM     37  C   UNL     1       1.725  12.943  40.474  0.00  0.00    +0.083 C 
ATOM     38  C   UNL     1       2.276  14.088  41.346  0.00  0.00    +0.038 C 
ATOM     39  C   UNL     1       0.274  12.633  40.890  0.00  0.00    +0.038 C 
BRANCH  37  40
ATOM     40  C   UNL     1       1.740  13.422  38.997  0.00  0.00    +0.185 C 
BRANCH  40  41
ATOM     41  O   UNL     1       2.847  12.904  38.261  0.00  0.00    -0.393 OA
ATOM     42  H   UNL     1       3.076  13.592  37.598  0.00  0.00    +0.209 HD
ENDBRANCH  40  41
ENDBRANCH  37  40
ENDBRANCH  35  37
ENDBRANCH  31  33
ENDBRANCH  30  31
ENDBRANCH  26  30
ENDBRANCH  25  28
ENDBRANCH   1  25
TORSDOF 16
