REMARK VINA RESULT:    -6.571      0.000      0.000
REMARK INTER + INTRA:         -15.300
REMARK INTER:                 -13.579
REMARK INTRA:                  -1.721
REMARK UNBOUND:                -1.813
REMARK  Name = lig_assembled_33.pdb
REMARK  22 active torsions:
REMARK  status: ('A' for Active; 'I' for Inactive)
REMARK    1  A    between atoms: _2  and  _9
REMARK    2  A    between atoms: _4  and  _20
REMARK    3  A    between atoms: _5  and  _13
REMARK    4  A    between atoms: _5  and  _14
REMARK    5  A    between atoms: _6  and  _7
REMARK    6  A    between atoms: _6  and  _20
REMARK    7  A    between atoms: _9  and  _10
REMARK    8  A    between atoms: _10  and  _11
REMARK    9  A    between atoms: _11  and  _12
REMARK   10  A    between atoms: _12  and  _13
REMARK   11  A    between atoms: _16  and  _36
REMARK   12  A    between atoms: _18  and  _24
REMARK   13  A    between atoms: _19  and  _23
REMARK   14  A    between atoms: _23  and  _24
REMARK   15  A    between atoms: _26  and  _27
REMARK   16  A    between atoms: _28  and  _29
REMARK   17  A    between atoms: _30  and  _32
REMARK   18  A    between atoms: _32  and  _33
REMARK   19  A    between atoms: _32  and  _34
REMARK   20  A    between atoms: _34  and  _35
REMARK   21  A    between atoms: _34  and  _36
REMARK   22  A    between atoms: _37  and  _39
REMARK                            x       y       z     vdW  Elec       q    Type
REMARK                         _______ _______ _______ _____ _____    ______ ____
ROOT
ATOM      1  C   UNL     1       3.672   3.671  32.519  0.00  0.00    +0.163 C 
ENDROOT
BRANCH   1   2
ATOM      2  O   UNL     1       2.831   3.991  33.639  0.00  0.00    -0.388 OA
ATOM      3  H   UNL     1       2.258   3.245  33.834  0.00  0.00    +0.210 HD
ENDBRANCH   1   2
BRANCH   1   4
ATOM      4  C   UNL     1       4.988   3.025  32.985  0.00  0.00    +0.175 C 
BRANCH   4   5
ATOM      5  C   UNL     1       5.579   3.739  34.210  0.00  0.00    +0.176 C 
ATOM      6  O   UNL     1       5.564   5.169  33.945  0.00  0.00    -0.332 OA
ATOM      7  C   UNL     1       5.998   6.024  35.055  0.00  0.00    +0.277 C 
ATOM      8  C   UNL     1       7.401   5.597  35.550  0.00  0.00    +0.110 C 
ATOM      9  C   UNL     1       7.475   4.079  35.815  0.00  0.00    +0.143 C 
ATOM     10  C   UNL     1       6.998   3.285  34.598  0.00  0.00    +0.133 C 
BRANCH  10  11
ATOM     11  N   UNL     1       6.991   1.844  34.893  0.00  0.00    -0.308 N 
ATOM     12  H   UNL     1       6.367   1.514  35.616  0.00  0.00    +0.149 HD
ATOM     13  C   UNL     1       7.754   0.943  34.268  0.00  0.00    +0.210 C 
ATOM     14  C   UNL     1       8.712   1.481  33.189  0.00  0.00    +0.109 C 
ATOM     15  O   UNL     1       7.715  -0.260  34.526  0.00  0.00    -0.276 OA
ENDBRANCH  10  11
BRANCH   7  16
ATOM     16  C   UNL     1       4.994   5.952  36.224  0.00  0.00    +0.414 C 
ATOM     17  O   UNL     1       3.809   5.701  36.010  0.00  0.00    -0.240 OA
ATOM     18  O   UNL     1       5.370   6.145  37.381  0.00  0.00    -0.240 OA
ENDBRANCH   7  16
BRANCH   9  19
ATOM     19  O   UNL     1       8.819   3.707  36.122  0.00  0.00    -0.390 OA
ATOM     20  H   UNL     1       9.076   4.099  36.960  0.00  0.00    +0.210 HD
ENDBRANCH   9  19
BRANCH   7  21
ATOM     21  O   UNL     1       6.080   7.387  34.565  0.00  0.00    -0.343 OA
ATOM     22  C   UNL     1       7.396   7.989  34.650  0.00  0.00    +0.198 C 
ENDBRANCH   7  21
ENDBRANCH   4   5
BRANCH   4  23
ATOM     23  O   UNL     1       5.945   3.014  31.908  0.00  0.00    -0.387 OA
ATOM     24  H   UNL     1       6.668   2.421  32.127  0.00  0.00    +0.210 HD
ENDBRANCH   4  23
ENDBRANCH   1   4
BRANCH   1  25
ATOM     25  C   UNL     1       2.944   2.718  31.576  0.00  0.00    +0.141 C 
BRANCH  25  28
ATOM     26  C   UNL     1       1.740   2.960  29.431  0.00  0.00    +0.401 C 
ATOM     27  O   UNL     1       0.911   2.084  29.690  0.00  0.00    -0.226 OA
ATOM     28  N   UNL     1       2.728   3.317  30.252  0.00  0.00    -0.279 N 
ATOM     29  H   UNL     1       3.365   4.040  29.947  0.00  0.00    +0.152 HD
BRANCH  26  30
ATOM     30  O   UNL     1       1.659   3.645  28.179  0.00  0.00    -0.444 OA
BRANCH  30  31
ATOM     31  C   UNL     1       0.428   3.312  27.531  0.00  0.00    +0.292 C 
BRANCH  31  33
ATOM     32  N   UNL     1      -0.589   5.138  26.209  0.00  0.00    -0.131 NA
ATOM     33  C   UNL     1       0.279   4.081  26.282  0.00  0.00    +0.120 A 
ATOM     34  C   UNL     1       0.898   3.922  25.061  0.00  0.00    +0.137 A 
ATOM     35  N   UNL     1       0.370   4.918  24.296  0.00  0.00    -0.251 N 
ATOM     36  N   UNL     1      -0.535   5.635  24.982  0.00  0.00    -0.065 NA
BRANCH  35  37
ATOM     37  C   UNL     1       0.663   5.239  22.914  0.00  0.00    +0.145 C 
BRANCH  37  38
ATOM     38  C   UNL     1       1.696   4.289  22.311  0.00  0.00    +0.023 C 
BRANCH  38  39
ATOM     39  C   UNL     1       1.945   4.557  20.824  0.00  0.00    +0.002 C 
BRANCH  39  40
ATOM     40  C   UNL     1       1.590   3.314  20.005  0.00  0.00    +0.011 C 
BRANCH  40  41
ATOM     41  C   UNL     1       1.905   3.473  18.520  0.00  0.00    +0.120 C 
BRANCH  41  42
ATOM     42  C   UNL     1       0.699   3.967  17.752  0.00  0.00    +0.305 C 
ATOM     43  O   UNL     1      -0.406   4.171  18.228  0.00  0.00    -0.251 OA
BRANCH  42  44
ATOM     44  O   UNL     1       0.971   4.176  16.443  0.00  0.00    -0.481 OA
ATOM     45  H   UNL     1       1.921   4.145  16.228  0.00  0.00    +0.295 HD
ENDBRANCH  42  44
ENDBRANCH  41  42
ENDBRANCH  40  41
ENDBRANCH  39  40
ENDBRANCH  38  39
ENDBRANCH  37  38
ENDBRANCH  35  37
ENDBRANCH  31  33
ENDBRANCH  30  31
ENDBRANCH  26  30
ENDBRANCH  25  28
ENDBRANCH   1  25
TORSDOF 20
