REMARK VINA RESULT:    -7.011      1.453      2.488
REMARK INTER + INTRA:         -14.252
REMARK INTER:                 -12.368
REMARK INTRA:                  -1.884
REMARK UNBOUND:                -2.118
REMARK  Name = lig_assembled_7.pdb
REMARK  19 active torsions:
REMARK  status: ('A' for Active; 'I' for Inactive)
REMARK    1  A    between atoms: _2  and  _9
REMARK    2  A    between atoms: _4  and  _21
REMARK    3  A    between atoms: _5  and  _16
REMARK    4  A    between atoms: _6  and  _7
REMARK    5  A    between atoms: _6  and  _21
REMARK    6  A    between atoms: _10  and  _11
REMARK    7  A    between atoms: _13  and  _14
REMARK    8  A    between atoms: _17  and  _37
REMARK    9  A    between atoms: _19  and  _25
REMARK   10  A    between atoms: _20  and  _24
REMARK   11  A    between atoms: _24  and  _25
REMARK   12  A    between atoms: _27  and  _28
REMARK   13  A    between atoms: _29  and  _30
REMARK   14  A    between atoms: _31  and  _33
REMARK   15  A    between atoms: _33  and  _34
REMARK   16  A    between atoms: _33  and  _35
REMARK   17  A    between atoms: _35  and  _36
REMARK   18  A    between atoms: _35  and  _37
REMARK   19  A    between atoms: _38  and  _40
REMARK                            x       y       z     vdW  Elec       q    Type
REMARK                         _______ _______ _______ _____ _____    ______ ____
ROOT
ATOM      1  C   UNL     1       3.138   3.306  32.674  0.00  0.00    +0.163 C 
ENDROOT
BRANCH   1   2
ATOM      2  O   UNL     1       3.322   4.625  32.136  0.00  0.00    -0.388 OA
ATOM      3  H   UNL     1       3.169   5.276  32.825  0.00  0.00    +0.210 HD
ENDBRANCH   1   2
BRANCH   1   4
ATOM      4  C   UNL     1       1.683   2.877  32.521  0.00  0.00    +0.141 C 
BRANCH   4   7
ATOM      5  C   UNL     1       1.060   3.110  30.141  0.00  0.00    +0.401 C 
ATOM      6  O   UNL     1       0.926   4.334  30.198  0.00  0.00    -0.226 OA
ATOM      7  N   UNL     1       1.406   2.348  31.179  0.00  0.00    -0.279 N 
ATOM      8  H   UNL     1       1.482   1.351  31.035  0.00  0.00    +0.152 HD
BRANCH   5   9
ATOM      9  O   UNL     1       0.833   2.444  28.896  0.00  0.00    -0.444 OA
BRANCH   9  10
ATOM     10  C   UNL     1       0.219   3.350  27.975  0.00  0.00    +0.292 C 
BRANCH  10  12
ATOM     11  N   UNL     1       2.261   3.729  26.646  0.00  0.00    -0.131 NA
ATOM     12  C   UNL     1       0.954   3.355  26.696  0.00  0.00    +0.121 A 
ATOM     13  C   UNL     1       0.540   3.016  25.423  0.00  0.00    +0.143 A 
ATOM     14  N   UNL     1       1.629   3.248  24.610  0.00  0.00    -0.219 N 
ATOM     15  N   UNL     1       2.668   3.635  25.391  0.00  0.00    -0.060 NA
BRANCH  14  16
ATOM     16  C   UNL     1       1.751   3.121  23.188  0.00  0.00    +0.073 A 
ATOM     17  C   UNL     1       1.898   1.823  22.611  0.00  0.00    -0.024 A 
ATOM     18  C   UNL     1       2.018   1.688  21.211  0.00  0.00    +0.008 A 
ATOM     19  C   UNL     1       1.987   2.795  20.367  0.00  0.00    -0.050 A 
ATOM     20  C   UNL     1       2.114   2.617  18.884  0.00  0.00    +0.044 C 
ATOM     21  C   UNL     1       1.841   4.059  20.934  0.00  0.00    +0.008 A 
ATOM     22  C   UNL     1       1.887   0.529  23.396  0.00  0.00    +0.046 C 
ATOM     23  C   UNL     1       1.744   4.253  22.332  0.00  0.00    -0.024 A 
ATOM     24  C   UNL     1       1.719   5.703  22.741  0.00  0.00    +0.046 C 
ENDBRANCH  14  16
ENDBRANCH  10  12
ENDBRANCH   9  10
ENDBRANCH   5   9
ENDBRANCH   4   7
ENDBRANCH   1   4
BRANCH   1  25
ATOM     25  C   UNL     1       3.535   3.257  34.159  0.00  0.00    +0.175 C 
BRANCH  25  26
ATOM     26  C   UNL     1       5.056   3.340  34.354  0.00  0.00    +0.176 C 
ATOM     27  O   UNL     1       5.466   4.711  34.097  0.00  0.00    -0.332 OA
ATOM     28  C   UNL     1       6.881   5.006  34.340  0.00  0.00    +0.277 C 
ATOM     29  C   UNL     1       7.781   4.032  33.540  0.00  0.00    +0.110 C 
ATOM     30  C   UNL     1       7.363   2.562  33.756  0.00  0.00    +0.143 C 
ATOM     31  C   UNL     1       5.872   2.369  33.480  0.00  0.00    +0.133 C 
BRANCH  31  32
ATOM     32  N   UNL     1       5.468   0.985  33.773  0.00  0.00    -0.308 N 
ATOM     33  H   UNL     1       5.488   0.682  34.737  0.00  0.00    +0.149 HD
ATOM     34  C   UNL     1       5.076   0.103  32.850  0.00  0.00    +0.210 C 
ATOM     35  C   UNL     1       5.081   0.588  31.387  0.00  0.00    +0.109 C 
ATOM     36  O   UNL     1       4.730  -1.045  33.126  0.00  0.00    -0.276 OA
ENDBRANCH  31  32
BRANCH  28  37
ATOM     37  C   UNL     1       7.213   4.898  35.842  0.00  0.00    +0.414 C 
ATOM     38  O   UNL     1       6.309   4.865  36.676  0.00  0.00    -0.240 OA
ATOM     39  O   UNL     1       8.384   4.843  36.221  0.00  0.00    -0.240 OA
ENDBRANCH  28  37
BRANCH  30  40
ATOM     40  O   UNL     1       8.116   1.714  32.888  0.00  0.00    -0.390 OA
ATOM     41  H   UNL     1       8.119   0.820  33.237  0.00  0.00    +0.210 HD
ENDBRANCH  30  40
BRANCH  28  42
ATOM     42  O   UNL     1       7.144   6.355  33.877  0.00  0.00    -0.343 OA
ATOM     43  C   UNL     1       6.251   7.368  34.405  0.00  0.00    +0.198 C 
ENDBRANCH  28  42
ENDBRANCH  25  26
BRANCH  25  44
ATOM     44  O   UNL     1       3.020   2.057  34.772  0.00  0.00    -0.387 OA
ATOM     45  H   UNL     1       3.665   1.713  35.394  0.00  0.00    +0.210 HD
ENDBRANCH  25  44
ENDBRANCH   1  25
TORSDOF 14
