REMARK VINA RESULT:    -6.862      3.112      4.837
REMARK INTER + INTRA:         -15.378
REMARK INTER:                 -12.931
REMARK INTRA:                  -2.447
REMARK UNBOUND:                -2.499
REMARK  Name = lig_assembled_64.pdb
REMARK  19 active torsions:
REMARK  status: ('A' for Active; 'I' for Inactive)
REMARK    1  A    between atoms: _2  and  _10
REMARK    2  A    between atoms: _5  and  _27
REMARK    3  A    between atoms: _7  and  _8
REMARK    4  A    between atoms: _7  and  _27
REMARK    5  A    between atoms: _12  and  _13
REMARK    6  A    between atoms: _13  and  _21
REMARK    7  A    between atoms: _14  and  _15
REMARK    8  A    between atoms: _23  and  _43
REMARK    9  A    between atoms: _25  and  _31
REMARK   10  A    between atoms: _26  and  _30
REMARK   11  A    between atoms: _30  and  _31
REMARK   12  A    between atoms: _33  and  _34
REMARK   13  A    between atoms: _35  and  _36
REMARK   14  A    between atoms: _37  and  _39
REMARK   15  A    between atoms: _39  and  _40
REMARK   16  A    between atoms: _39  and  _41
REMARK   17  A    between atoms: _41  and  _42
REMARK   18  A    between atoms: _41  and  _43
REMARK   19  A    between atoms: _44  and  _46
REMARK                            x       y       z     vdW  Elec       q    Type
REMARK                         _______ _______ _______ _____ _____    ______ ____
ROOT
ATOM      1  C   UNL     1       7.983  -0.832  33.938  0.00  0.00    +0.401 C 
ATOM      2  O   UNL     1       8.575  -1.024  35.003  0.00  0.00    -0.226 OA
ATOM      3  N   UNL     1       8.090   0.284  33.216  0.00  0.00    -0.279 N 
ATOM      4  H   UNL     1       7.572   0.344  32.351  0.00  0.00    +0.152 HD
ENDROOT
BRANCH   3   5
ATOM      5  C   UNL     1       8.918   1.431  33.609  0.00  0.00    +0.141 C 
BRANCH   5   6
ATOM      6  C   UNL     1       8.097   2.515  34.299  0.00  0.00    +0.163 C 
BRANCH   6   7
ATOM      7  O   UNL     1       8.734   2.908  35.526  0.00  0.00    -0.388 OA
ATOM      8  H   UNL     1       8.431   2.341  36.239  0.00  0.00    +0.210 HD
ENDBRANCH   6   7
BRANCH   6   9
ATOM      9  C   UNL     1       7.936   3.718  33.353  0.00  0.00    +0.175 C 
BRANCH   9  10
ATOM     10  C   UNL     1       7.038   4.810  33.954  0.00  0.00    +0.176 C 
ATOM     11  O   UNL     1       7.762   5.430  35.052  0.00  0.00    -0.332 OA
ATOM     12  C   UNL     1       7.097   6.574  35.683  0.00  0.00    +0.277 C 
ATOM     13  C   UNL     1       5.673   6.183  36.149  0.00  0.00    +0.110 C 
ATOM     14  C   UNL     1       4.876   5.490  35.024  0.00  0.00    +0.143 C 
ATOM     15  C   UNL     1       5.661   4.317  34.437  0.00  0.00    +0.133 C 
BRANCH  15  16
ATOM     16  N   UNL     1       4.929   3.720  33.308  0.00  0.00    -0.308 N 
ATOM     17  H   UNL     1       4.824   4.273  32.469  0.00  0.00    +0.149 HD
ATOM     18  C   UNL     1       4.395   2.496  33.321  0.00  0.00    +0.210 C 
ATOM     19  C   UNL     1       4.549   1.690  34.624  0.00  0.00    +0.109 C 
ATOM     20  O   UNL     1       3.799   2.017  32.356  0.00  0.00    -0.276 OA
ENDBRANCH  15  16
BRANCH  12  21
ATOM     21  C   UNL     1       7.010   7.764  34.705  0.00  0.00    +0.414 C 
ATOM     22  O   UNL     1       8.035   8.327  34.321  0.00  0.00    -0.240 OA
ATOM     23  O   UNL     1       5.917   8.161  34.300  0.00  0.00    -0.240 OA
ENDBRANCH  12  21
BRANCH  12  24
ATOM     24  O   UNL     1       7.871   6.956  36.849  0.00  0.00    -0.343 OA
ATOM     25  C   UNL     1       7.106   7.095  38.073  0.00  0.00    +0.198 C 
ENDBRANCH  12  24
BRANCH  14  26
ATOM     26  O   UNL     1       3.632   5.013  35.538  0.00  0.00    -0.390 OA
ATOM     27  H   UNL     1       3.316   5.611  36.220  0.00  0.00    +0.210 HD
ENDBRANCH  14  26
ENDBRANCH   9  10
BRANCH   9  28
ATOM     28  O   UNL     1       7.410   3.285  32.083  0.00  0.00    -0.387 OA
ATOM     29  H   UNL     1       6.450   3.270  32.122  0.00  0.00    +0.210 HD
ENDBRANCH   9  28
ENDBRANCH   6   9
ENDBRANCH   5   6
ENDBRANCH   3   5
BRANCH   1  30
ATOM     30  O   UNL     1       7.127  -1.857  33.424  0.00  0.00    -0.444 OA
BRANCH  30  31
ATOM     31  C   UNL     1       7.700  -2.405  32.235  0.00  0.00    +0.292 C 
BRANCH  31  33
ATOM     32  N   UNL     1       5.894  -1.104  31.139  0.00  0.00    -0.131 NA
ATOM     33  C   UNL     1       6.917  -2.004  31.051  0.00  0.00    +0.121 A 
ATOM     34  C   UNL     1       7.043  -2.412  29.743  0.00  0.00    +0.143 A 
ATOM     35  N   UNL     1       6.060  -1.734  29.063  0.00  0.00    -0.220 N 
ATOM     36  N   UNL     1       5.379  -0.943  29.926  0.00  0.00    -0.060 NA
BRANCH  35  37
ATOM     37  C   UNL     1       5.746  -1.791  27.683  0.00  0.00    +0.071 A 
ATOM     38  C   UNL     1       6.637  -2.365  26.783  0.00  0.00    +0.063 A 
ATOM     39  CA  UNL     1       6.270  -2.389  25.451  0.00  0.00    +0.150 A 
ATOM     40  N   UNL     1       5.105  -1.885  24.954  0.00  0.00    -0.240 NA
ATOM     41  C   UNL     1       4.245  -1.313  25.839  0.00  0.00    +0.074 A 
ATOM     42  C   UNL     1       4.534  -1.264  27.207  0.00  0.00    +0.056 A 
BRANCH  41  43
ATOM     43  C   UNL     1       3.013  -0.732  25.252  0.00  0.00    +0.000 A 
ATOM     44  C   UNL     1       2.642  -0.963  23.914  0.00  0.00    +0.010 A 
ATOM     45  C   UNL     1       1.457  -0.439  23.381  0.00  0.00    +0.001 A 
ATOM     46  C   UNL     1       0.612   0.329  24.175  0.00  0.00    +0.000 A 
ATOM     47  C   UNL     1       0.956   0.581  25.500  0.00  0.00    +0.001 A 
ATOM     48  C   UNL     1       2.142   0.057  26.029  0.00  0.00    +0.010 A 
ENDBRANCH  41  43
BRANCH  39  49
ATOM     49  C   UNL     1       7.196  -2.994  24.451  0.00  0.00    +0.355 C 
ATOM     50  OXT UNL     1       6.841  -3.677  23.507  0.00  0.00    -0.243 OA
BRANCH  49  51
ATOM     51  O   UNL     1       8.481  -2.683  24.737  0.00  0.00    -0.476 OA
ATOM     52  H   UNL     1       8.593  -2.652  25.715  0.00  0.00    +0.295 HD
ENDBRANCH  49  51
ENDBRANCH  39  49
ENDBRANCH  35  37
ENDBRANCH  31  33
ENDBRANCH  30  31
ENDBRANCH   1  30
TORSDOF 17
