REMARK VINA RESULT:    -5.597      5.275      9.994
REMARK INTER + INTRA:         -12.831
REMARK INTER:                  -9.983
REMARK INTRA:                  -2.848
REMARK UNBOUND:                -2.326
REMARK  Name = lig_assembled_32.pdb
REMARK  19 active torsions:
REMARK  status: ('A' for Active; 'I' for Inactive)
REMARK    1  A    between atoms: _2  and  _9
REMARK    2  A    between atoms: _4  and  _17
REMARK    3  A    between atoms: _5  and  _10
REMARK    4  A    between atoms: _5  and  _11
REMARK    5  A    between atoms: _6  and  _7
REMARK    6  A    between atoms: _6  and  _17
REMARK    7  A    between atoms: _9  and  _10
REMARK    8  A    between atoms: _13  and  _33
REMARK    9  A    between atoms: _15  and  _21
REMARK   10  A    between atoms: _16  and  _20
REMARK   11  A    between atoms: _20  and  _21
REMARK   12  A    between atoms: _23  and  _24
REMARK   13  A    between atoms: _25  and  _26
REMARK   14  A    between atoms: _27  and  _29
REMARK   15  A    between atoms: _29  and  _30
REMARK   16  A    between atoms: _29  and  _31
REMARK   17  A    between atoms: _31  and  _32
REMARK   18  A    between atoms: _31  and  _33
REMARK   19  A    between atoms: _34  and  _36
REMARK                            x       y       z     vdW  Elec       q    Type
REMARK                         _______ _______ _______ _____ _____    ______ ____
ROOT
ATOM      1  C   UNL     1       3.557   5.137  37.042  0.00  0.00    +0.163 C 
ENDROOT
BRANCH   1   2
ATOM      2  O   UNL     1       3.599   5.967  35.870  0.00  0.00    -0.388 OA
ATOM      3  H   UNL     1       3.307   6.854  36.095  0.00  0.00    +0.210 HD
ENDBRANCH   1   2
BRANCH   1   4
ATOM      4  C   UNL     1       4.482   5.688  38.140  0.00  0.00    +0.175 C 
BRANCH   4   5
ATOM      5  C   UNL     1       5.727   6.373  37.557  0.00  0.00    +0.176 C 
ATOM      6  O   UNL     1       6.207   5.560  36.451  0.00  0.00    -0.332 OA
ATOM      7  C   UNL     1       7.337   6.116  35.700  0.00  0.00    +0.277 C 
ATOM      8  C   UNL     1       8.510   6.448  36.654  0.00  0.00    +0.110 C 
ATOM      9  C   UNL     1       8.042   7.284  37.863  0.00  0.00    +0.143 C 
ATOM     10  C   UNL     1       6.862   6.616  38.569  0.00  0.00    +0.133 C 
BRANCH  10  11
ATOM     11  N   UNL     1       6.370   7.464  39.666  0.00  0.00    -0.308 N 
ATOM     12  H   UNL     1       5.908   8.329  39.422  0.00  0.00    +0.149 HD
ATOM     13  C   UNL     1       6.492   7.165  40.962  0.00  0.00    +0.210 C 
ATOM     14  C   UNL     1       7.223   5.853  41.301  0.00  0.00    +0.109 C 
ATOM     15  O   UNL     1       6.057   7.888  41.859  0.00  0.00    -0.276 OA
ENDBRANCH  10  11
BRANCH   7  16
ATOM     16  C   UNL     1       6.914   7.391  34.940  0.00  0.00    +0.414 C 
ATOM     17  O   UNL     1       7.743   8.264  34.684  0.00  0.00    -0.240 OA
ATOM     18  O   UNL     1       5.745   7.546  34.584  0.00  0.00    -0.240 OA
ENDBRANCH   7  16
BRANCH   7  19
ATOM     19  O   UNL     1       7.786   5.111  34.755  0.00  0.00    -0.343 OA
ATOM     20  C   UNL     1       6.761   4.184  34.314  0.00  0.00    +0.198 C 
ENDBRANCH   7  19
BRANCH   9  21
ATOM     21  O   UNL     1       9.119   7.437  38.789  0.00  0.00    -0.390 OA
ATOM     22  H   UNL     1       8.890   8.106  39.439  0.00  0.00    +0.210 HD
ENDBRANCH   9  21
ENDBRANCH   4   5
BRANCH   4  23
ATOM     23  O   UNL     1       4.872   4.630  39.039  0.00  0.00    -0.387 OA
ATOM     24  H   UNL     1       4.920   3.801  38.556  0.00  0.00    +0.210 HD
ENDBRANCH   4  23
ENDBRANCH   1   4
BRANCH   1  25
ATOM     25  C   UNL     1       2.129   5.055  37.572  0.00  0.00    +0.141 C 
BRANCH  25  28
ATOM     26  C   UNL     1       1.189   5.463  39.820  0.00  0.00    +0.401 C 
ATOM     27  O   UNL     1       0.540   4.415  39.843  0.00  0.00    -0.226 OA
ATOM     28  N   UNL     1       1.954   5.845  38.797  0.00  0.00    -0.279 N 
ATOM     29  H   UNL     1       2.440   6.727  38.868  0.00  0.00    +0.152 HD
BRANCH  26  30
ATOM     30  O   UNL     1       1.129   6.341  40.948  0.00  0.00    -0.444 OA
BRANCH  30  31
ATOM     31  C   UNL     1       2.418   6.917  41.174  0.00  0.00    +0.292 C 
BRANCH  31  33
ATOM     32  N   UNL     1       1.241   9.062  41.550  0.00  0.00    -0.131 NA
ATOM     33  C   UNL     1       2.344   8.388  41.093  0.00  0.00    +0.120 A 
ATOM     34  C   UNL     1       3.253   9.296  40.598  0.00  0.00    +0.137 A 
ATOM     35  N   UNL     1       2.640  10.499  40.771  0.00  0.00    -0.251 N 
ATOM     36  N   UNL     1       1.433  10.357  41.344  0.00  0.00    -0.065 NA
BRANCH  35  37
ATOM     37  C   UNL     1       3.132  11.813  40.427  0.00  0.00    +0.156 C 
BRANCH  37  38
ATOM     38  C   UNL     1       2.011  12.839  40.343  0.00  0.00    +0.143 C 
BRANCH  38  39
ATOM     39  C   UNL     1       1.804  13.266  38.918  0.00  0.00    +0.306 C 
ATOM     40  O   UNL     1       0.826  13.868  38.505  0.00  0.00    -0.251 OA
BRANCH  39  41
ATOM     41  O   UNL     1       2.823  12.899  38.110  0.00  0.00    -0.481 OA
ATOM     42  H   UNL     1       2.672  13.085  37.163  0.00  0.00    +0.295 HD
ENDBRANCH  39  41
ENDBRANCH  38  39
ENDBRANCH  37  38
ENDBRANCH  35  37
ENDBRANCH  31  33
ENDBRANCH  30  31
ENDBRANCH  26  30
ENDBRANCH  25  28
ENDBRANCH   1  25
TORSDOF 17
