REMARK VINA RESULT:    -6.082      7.151     11.564
REMARK INTER + INTRA:         -13.131
REMARK INTER:                 -11.627
REMARK INTRA:                  -1.504
REMARK UNBOUND:                -2.248
REMARK  Name = lig_assembled_61.pdb
REMARK  17 active torsions:
REMARK  status: ('A' for Active; 'I' for Inactive)
REMARK    1  A    between atoms: _2  and  _9
REMARK    2  A    between atoms: _4  and  _17
REMARK    3  A    between atoms: _6  and  _7
REMARK    4  A    between atoms: _6  and  _17
REMARK    5  A    between atoms: _9  and  _10
REMARK    6  A    between atoms: _13  and  _33
REMARK    7  A    between atoms: _15  and  _21
REMARK    8  A    between atoms: _16  and  _20
REMARK    9  A    between atoms: _20  and  _21
REMARK   10  A    between atoms: _23  and  _24
REMARK   11  A    between atoms: _25  and  _26
REMARK   12  A    between atoms: _27  and  _29
REMARK   13  A    between atoms: _29  and  _30
REMARK   14  A    between atoms: _29  and  _31
REMARK   15  A    between atoms: _31  and  _32
REMARK   16  A    between atoms: _31  and  _33
REMARK   17  A    between atoms: _34  and  _36
REMARK                            x       y       z     vdW  Elec       q    Type
REMARK                         _______ _______ _______ _____ _____    ______ ____
ROOT
ATOM      1  C   UNL     1       7.318   2.422  34.372  0.00  0.00    +0.163 C 
ENDROOT
BRANCH   1   2
ATOM      2  O   UNL     1       7.209   2.499  35.803  0.00  0.00    -0.388 OA
ATOM      3  H   UNL     1       7.727   3.241  36.125  0.00  0.00    +0.210 HD
ENDBRANCH   1   2
BRANCH   1   4
ATOM      4  C   UNL     1       8.331   1.350  33.983  0.00  0.00    +0.141 C 
BRANCH   4   7
ATOM      5  C   UNL     1      10.533   2.005  34.893  0.00  0.00    +0.401 C 
ATOM      6  O   UNL     1      10.261   1.669  36.048  0.00  0.00    -0.226 OA
ATOM      7  N   UNL     1       9.689   1.897  33.866  0.00  0.00    -0.279 N 
ATOM      8  H   UNL     1      10.001   2.208  32.957  0.00  0.00    +0.152 HD
BRANCH   5   9
ATOM      9  O   UNL     1      11.825   2.550  34.615  0.00  0.00    -0.444 OA
BRANCH   9  10
ATOM     10  C   UNL     1      12.451   2.945  35.838  0.00  0.00    +0.292 C 
BRANCH  10  12
ATOM     11  N   UNL     1      13.407   5.196  36.220  0.00  0.00    -0.131 NA
ATOM     12  C   UNL     1      13.468   3.983  35.585  0.00  0.00    +0.120 A 
ATOM     13  C   UNL     1      14.569   3.961  34.757  0.00  0.00    +0.137 A 
ATOM     14  N   UNL     1      15.102   5.210  34.888  0.00  0.00    -0.247 N 
ATOM     15  N   UNL     1      14.426   5.935  35.799  0.00  0.00    -0.065 NA
BRANCH  14  16
ATOM     16  C   UNL     1      16.262   5.767  34.217  0.00  0.00    +0.180 C 
BRANCH  16  17
ATOM     17  C   UNL     1      16.160   7.260  34.074  0.00  0.00    -0.019 A 
ATOM     18  C   UNL     1      15.321   7.932  33.122  0.00  0.00    +0.013 A 
ATOM     19  C   UNL     1      15.445   9.304  33.174  0.00  0.00    +0.045 A 
ATOM     20  S   UNL     1      16.556   9.800  34.371  0.00  0.00    -0.105 S 
ATOM     21  C   UNL     1      16.883   8.183  34.813  0.00  0.00    +0.050 A 
ENDBRANCH  16  17
ENDBRANCH  14  16
ENDBRANCH  10  12
ENDBRANCH   9  10
ENDBRANCH   5   9
ENDBRANCH   4   7
ENDBRANCH   1   4
BRANCH   1  22
ATOM     22  C   UNL     1       7.748   3.775  33.780  0.00  0.00    +0.175 C 
BRANCH  22  23
ATOM     23  C   UNL     1       7.128   4.960  34.535  0.00  0.00    +0.176 C 
ATOM     24  O   UNL     1       7.845   5.114  35.791  0.00  0.00    -0.332 OA
ATOM     25  C   UNL     1       7.457   6.270  36.604  0.00  0.00    +0.277 C 
ATOM     26  C   UNL     1       5.932   6.258  36.870  0.00  0.00    +0.110 C 
ATOM     27  C   UNL     1       5.128   6.065  35.567  0.00  0.00    +0.143 C 
ATOM     28  C   UNL     1       5.616   4.836  34.799  0.00  0.00    +0.133 C 
BRANCH  28  29
ATOM     29  N   UNL     1       4.902   4.712  33.518  0.00  0.00    -0.308 N 
ATOM     30  H   UNL     1       5.103   5.393  32.799  0.00  0.00    +0.149 HD
ATOM     31  C   UNL     1       4.008   3.759  33.244  0.00  0.00    +0.210 C 
ATOM     32  C   UNL     1       3.705   2.752  34.370  0.00  0.00    +0.109 C 
ATOM     33  O   UNL     1       3.436   3.671  32.157  0.00  0.00    -0.276 OA
ENDBRANCH  28  29
BRANCH  25  34
ATOM     34  C   UNL     1       7.848   7.588  35.903  0.00  0.00    +0.414 C 
ATOM     35  O   UNL     1       8.162   8.575  36.567  0.00  0.00    -0.240 OA
ATOM     36  O   UNL     1       7.849   7.664  34.674  0.00  0.00    -0.240 OA
ENDBRANCH  25  34
BRANCH  25  37
ATOM     37  O   UNL     1       8.144   6.173  37.879  0.00  0.00    -0.343 OA
ATOM     38  C   UNL     1       9.229   5.212  37.918  0.00  0.00    +0.198 C 
ENDBRANCH  25  37
BRANCH  27  39
ATOM     39  O   UNL     1       3.742   5.908  35.874  0.00  0.00    -0.390 OA
ATOM     40  H   UNL     1       3.589   6.146  36.792  0.00  0.00    +0.210 HD
ENDBRANCH  27  39
ENDBRANCH  22  23
BRANCH  22  41
ATOM     41  O   UNL     1       7.399   3.839  32.383  0.00  0.00    -0.387 OA
ATOM     42  H   UNL     1       7.361   4.757  32.103  0.00  0.00    +0.210 HD
ENDBRANCH  22  41
ENDBRANCH   1  22
TORSDOF 15
