REMARK VINA RESULT:    -6.275      3.739      5.217
REMARK INTER + INTRA:         -13.429
REMARK INTER:                 -11.762
REMARK INTRA:                  -1.666
REMARK UNBOUND:                -2.568
REMARK  Name = lig_assembled_27.pdb
REMARK  16 active torsions:
REMARK  status: ('A' for Active; 'I' for Inactive)
REMARK    1  A    between atoms: _2  and  _9
REMARK    2  A    between atoms: _4  and  _18
REMARK    3  A    between atoms: _6  and  _7
REMARK    4  A    between atoms: _6  and  _18
REMARK    5  A    between atoms: _14  and  _34
REMARK    6  A    between atoms: _16  and  _22
REMARK    7  A    between atoms: _17  and  _21
REMARK    8  A    between atoms: _21  and  _22
REMARK    9  A    between atoms: _24  and  _25
REMARK   10  A    between atoms: _26  and  _27
REMARK   11  A    between atoms: _28  and  _30
REMARK   12  A    between atoms: _30  and  _31
REMARK   13  A    between atoms: _30  and  _32
REMARK   14  A    between atoms: _32  and  _33
REMARK   15  A    between atoms: _32  and  _34
REMARK   16  A    between atoms: _35  and  _37
REMARK                            x       y       z     vdW  Elec       q    Type
REMARK                         _______ _______ _______ _____ _____    ______ ____
ROOT
ATOM      1  C   UNL     1       6.478   2.903  32.771  0.00  0.00    +0.163 C 
ENDROOT
BRANCH   1   2
ATOM      2  O   UNL     1       6.285   3.238  31.387  0.00  0.00    -0.388 OA
ATOM      3  H   UNL     1       7.077   3.019  30.890  0.00  0.00    +0.210 HD
ENDBRANCH   1   2
BRANCH   1   4
ATOM      4  C   UNL     1       5.212   3.213  33.564  0.00  0.00    +0.141 C 
BRANCH   4   7
ATOM      5  C   UNL     1       2.953   3.537  32.617  0.00  0.00    +0.401 C 
ATOM      6  O   UNL     1       2.485   2.525  33.144  0.00  0.00    -0.226 OA
ATOM      7  N   UNL     1       4.220   3.930  32.754  0.00  0.00    -0.279 N 
ATOM      8  H   UNL     1       4.514   4.769  32.274  0.00  0.00    +0.152 HD
BRANCH   5   9
ATOM      9  O   UNL     1       2.107   4.350  31.800  0.00  0.00    -0.444 OA
BRANCH   9  10
ATOM     10  C   UNL     1       0.989   3.578  31.353  0.00  0.00    +0.292 C 
BRANCH  10  12
ATOM     11  N   UNL     1       1.511   1.612  29.944  0.00  0.00    -0.131 NA
ATOM     12  C   UNL     1       1.284   2.954  30.050  0.00  0.00    +0.121 A 
ATOM     13  C   UNL     1       1.378   3.525  28.803  0.00  0.00    +0.143 A 
ATOM     14  N   UNL     1       1.659   2.481  27.952  0.00  0.00    -0.220 N 
ATOM     15  N   UNL     1       1.739   1.332  28.667  0.00  0.00    -0.060 NA
BRANCH  14  16
ATOM     16  C   UNL     1       1.850   2.506  26.546  0.00  0.00    +0.068 A 
ATOM     17  C   UNL     1       2.139   1.315  25.862  0.00  0.00    +0.028 A 
ATOM     18  C   UNL     1       2.332   1.328  24.478  0.00  0.00    +0.003 A 
ATOM     19  C   UNL     1       2.239   2.525  23.771  0.00  0.00    +0.020 A 
ATOM     20  C   UNL     1       1.950   3.707  24.448  0.00  0.00    +0.043 A 
ATOM     21 CL   UNL     1       1.833   5.185  23.574  0.00  0.00    -0.083 Cl
ATOM     22  C   UNL     1       1.754   3.708  25.830  0.00  0.00    +0.047 A 
ENDBRANCH  14  16
ENDBRANCH  10  12
ENDBRANCH   9  10
ENDBRANCH   5   9
ENDBRANCH   4   7
ENDBRANCH   1   4
BRANCH   1  23
ATOM     23  C   UNL     1       7.661   3.686  33.366  0.00  0.00    +0.175 C 
BRANCH  23  24
ATOM     24  C   UNL     1       7.351   4.223  34.771  0.00  0.00    +0.176 C 
ATOM     25  O   UNL     1       7.315   5.674  34.697  0.00  0.00    -0.332 OA
ATOM     26  C   UNL     1       6.926   6.363  35.931  0.00  0.00    +0.277 C 
ATOM     27  C   UNL     1       7.833   5.921  37.106  0.00  0.00    +0.110 C 
ATOM     28  C   UNL     1       7.929   4.384  37.205  0.00  0.00    +0.143 C 
ATOM     29  C   UNL     1       8.337   3.772  35.865  0.00  0.00    +0.133 C 
BRANCH  29  30
ATOM     30  N   UNL     1       8.340   2.303  35.949  0.00  0.00    -0.308 N 
ATOM     31  H   UNL     1       7.499   1.848  36.275  0.00  0.00    +0.149 HD
ATOM     32  C   UNL     1       9.381   1.532  35.623  0.00  0.00    +0.210 C 
ATOM     33  C   UNL     1      10.657   2.258  35.155  0.00  0.00    +0.109 C 
ATOM     34  O   UNL     1       9.350   0.303  35.689  0.00  0.00    -0.276 OA
ENDBRANCH  29  30
BRANCH  26  35
ATOM     35  C   UNL     1       5.452   6.069  36.280  0.00  0.00    +0.414 C 
ATOM     36  O   UNL     1       4.617   5.941  35.386  0.00  0.00    -0.240 OA
ATOM     37  O   UNL     1       5.098   5.961  37.455  0.00  0.00    -0.240 OA
ENDBRANCH  26  35
BRANCH  28  38
ATOM     38  O   UNL     1       8.889   4.024  38.199  0.00  0.00    -0.390 OA
ATOM     39  H   UNL     1       9.521   3.405  37.825  0.00  0.00    +0.210 HD
ENDBRANCH  28  38
BRANCH  26  40
ATOM     40  O   UNL     1       7.105   7.788  35.726  0.00  0.00    -0.343 OA
ATOM     41  C   UNL     1       7.532   8.166  34.393  0.00  0.00    +0.198 C 
ENDBRANCH  26  40
ENDBRANCH  23  24
BRANCH  23  42
ATOM     42  O   UNL     1       8.030   4.770  32.490  0.00  0.00    -0.387 OA
ATOM     43  H   UNL     1       7.459   5.524  32.655  0.00  0.00    +0.210 HD
ENDBRANCH  23  42
ENDBRANCH   1  23
TORSDOF 14
