REMARK VINA RESULT:    -6.221     14.459     16.663
REMARK INTER + INTRA:         -14.672
REMARK INTER:                 -12.102
REMARK INTRA:                  -2.570
REMARK UNBOUND:                -2.450
REMARK  Name = lig_assembled_10.pdb
REMARK  21 active torsions:
REMARK  status: ('A' for Active; 'I' for Inactive)
REMARK    1  A    between atoms: _2  and  _9
REMARK    2  A    between atoms: _4  and  _20
REMARK    3  A    between atoms: _5  and  _9
REMARK    4  A    between atoms: _5  and  _12
REMARK    5  A    between atoms: _6  and  _7
REMARK    6  A    between atoms: _6  and  _20
REMARK    7  A    between atoms: _9  and  _10
REMARK    8  A    between atoms: _10  and  _11
REMARK    9  A    between atoms: _11  and  _14
REMARK   10  A    between atoms: _16  and  _36
REMARK   11  A    between atoms: _18  and  _24
REMARK   12  A    between atoms: _19  and  _23
REMARK   13  A    between atoms: _23  and  _24
REMARK   14  A    between atoms: _26  and  _27
REMARK   15  A    between atoms: _28  and  _29
REMARK   16  A    between atoms: _30  and  _32
REMARK   17  A    between atoms: _32  and  _33
REMARK   18  A    between atoms: _32  and  _34
REMARK   19  A    between atoms: _34  and  _35
REMARK   20  A    between atoms: _34  and  _36
REMARK   21  A    between atoms: _37  and  _39
REMARK                            x       y       z     vdW  Elec       q    Type
REMARK                         _______ _______ _______ _____ _____    ______ ____
ROOT
ATOM      1  C   UNL     1       5.013   4.070  33.103  0.00  0.00    +0.163 C 
ENDROOT
BRANCH   1   2
ATOM      2  O   UNL     1       4.254   4.605  34.200  0.00  0.00    -0.388 OA
ATOM      3  H   UNL     1       3.497   4.040  34.372  0.00  0.00    +0.210 HD
ENDBRANCH   1   2
BRANCH   1   4
ATOM      4  C   UNL     1       6.410   3.622  33.566  0.00  0.00    +0.175 C 
BRANCH   4   5
ATOM      5  C   UNL     1       6.762   4.174  34.955  0.00  0.00    +0.176 C 
ATOM      6  O   UNL     1       6.900   5.617  34.841  0.00  0.00    -0.332 OA
ATOM      7  C   UNL     1       7.134   6.333  36.099  0.00  0.00    +0.277 C 
ATOM      8  C   UNL     1       8.363   5.746  36.835  0.00  0.00    +0.110 C 
ATOM      9  C   UNL     1       8.277   4.210  36.952  0.00  0.00    +0.143 C 
ATOM     10  C   UNL     1       8.030   3.568  35.587  0.00  0.00    +0.133 C 
BRANCH  10  11
ATOM     11  N   UNL     1       7.863   2.113  35.724  0.00  0.00    -0.308 N 
ATOM     12  H   UNL     1       7.070   1.777  36.252  0.00  0.00    +0.149 HD
ATOM     13  C   UNL     1       8.691   1.208  35.196  0.00  0.00    +0.210 C 
ATOM     14  C   UNL     1       9.905   1.753  34.420  0.00  0.00    +0.109 C 
ATOM     15  O   UNL     1       8.519  -0.006  35.315  0.00  0.00    -0.276 OA
ENDBRANCH  10  11
BRANCH   7  16
ATOM     16  C   UNL     1       5.895   6.247  37.015  0.00  0.00    +0.414 C 
ATOM     17  O   UNL     1       6.009   6.417  38.229  0.00  0.00    -0.240 OA
ATOM     18  O   UNL     1       4.784   6.009  36.542  0.00  0.00    -0.240 OA
ENDBRANCH   7  16
BRANCH   7  19
ATOM     19  O   UNL     1       7.410   7.721  35.781  0.00  0.00    -0.343 OA
ATOM     20  C   UNL     1       7.379   8.043  34.367  0.00  0.00    +0.198 C 
ENDBRANCH   7  19
BRANCH   9  21
ATOM     21  O   UNL     1       9.494   3.700  37.498  0.00  0.00    -0.390 OA
ATOM     22  H   UNL     1       9.361   3.471  38.421  0.00  0.00    +0.210 HD
ENDBRANCH   9  21
ENDBRANCH   4   5
BRANCH   4  23
ATOM     23  O   UNL     1       7.405   4.025  32.604  0.00  0.00    -0.387 OA
ATOM     24  H   UNL     1       7.740   4.895  32.835  0.00  0.00    +0.210 HD
ENDBRANCH   4  23
ENDBRANCH   1   4
BRANCH   1  25
ATOM     25  C   UNL     1       4.276   2.885  32.488  0.00  0.00    +0.141 C 
BRANCH  25  28
ATOM     26  C   UNL     1       2.156   3.788  31.595  0.00  0.00    +0.401 C 
ATOM     27  O   UNL     1       1.640   3.930  32.706  0.00  0.00    -0.226 OA
ATOM     28  N   UNL     1       3.382   3.300  31.400  0.00  0.00    -0.279 N 
ATOM     29  H   UNL     1       3.715   3.212  30.450  0.00  0.00    +0.152 HD
BRANCH  26  30
ATOM     30  O   UNL     1       1.413   4.157  30.431  0.00  0.00    -0.444 OA
BRANCH  30  31
ATOM     31  C   UNL     1       0.944   2.979  29.769  0.00  0.00    +0.292 C 
BRANCH  31  33
ATOM     32  N   UNL     1       2.220   3.736  27.786  0.00  0.00    -0.131 NA
ATOM     33  C   UNL     1       1.124   3.106  28.311  0.00  0.00    +0.120 A 
ATOM     34  C   UNL     1       0.325   2.661  27.282  0.00  0.00    +0.138 A 
ATOM     35  N   UNL     1       1.004   3.010  26.156  0.00  0.00    -0.237 N 
ATOM     36  N   UNL     1       2.134   3.679  26.466  0.00  0.00    -0.065 NA
BRANCH  35  37
ATOM     37  C   UNL     1       0.706   2.777  24.752  0.00  0.00    +0.227 C 
BRANCH  37  38
ATOM     38  C   UNL     1       1.925   2.623  23.867  0.00  0.00    +0.330 C 
ATOM     39  O   UNL     1       2.045   3.252  22.822  0.00  0.00    -0.249 OA
BRANCH  38  40
ATOM     40  O   UNL     1       2.902   1.796  24.294  0.00  0.00    -0.479 OA
ATOM     41  H   UNL     1       2.702   0.825  24.278  0.00  0.00    +0.295 HD
ENDBRANCH  38  40
ENDBRANCH  37  38
BRANCH  37  42
ATOM     42  C   UNL     1      -0.327   3.743  24.158  0.00  0.00    +0.158 C 
BRANCH  42  43
ATOM     43  C   UNL     1      -0.121   5.154  24.632  0.00  0.00    +0.307 C 
ATOM     44  O   UNL     1      -0.881   5.731  25.401  0.00  0.00    -0.251 OA
BRANCH  43  45
ATOM     45  O   UNL     1       1.027   5.708  24.198  0.00  0.00    -0.481 OA
ATOM     46  H   UNL     1       0.938   6.303  23.428  0.00  0.00    +0.295 HD
ENDBRANCH  43  45
ENDBRANCH  42  43
ENDBRANCH  37  42
ENDBRANCH  35  37
ENDBRANCH  31  33
ENDBRANCH  30  31
ENDBRANCH  26  30
ENDBRANCH  25  28
ENDBRANCH   1  25
TORSDOF 19
