REMARK VINA RESULT:    -5.618      9.430     13.203
REMARK INTER + INTRA:         -13.187
REMARK INTER:                 -10.583
REMARK INTRA:                  -2.603
REMARK UNBOUND:                -2.970
REMARK  Name = lig_assembled_22.pdb
REMARK  20 active torsions:
REMARK  status: ('A' for Active; 'I' for Inactive)
REMARK    1  A    between atoms: _2  and  _9
REMARK    2  A    between atoms: _4  and  _18
REMARK    3  A    between atoms: _5  and  _9
REMARK    4  A    between atoms: _5  and  _12
REMARK    5  A    between atoms: _6  and  _7
REMARK    6  A    between atoms: _6  and  _18
REMARK    7  A    between atoms: _9  and  _10
REMARK    8  A    between atoms: _9  and  _11
REMARK    9  A    between atoms: _14  and  _34
REMARK   10  A    between atoms: _16  and  _22
REMARK   11  A    between atoms: _17  and  _21
REMARK   12  A    between atoms: _21  and  _22
REMARK   13  A    between atoms: _24  and  _25
REMARK   14  A    between atoms: _26  and  _27
REMARK   15  A    between atoms: _28  and  _30
REMARK   16  A    between atoms: _30  and  _31
REMARK   17  A    between atoms: _30  and  _32
REMARK   18  A    between atoms: _32  and  _33
REMARK   19  A    between atoms: _32  and  _34
REMARK   20  A    between atoms: _35  and  _37
REMARK                            x       y       z     vdW  Elec       q    Type
REMARK                         _______ _______ _______ _____ _____    ______ ____
ROOT
ATOM      1  C   UNL     1       9.788   3.861  37.233  0.00  0.00    +0.163 C 
ENDROOT
BRANCH   1   2
ATOM      2  O   UNL     1      10.242   5.201  36.980  0.00  0.00    -0.388 OA
ATOM      3  H   UNL     1      10.012   5.454  36.083  0.00  0.00    +0.210 HD
ENDBRANCH   1   2
BRANCH   1   4
ATOM      4  C   UNL     1      10.976   2.906  37.272  0.00  0.00    +0.141 C 
BRANCH   4   7
ATOM      5  C   UNL     1      12.201   2.587  35.150  0.00  0.00    +0.401 C 
ATOM      6  O   UNL     1      11.561   1.586  34.821  0.00  0.00    -0.226 OA
ATOM      7  N   UNL     1      11.999   3.263  36.282  0.00  0.00    -0.279 N 
ATOM      8  H   UNL     1      12.582   4.067  36.468  0.00  0.00    +0.152 HD
BRANCH   5   9
ATOM      9  O   UNL     1      13.232   3.068  34.283  0.00  0.00    -0.444 OA
BRANCH   9  10
ATOM     10  C   UNL     1      14.432   3.272  35.034  0.00  0.00    +0.292 C 
BRANCH  10  12
ATOM     11  N   UNL     1      14.207   5.700  35.424  0.00  0.00    -0.131 NA
ATOM     12  C   UNL     1      14.904   4.660  34.876  0.00  0.00    +0.120 A 
ATOM     13  C   UNL     1      16.011   5.157  34.223  0.00  0.00    +0.138 A 
ATOM     14  N   UNL     1      15.932   6.509  34.409  0.00  0.00    -0.235 N 
ATOM     15  N   UNL     1      14.840   6.824  35.131  0.00  0.00    -0.064 NA
BRANCH  14  16
ATOM     16  C   UNL     1      16.823   7.567  33.928  0.00  0.00    +0.155 C 
ATOM     17  C   UNL     1      18.234   7.034  33.596  0.00  0.00    +0.048 C 
ATOM     18  C   UNL     1      16.954   8.640  35.024  0.00  0.00    +0.048 C 
BRANCH  16  19
ATOM     19  C   UNL     1      16.258   8.199  32.653  0.00  0.00    +0.332 C 
ATOM     20  O   UNL     1      16.835   8.202  31.572  0.00  0.00    -0.248 OA
BRANCH  19  21
ATOM     21  O   UNL     1      15.040   8.778  32.784  0.00  0.00    -0.479 OA
ATOM     22  H   UNL     1      14.379   8.286  33.310  0.00  0.00    +0.295 HD
ENDBRANCH  19  21
ENDBRANCH  16  19
ENDBRANCH  14  16
ENDBRANCH  10  12
ENDBRANCH   9  10
ENDBRANCH   5   9
ENDBRANCH   4   7
ENDBRANCH   1   4
BRANCH   1  23
ATOM     23  C   UNL     1       8.796   3.404  36.149  0.00  0.00    +0.175 C 
BRANCH  23  24
ATOM     24  C   UNL     1       7.975   4.574  35.586  0.00  0.00    +0.176 C 
ATOM     25  O   UNL     1       7.570   5.413  36.702  0.00  0.00    -0.332 OA
ATOM     26  C   UNL     1       6.861   6.645  36.343  0.00  0.00    +0.277 C 
ATOM     27  C   UNL     1       5.633   6.324  35.457  0.00  0.00    +0.110 C 
ATOM     28  C   UNL     1       6.008   5.407  34.274  0.00  0.00    +0.143 C 
ATOM     29  C   UNL     1       6.744   4.158  34.760  0.00  0.00    +0.133 C 
BRANCH  29  30
ATOM     30  N   UNL     1       7.173   3.335  33.618  0.00  0.00    -0.308 N 
ATOM     31  H   UNL     1       7.893   3.706  33.014  0.00  0.00    +0.149 HD
ATOM     32  C   UNL     1       6.673   2.131  33.328  0.00  0.00    +0.210 C 
ATOM     33  C   UNL     1       5.559   1.605  34.253  0.00  0.00    +0.109 C 
ATOM     34  O   UNL     1       7.062   1.458  32.373  0.00  0.00    -0.276 OA
ENDBRANCH  29  30
BRANCH  26  35
ATOM     35  C   UNL     1       7.797   7.617  35.596  0.00  0.00    +0.414 C 
ATOM     36  O   UNL     1       8.955   7.779  35.977  0.00  0.00    -0.240 OA
ATOM     37  O   UNL     1       7.394   8.239  34.612  0.00  0.00    -0.240 OA
ENDBRANCH  26  35
BRANCH  26  38
ATOM     38  O   UNL     1       6.391   7.265  37.568  0.00  0.00    -0.343 OA
ATOM     39  C   UNL     1       6.953   6.717  38.787  0.00  0.00    +0.198 C 
ENDBRANCH  26  38
BRANCH  28  40
ATOM     40  O   UNL     1       4.827   5.015  33.574  0.00  0.00    -0.390 OA
ATOM     41  H   UNL     1       4.204   4.624  34.190  0.00  0.00    +0.210 HD
ENDBRANCH  28  40
ENDBRANCH  23  24
BRANCH  23  42
ATOM     42  O   UNL     1       7.918   2.389  36.676  0.00  0.00    -0.387 OA
ATOM     43  H   UNL     1       8.441   1.681  37.059  0.00  0.00    +0.210 HD
ENDBRANCH  23  42
ENDBRANCH   1  23
TORSDOF 16
