REMARK VINA RESULT:    -6.094      0.000      0.000
REMARK INTER + INTRA:         -14.856
REMARK INTER:                 -12.730
REMARK INTRA:                  -2.126
REMARK UNBOUND:                -2.172
REMARK  Name = lig_assembled_54.pdb
REMARK  24 active torsions:
REMARK  status: ('A' for Active; 'I' for Inactive)
REMARK    1  A    between atoms: _2  and  _9
REMARK    2  A    between atoms: _4  and  _21
REMARK    3  A    between atoms: _5  and  _14
REMARK    4  A    between atoms: _6  and  _7
REMARK    5  A    between atoms: _6  and  _21
REMARK    6  A    between atoms: _9  and  _10
REMARK    7  A    between atoms: _10  and  _11
REMARK    8  A    between atoms: _11  and  _15
REMARK    9  A    between atoms: _11  and  _16
REMARK   10  A    between atoms: _12  and  _13
REMARK   11  A    between atoms: _12  and  _16
REMARK   12  A    between atoms: _14  and  _15
REMARK   13  A    between atoms: _17  and  _37
REMARK   14  A    between atoms: _19  and  _25
REMARK   15  A    between atoms: _20  and  _24
REMARK   16  A    between atoms: _24  and  _25
REMARK   17  A    between atoms: _27  and  _28
REMARK   18  A    between atoms: _29  and  _30
REMARK   19  A    between atoms: _31  and  _33
REMARK   20  A    between atoms: _33  and  _34
REMARK   21  A    between atoms: _33  and  _35
REMARK   22  A    between atoms: _35  and  _36
REMARK   23  A    between atoms: _35  and  _37
REMARK   24  A    between atoms: _38  and  _40
REMARK                            x       y       z     vdW  Elec       q    Type
REMARK                         _______ _______ _______ _____ _____    ______ ____
ROOT
ATOM      1  C   UNL     1       3.368   3.743  32.556  0.00  0.00    +0.163 C 
ENDROOT
BRANCH   1   2
ATOM      2  O   UNL     1       2.521   3.988  33.690  0.00  0.00    -0.388 OA
ATOM      3  H   UNL     1       1.652   4.263  33.388  0.00  0.00    +0.210 HD
ENDBRANCH   1   2
BRANCH   1   4
ATOM      4  C   UNL     1       4.677   3.058  32.984  0.00  0.00    +0.175 C 
BRANCH   4   5
ATOM      5  C   UNL     1       5.319   3.745  34.199  0.00  0.00    +0.176 C 
ATOM      6  O   UNL     1       5.341   5.176  33.942  0.00  0.00    -0.332 OA
ATOM      7  C   UNL     1       5.827   6.010  35.046  0.00  0.00    +0.277 C 
ATOM      8  C   UNL     1       7.229   5.538  35.505  0.00  0.00    +0.110 C 
ATOM      9  C   UNL     1       7.262   4.017  35.759  0.00  0.00    +0.143 C 
ATOM     10  C   UNL     1       6.733   3.246  34.549  0.00  0.00    +0.133 C 
BRANCH  10  11
ATOM     11  N   UNL     1       6.688   1.804  34.835  0.00  0.00    -0.308 N 
ATOM     12  H   UNL     1       6.026   1.481  35.526  0.00  0.00    +0.149 HD
ATOM     13  C   UNL     1       7.466   0.894  34.242  0.00  0.00    +0.210 C 
ATOM     14  C   UNL     1       8.483   1.422  33.213  0.00  0.00    +0.109 C 
ATOM     15  O   UNL     1       7.396  -0.310  34.492  0.00  0.00    -0.276 OA
ENDBRANCH  10  11
BRANCH   7  16
ATOM     16  C   UNL     1       4.850   5.961  36.239  0.00  0.00    +0.414 C 
ATOM     17  O   UNL     1       3.681   5.618  36.070  0.00  0.00    -0.240 OA
ATOM     18  O   UNL     1       5.231   6.265  37.371  0.00  0.00    -0.240 OA
ENDBRANCH   7  16
BRANCH   9  19
ATOM     19  O   UNL     1       8.602   3.603  36.031  0.00  0.00    -0.390 OA
ATOM     20  H   UNL     1       9.183   4.367  36.013  0.00  0.00    +0.210 HD
ENDBRANCH   9  19
BRANCH   7  21
ATOM     21  O   UNL     1       5.939   7.374  34.563  0.00  0.00    -0.343 OA
ATOM     22  C   UNL     1       7.291   7.895  34.509  0.00  0.00    +0.198 C 
ENDBRANCH   7  21
ENDBRANCH   4   5
BRANCH   4  23
ATOM     23  O   UNL     1       5.606   3.029  31.882  0.00  0.00    -0.387 OA
ATOM     24  H   UNL     1       6.221   3.761  31.962  0.00  0.00    +0.210 HD
ENDBRANCH   4  23
ENDBRANCH   1   4
BRANCH   1  25
ATOM     25  C   UNL     1       2.642   2.866  31.541  0.00  0.00    +0.141 C 
BRANCH  25  28
ATOM     26  C   UNL     1       2.287   2.894  29.096  0.00  0.00    +0.401 C 
ATOM     27  O   UNL     1       2.220   1.667  28.997  0.00  0.00    -0.226 OA
ATOM     28  N   UNL     1       2.489   3.539  30.246  0.00  0.00    -0.279 N 
ATOM     29  H   UNL     1       2.539   4.548  30.224  0.00  0.00    +0.152 HD
BRANCH  26  30
ATOM     30  O   UNL     1       2.148   3.694  27.919  0.00  0.00    -0.444 OA
BRANCH  30  31
ATOM     31  C   UNL     1       0.954   3.322  27.227  0.00  0.00    +0.292 C 
BRANCH  31  33
ATOM     32  N   UNL     1      -0.085   5.027  25.761  0.00  0.00    -0.131 NA
ATOM     33  C   UNL     1       0.862   4.055  25.949  0.00  0.00    +0.120 A 
ATOM     34  C   UNL     1       1.631   3.948  24.810  0.00  0.00    +0.137 A 
ATOM     35  N   UNL     1       1.128   4.906  23.983  0.00  0.00    -0.251 N 
ATOM     36  N   UNL     1       0.093   5.549  24.554  0.00  0.00    -0.065 NA
BRANCH  35  37
ATOM     37  C   UNL     1       1.608   5.309  22.677  0.00  0.00    +0.150 C 
BRANCH  37  38
ATOM     38  C   UNL     1       0.612   4.965  21.580  0.00  0.00    +0.084 C 
BRANCH  38  39
ATOM     39  C   UNL     1       0.930   3.651  20.857  0.00  0.00    +0.252 C 
BRANCH  39  40
ATOM     40  O   UNL     1       0.155   3.546  19.659  0.00  0.00    -0.352 OA
BRANCH  40  41
ATOM     41  C   UNL     1       0.822   4.017  18.490  0.00  0.00    +0.159 C 
ATOM     42  C   UNL     1       2.263   3.549  18.528  0.00  0.00    +0.034 C 
ENDBRANCH  40  41
ENDBRANCH  39  40
BRANCH  39  43
ATOM     43  O   UNL     1       0.600   2.576  21.745  0.00  0.00    -0.352 OA
BRANCH  43  44
ATOM     44  C   UNL     1       1.413   1.420  21.531  0.00  0.00    +0.159 C 
ATOM     45  C   UNL     1       1.743   0.792  22.870  0.00  0.00    +0.034 C 
ENDBRANCH  43  44
ENDBRANCH  39  43
ENDBRANCH  38  39
ENDBRANCH  37  38
ENDBRANCH  35  37
ENDBRANCH  31  33
ENDBRANCH  30  31
ENDBRANCH  26  30
ENDBRANCH  25  28
ENDBRANCH   1  25
TORSDOF 20
