REMARK VINA RESULT:    -5.499     15.163     18.281
REMARK INTER + INTRA:         -13.239
REMARK INTER:                 -10.000
REMARK INTRA:                  -3.239
REMARK UNBOUND:                -3.239
REMARK  Name = lig_assembled_88.pdb
REMARK  18 active torsions:
REMARK  status: ('A' for Active; 'I' for Inactive)
REMARK    1  A    between atoms: _2  and  _9
REMARK    2  A    between atoms: _4  and  _20
REMARK    3  A    between atoms: _5  and  _15
REMARK    4  A    between atoms: _6  and  _7
REMARK    5  A    between atoms: _6  and  _20
REMARK    6  A    between atoms: _9  and  _10
REMARK    7  A    between atoms: _16  and  _36
REMARK    8  A    between atoms: _18  and  _24
REMARK    9  A    between atoms: _19  and  _23
REMARK   10  A    between atoms: _23  and  _24
REMARK   11  A    between atoms: _26  and  _27
REMARK   12  A    between atoms: _28  and  _29
REMARK   13  A    between atoms: _30  and  _32
REMARK   14  A    between atoms: _32  and  _33
REMARK   15  A    between atoms: _32  and  _34
REMARK   16  A    between atoms: _34  and  _35
REMARK   17  A    between atoms: _34  and  _36
REMARK   18  A    between atoms: _37  and  _39
REMARK                            x       y       z     vdW  Elec       q    Type
REMARK                         _______ _______ _______ _____ _____    ______ ____
ROOT
ATOM      1  C   UNL     1      18.732   6.190  30.393  0.00  0.00    +0.163 C 
ENDROOT
BRANCH   1   2
ATOM      2  O   UNL     1      17.977   7.335  30.821  0.00  0.00    -0.388 OA
ATOM      3  H   UNL     1      17.878   7.947  30.087  0.00  0.00    +0.210 HD
ENDBRANCH   1   2
BRANCH   1   4
ATOM      4  C   UNL     1      20.057   6.617  29.739  0.00  0.00    +0.175 C 
BRANCH   4   5
ATOM      5  C   UNL     1      19.912   6.831  28.225  0.00  0.00    +0.176 C 
ATOM      6  O   UNL     1      19.209   8.086  28.016  0.00  0.00    -0.332 OA
ATOM      7  C   UNL     1      19.070   8.510  26.619  0.00  0.00    +0.277 C 
ATOM      8  C   UNL     1      18.408   7.392  25.777  0.00  0.00    +0.110 C 
ATOM      9  C   UNL     1      19.103   6.031  25.991  0.00  0.00    +0.143 C 
ATOM     10  C   UNL     1      19.196   5.690  27.479  0.00  0.00    +0.133 C 
BRANCH  10  11
ATOM     11  N   UNL     1      19.937   4.434  27.675  0.00  0.00    -0.308 N 
ATOM     12  H   UNL     1      20.929   4.437  27.486  0.00  0.00    +0.149 HD
ATOM     13  C   UNL     1      19.383   3.289  28.084  0.00  0.00    +0.210 C 
ATOM     14  C   UNL     1      17.863   3.310  28.337  0.00  0.00    +0.109 C 
ATOM     15  O   UNL     1      20.030   2.256  28.254  0.00  0.00    -0.276 OA
ENDBRANCH  10  11
BRANCH   7  16
ATOM     16  C   UNL     1      20.446   8.864  26.016  0.00  0.00    +0.414 C 
ATOM     17  O   UNL     1      21.319   9.370  26.720  0.00  0.00    -0.240 OA
ATOM     18  O   UNL     1      20.682   8.643  24.828  0.00  0.00    -0.240 OA
ENDBRANCH   7  16
BRANCH   7  19
ATOM     19  O   UNL     1      18.209   9.677  26.588  0.00  0.00    -0.343 OA
ATOM     20  C   UNL     1      18.294  10.533  27.755  0.00  0.00    +0.198 C 
ENDBRANCH   7  19
BRANCH   9  21
ATOM     21  O   UNL     1      18.372   5.005  25.318  0.00  0.00    -0.390 OA
ATOM     22  H   UNL     1      17.434   5.109  25.499  0.00  0.00    +0.210 HD
ENDBRANCH   9  21
ENDBRANCH   4   5
BRANCH   4  23
ATOM     23  O   UNL     1      21.081   5.639  30.007  0.00  0.00    -0.387 OA
ATOM     24  H   UNL     1      21.375   5.248  29.181  0.00  0.00    +0.210 HD
ENDBRANCH   4  23
ENDBRANCH   1   4
BRANCH   1  25
ATOM     25  C   UNL     1      19.020   5.280  31.582  0.00  0.00    +0.141 C 
BRANCH  25  28
ATOM     26  C   UNL     1      17.825   5.011  33.728  0.00  0.00    +0.401 C 
ATOM     27  O   UNL     1      18.836   5.162  34.418  0.00  0.00    -0.226 OA
ATOM     28  N   UNL     1      17.821   5.045  32.395  0.00  0.00    -0.279 N 
ATOM     29  H   UNL     1      16.942   4.900  31.917  0.00  0.00    +0.152 HD
BRANCH  26  30
ATOM     30  O   UNL     1      16.571   4.780  34.375  0.00  0.00    -0.444 OA
BRANCH  30  31
ATOM     31  C   UNL     1      16.227   5.918  35.170  0.00  0.00    +0.292 C 
BRANCH  31  33
ATOM     32  N   UNL     1      15.546   6.869  32.987  0.00  0.00    -0.131 NA
ATOM     33  C   UNL     1      15.856   7.057  34.308  0.00  0.00    +0.120 A 
ATOM     34  C   UNL     1      15.771   8.399  34.605  0.00  0.00    +0.137 A 
ATOM     35  N   UNL     1      15.480   8.980  33.405  0.00  0.00    -0.247 N 
ATOM     36  N   UNL     1      15.295   8.053  32.446  0.00  0.00    -0.065 NA
BRANCH  35  37
ATOM     37  C   UNL     1      15.432  10.398  33.082  0.00  0.00    +0.184 C 
BRANCH  37  38
ATOM     38  C   UNL     1      16.785  11.076  33.171  0.00  0.00    +0.017 A 
ATOM     39  C   UNL     1      17.162  11.867  34.274  0.00  0.00    +0.024 A 
ATOM     40  C   UNL     1      18.418  12.478  34.321  0.00  0.00    +0.019 A 
ATOM     41 BR   UNL     1      18.870  13.573  35.796  0.00  0.00    -0.050 Br
ATOM     42  C   UNL     1      19.340  12.294  33.296  0.00  0.00    +0.034 A 
ATOM     43  C   UNL     1      18.999  11.476  32.221  0.00  0.00    +0.061 A 
ATOM     44 BR   UNL     1      20.271  11.198  30.844  0.00  0.00    -0.046 Br
ATOM     45  C   UNL     1      17.736  10.870  32.162  0.00  0.00    +0.136 A 
BRANCH  45  46
ATOM     46  O   UNL     1      17.396  10.052  31.117  0.00  0.00    -0.505 OA
ATOM     47  H   UNL     1      16.774   9.382  31.458  0.00  0.00    +0.292 HD
ENDBRANCH  45  46
ENDBRANCH  37  38
ENDBRANCH  35  37
ENDBRANCH  31  33
ENDBRANCH  30  31
ENDBRANCH  26  30
ENDBRANCH  25  28
ENDBRANCH   1  25
TORSDOF 16
