REMARK VINA RESULT:    -5.946     14.805     17.270
REMARK INTER + INTRA:         -12.894
REMARK INTER:                 -10.795
REMARK INTRA:                  -2.100
REMARK UNBOUND:                -2.083
REMARK  Name = lig_assembled_35.pdb
REMARK  19 active torsions:
REMARK  status: ('A' for Active; 'I' for Inactive)
REMARK    1  A    between atoms: _2  and  _9
REMARK    2  A    between atoms: _4  and  _17
REMARK    3  A    between atoms: _5  and  _9
REMARK    4  A    between atoms: _5  and  _11
REMARK    5  A    between atoms: _6  and  _7
REMARK    6  A    between atoms: _6  and  _17
REMARK    7  A    between atoms: _9  and  _10
REMARK    8  A    between atoms: _13  and  _33
REMARK    9  A    between atoms: _15  and  _21
REMARK   10  A    between atoms: _16  and  _20
REMARK   11  A    between atoms: _20  and  _21
REMARK   12  A    between atoms: _23  and  _24
REMARK   13  A    between atoms: _25  and  _26
REMARK   14  A    between atoms: _27  and  _29
REMARK   15  A    between atoms: _29  and  _30
REMARK   16  A    between atoms: _29  and  _31
REMARK   17  A    between atoms: _31  and  _32
REMARK   18  A    between atoms: _31  and  _33
REMARK   19  A    between atoms: _34  and  _36
REMARK                            x       y       z     vdW  Elec       q    Type
REMARK                         _______ _______ _______ _____ _____    ______ ____
ROOT
ATOM      1  C   UNL     1       4.349   3.837  32.832  0.00  0.00    +0.163 C 
ENDROOT
BRANCH   1   2
ATOM      2  O   UNL     1       3.533   4.352  33.896  0.00  0.00    -0.388 OA
ATOM      3  H   UNL     1       2.633   4.031  33.795  0.00  0.00    +0.210 HD
ENDBRANCH   1   2
BRANCH   1   4
ATOM      4  C   UNL     1       5.667   3.261  33.378  0.00  0.00    +0.175 C 
BRANCH   4   5
ATOM      5  C   UNL     1       6.135   3.991  34.645  0.00  0.00    +0.176 C 
ATOM      6  O   UNL     1       6.061   5.421  34.390  0.00  0.00    -0.332 OA
ATOM      7  C   UNL     1       6.373   6.285  35.533  0.00  0.00    +0.277 C 
ATOM      8  C   UNL     1       7.761   5.929  36.119  0.00  0.00    +0.110 C 
ATOM      9  C   UNL     1       7.898   4.413  36.376  0.00  0.00    +0.143 C 
ATOM     10  C   UNL     1       7.548   3.610  35.124  0.00  0.00    +0.133 C 
BRANCH  10  11
ATOM     11  N   UNL     1       7.598   2.167  35.406  0.00  0.00    -0.308 N 
ATOM     12  H   UNL     1       6.857   1.770  35.967  0.00  0.00    +0.149 HD
ATOM     13  C   UNL     1       8.559   1.347  34.971  0.00  0.00    +0.210 C 
ATOM     14  C   UNL     1       9.688   1.987  34.142  0.00  0.00    +0.109 C 
ATOM     15  O   UNL     1       8.567   0.139  35.211  0.00  0.00    -0.276 OA
ENDBRANCH  10  11
BRANCH   7  16
ATOM     16  C   UNL     1       5.299   6.147  36.632  0.00  0.00    +0.414 C 
ATOM     17  O   UNL     1       4.155   5.799  36.341  0.00  0.00    -0.240 OA
ATOM     18  O   UNL     1       5.576   6.383  37.809  0.00  0.00    -0.240 OA
ENDBRANCH   7  16
BRANCH   7  19
ATOM     19  O   UNL     1       6.414   7.657  35.060  0.00  0.00    -0.343 OA
ATOM     20  C   UNL     1       7.726   8.126  34.659  0.00  0.00    +0.198 C 
ENDBRANCH   7  19
BRANCH   9  21
ATOM     21  O   UNL     1       9.237   4.111  36.770  0.00  0.00    -0.390 OA
ATOM     22  H   UNL     1       9.306   3.177  36.982  0.00  0.00    +0.210 HD
ENDBRANCH   9  21
ENDBRANCH   4   5
BRANCH   4  23
ATOM     23  O   UNL     1       6.691   3.318  32.365  0.00  0.00    -0.387 OA
ATOM     24  H   UNL     1       7.161   2.481  32.336  0.00  0.00    +0.210 HD
ENDBRANCH   4  23
ENDBRANCH   1   4
BRANCH   1  25
ATOM     25  C   UNL     1       3.593   2.749  32.075  0.00  0.00    +0.141 C 
BRANCH  25  28
ATOM     26  C   UNL     1       1.558   3.893  31.265  0.00  0.00    +0.401 C 
ATOM     27  O   UNL     1       1.064   4.013  32.389  0.00  0.00    -0.226 OA
ATOM     28  N   UNL     1       2.733   3.310  31.025  0.00  0.00    -0.279 N 
ATOM     29  H   UNL     1       3.049   3.250  30.068  0.00  0.00    +0.152 HD
BRANCH  26  30
ATOM     30  O   UNL     1       0.842   4.399  30.135  0.00  0.00    -0.444 OA
BRANCH  30  31
ATOM     31  C   UNL     1       0.423   3.309  29.309  0.00  0.00    +0.292 C 
BRANCH  31  33
ATOM     32  N   UNL     1       2.301   3.683  27.743  0.00  0.00    -0.131 NA
ATOM     33  C   UNL     1       0.966   3.463  27.945  0.00  0.00    +0.120 A 
ATOM     34  C   UNL     1       0.325   3.428  26.727  0.00  0.00    +0.138 A 
ATOM     35  N   UNL     1       1.329   3.617  25.822  0.00  0.00    -0.238 N 
ATOM     36  N   UNL     1       2.510   3.792  26.438  0.00  0.00    -0.065 NA
BRANCH  35  37
ATOM     37  C   UNL     1       1.270   3.681  24.374  0.00  0.00    +0.214 C 
ATOM     38  C   UNL     1       0.336   2.611  23.817  0.00  0.00    +0.045 C 
BRANCH  37  39
ATOM     39  C   UNL     1       0.899   5.069  23.895  0.00  0.00    +0.329 C 
ATOM     40  O   UNL     1      -0.224   5.550  23.972  0.00  0.00    -0.249 OA
BRANCH  39  41
ATOM     41  O   UNL     1       1.920   5.759  23.329  0.00  0.00    -0.479 OA
ATOM     42  H   UNL     1       2.780   5.291  23.291  0.00  0.00    +0.295 HD
ENDBRANCH  39  41
ENDBRANCH  37  39
ENDBRANCH  35  37
ENDBRANCH  31  33
ENDBRANCH  30  31
ENDBRANCH  26  30
ENDBRANCH  25  28
ENDBRANCH   1  25
TORSDOF 16
