REMARK VINA RESULT:    -5.919      4.318      7.150
REMARK INTER + INTRA:         -12.811
REMARK INTER:                 -10.750
REMARK INTRA:                  -2.062
REMARK UNBOUND:                -2.568
REMARK  Name = lig_assembled_27.pdb
REMARK  16 active torsions:
REMARK  status: ('A' for Active; 'I' for Inactive)
REMARK    1  A    between atoms: _2  and  _9
REMARK    2  A    between atoms: _4  and  _18
REMARK    3  A    between atoms: _6  and  _7
REMARK    4  A    between atoms: _6  and  _18
REMARK    5  A    between atoms: _14  and  _34
REMARK    6  A    between atoms: _16  and  _22
REMARK    7  A    between atoms: _17  and  _21
REMARK    8  A    between atoms: _21  and  _22
REMARK    9  A    between atoms: _24  and  _25
REMARK   10  A    between atoms: _26  and  _27
REMARK   11  A    between atoms: _28  and  _30
REMARK   12  A    between atoms: _30  and  _31
REMARK   13  A    between atoms: _30  and  _32
REMARK   14  A    between atoms: _32  and  _33
REMARK   15  A    between atoms: _32  and  _34
REMARK   16  A    between atoms: _35  and  _37
REMARK                            x       y       z     vdW  Elec       q    Type
REMARK                         _______ _______ _______ _____ _____    ______ ____
ROOT
ATOM      1  C   UNL     1       3.595   2.389  33.195  0.00  0.00    +0.163 C 
ENDROOT
BRANCH   1   2
ATOM      2  O   UNL     1       3.130   1.145  33.744  0.00  0.00    -0.388 OA
ATOM      3  H   UNL     1       2.548   0.714  33.113  0.00  0.00    +0.210 HD
ENDBRANCH   1   2
BRANCH   1   4
ATOM      4  C   UNL     1       2.409   3.291  32.868  0.00  0.00    +0.141 C 
BRANCH   4   7
ATOM      5  C   UNL     1       1.474   4.080  30.721  0.00  0.00    +0.401 C 
ATOM      6  O   UNL     1       1.387   5.256  31.084  0.00  0.00    -0.226 OA
ATOM      7  N   UNL     1       1.935   3.095  31.493  0.00  0.00    -0.279 N 
ATOM      8  H   UNL     1       1.959   2.160  31.109  0.00  0.00    +0.152 HD
BRANCH   5   9
ATOM      9  O   UNL     1       1.058   3.728  29.399  0.00  0.00    -0.444 OA
BRANCH   9  10
ATOM     10  C   UNL     1       1.752   2.551  28.978  0.00  0.00    +0.292 C 
BRANCH  10  12
ATOM     11  N   UNL     1       1.732   1.252  26.871  0.00  0.00    -0.131 NA
ATOM     12  C   UNL     1       1.762   2.460  27.506  0.00  0.00    +0.121 A 
ATOM     13  C   UNL     1       1.796   3.461  26.563  0.00  0.00    +0.143 A 
ATOM     14  N   UNL     1       1.776   2.812  25.351  0.00  0.00    -0.220 N 
ATOM     15  N   UNL     1       1.743   1.473  25.563  0.00  0.00    -0.060 NA
BRANCH  14  16
ATOM     16  C   UNL     1       1.787   3.366  24.045  0.00  0.00    +0.068 A 
ATOM     17  C   UNL     1       1.692   4.756  23.878  0.00  0.00    +0.028 A 
ATOM     18  C   UNL     1       1.698   5.314  22.597  0.00  0.00    +0.003 A 
ATOM     19  C   UNL     1       1.798   4.490  21.477  0.00  0.00    +0.020 A 
ATOM     20  C   UNL     1       1.894   3.110  21.641  0.00  0.00    +0.043 A 
ATOM     21 CL   UNL     1       2.019   2.093  20.258  0.00  0.00    -0.083 Cl
ATOM     22  C   UNL     1       1.890   2.541  22.916  0.00  0.00    +0.047 A 
ENDBRANCH  14  16
ENDBRANCH  10  12
ENDBRANCH   9  10
ENDBRANCH   5   9
ENDBRANCH   4   7
ENDBRANCH   1   4
BRANCH   1  23
ATOM     23  C   UNL     1       4.426   2.151  31.922  0.00  0.00    +0.175 C 
BRANCH  23  24
ATOM     24  C   UNL     1       5.622   1.222  32.178  0.00  0.00    +0.176 C 
ATOM     25  O   UNL     1       5.105  -0.117  32.411  0.00  0.00    -0.332 OA
ATOM     26  C   UNL     1       6.115  -1.168  32.570  0.00  0.00    +0.277 C 
ATOM     27  C   UNL     1       7.115  -0.791  33.690  0.00  0.00    +0.110 C 
ATOM     28  C   UNL     1       7.668   0.637  33.503  0.00  0.00    +0.143 C 
ATOM     29  C   UNL     1       6.532   1.649  33.344  0.00  0.00    +0.133 C 
BRANCH  29  30
ATOM     30  N   UNL     1       7.072   2.992  33.080  0.00  0.00    -0.308 N 
ATOM     31  H   UNL     1       7.505   3.158  32.182  0.00  0.00    +0.149 HD
ATOM     32  C   UNL     1       7.027   4.006  33.949  0.00  0.00    +0.210 C 
ATOM     33  C   UNL     1       6.384   3.713  35.318  0.00  0.00    +0.109 C 
ATOM     34  O   UNL     1       7.474   5.125  33.695  0.00  0.00    -0.276 OA
ENDBRANCH  29  30
BRANCH  26  35
ATOM     35  C   UNL     1       6.881  -1.395  31.250  0.00  0.00    +0.414 C 
ATOM     36  O   UNL     1       8.107  -1.304  31.221  0.00  0.00    -0.240 OA
ATOM     37  O   UNL     1       6.272  -1.670  30.215  0.00  0.00    -0.240 OA
ENDBRANCH  26  35
BRANCH  28  38
ATOM     38  O   UNL     1       8.464   0.998  34.633  0.00  0.00    -0.390 OA
ATOM     39  H   UNL     1       9.311   0.547  34.585  0.00  0.00    +0.210 HD
ENDBRANCH  28  38
BRANCH  26  40
ATOM     40  O   UNL     1       5.435  -2.390  32.956  0.00  0.00    -0.343 OA
ATOM     41  C   UNL     1       4.767  -2.338  34.243  0.00  0.00    +0.198 C 
ENDBRANCH  26  40
ENDBRANCH  23  24
BRANCH  23  42
ATOM     42  O   UNL     1       4.881   3.409  31.385  0.00  0.00    -0.387 OA
ATOM     43  H   UNL     1       5.597   3.750  31.928  0.00  0.00    +0.210 HD
ENDBRANCH  23  42
ENDBRANCH   1  23
TORSDOF 14
