REMARK VINA RESULT:    -5.190     14.162     16.259
REMARK INTER + INTRA:         -13.274
REMARK INTER:                 -11.040
REMARK INTRA:                  -2.233
REMARK UNBOUND:                -3.380
REMARK  Name = lig_assembled_62.pdb
REMARK  20 active torsions:
REMARK  status: ('A' for Active; 'I' for Inactive)
REMARK    1  A    between atoms: _2  and  _10
REMARK    2  A    between atoms: _5  and  _19
REMARK    3  A    between atoms: _6  and  _10
REMARK    4  A    between atoms: _7  and  _8
REMARK    5  A    between atoms: _7  and  _19
REMARK    6  A    between atoms: _10  and  _11
REMARK    7  A    between atoms: _11  and  _14
REMARK    8  A    between atoms: _12  and  _14
REMARK    9  A    between atoms: _15  and  _35
REMARK   10  A    between atoms: _17  and  _23
REMARK   11  A    between atoms: _18  and  _22
REMARK   12  A    between atoms: _22  and  _23
REMARK   13  A    between atoms: _25  and  _26
REMARK   14  A    between atoms: _27  and  _28
REMARK   15  A    between atoms: _29  and  _31
REMARK   16  A    between atoms: _31  and  _32
REMARK   17  A    between atoms: _31  and  _33
REMARK   18  A    between atoms: _33  and  _34
REMARK   19  A    between atoms: _33  and  _35
REMARK   20  A    between atoms: _36  and  _38
REMARK                            x       y       z     vdW  Elec       q    Type
REMARK                         _______ _______ _______ _____ _____    ______ ____
ROOT
ATOM      1  C   UNL     1       5.014   2.925  32.391  0.00  0.00    +0.163 C 
ENDROOT
BRANCH   1   2
ATOM      2  O   UNL     1       4.094   3.778  33.091  0.00  0.00    -0.388 OA
ATOM      3  H   UNL     1       4.574   4.316  33.726  0.00  0.00    +0.210 HD
ENDBRANCH   1   2
BRANCH   1   4
ATOM      4  C   UNL     1       6.422   3.012  33.007  0.00  0.00    +0.175 C 
BRANCH   4   5
ATOM      5  C   UNL     1       6.423   3.776  34.339  0.00  0.00    +0.176 C 
ATOM      6  O   UNL     1       6.251   5.190  34.044  0.00  0.00    -0.332 OA
ATOM      7  C   UNL     1       6.123   6.070  35.209  0.00  0.00    +0.277 C 
ATOM      8  C   UNL     1       7.324   5.877  36.168  0.00  0.00    +0.110 C 
ATOM      9  C   UNL     1       7.565   4.387  36.485  0.00  0.00    +0.143 C 
ATOM     10  C   UNL     1       7.681   3.564  35.202  0.00  0.00    +0.133 C 
BRANCH  10  11
ATOM     11  N   UNL     1       7.824   2.134  35.518  0.00  0.00    -0.308 N 
ATOM     12  H   UNL     1       7.042   1.666  35.954  0.00  0.00    +0.149 HD
ATOM     13  C   UNL     1       8.921   1.414  35.267  0.00  0.00    +0.210 C 
ATOM     14  C   UNL     1      10.105   2.161  34.626  0.00  0.00    +0.109 C 
ATOM     15  O   UNL     1       9.007   0.214  35.529  0.00  0.00    -0.276 OA
ENDBRANCH  10  11
BRANCH   7  16
ATOM     16  C   UNL     1       4.808   5.786  35.966  0.00  0.00    +0.414 C 
ATOM     17  O   UNL     1       4.742   5.966  37.182  0.00  0.00    -0.240 OA
ATOM     18  O   UNL     1       3.816   5.378  35.362  0.00  0.00    -0.240 OA
ENDBRANCH   7  16
BRANCH   7  19
ATOM     19  O   UNL     1       6.129   7.442  34.738  0.00  0.00    -0.343 OA
ATOM     20  C   UNL     1       7.437   7.967  34.399  0.00  0.00    +0.198 C 
ENDBRANCH   7  19
BRANCH   9  21
ATOM     21  O   UNL     1       8.767   4.245  37.245  0.00  0.00    -0.390 OA
ATOM     22  H   UNL     1       9.430   3.798  36.715  0.00  0.00    +0.210 HD
ENDBRANCH   9  21
ENDBRANCH   4   5
BRANCH   4  23
ATOM     23  O   UNL     1       7.333   3.632  32.077  0.00  0.00    -0.387 OA
ATOM     24  H   UNL     1       7.094   4.554  31.961  0.00  0.00    +0.210 HD
ENDBRANCH   4  23
ENDBRANCH   1   4
BRANCH   1  25
ATOM     25  C   UNL     1       4.526   1.481  32.437  0.00  0.00    +0.141 C 
BRANCH  25  28
ATOM     26  C   UNL     1       2.633   1.416  30.851  0.00  0.00    +0.401 C 
ATOM     27  O   UNL     1       1.886   2.085  31.568  0.00  0.00    -0.226 OA
ATOM     28  N   UNL     1       3.881   1.081  31.180  0.00  0.00    -0.279 N 
ATOM     29  H   UNL     1       4.412   0.521  30.529  0.00  0.00    +0.152 HD
BRANCH  26  30
ATOM     30  O   UNL     1       2.151   0.956  29.585  0.00  0.00    -0.444 OA
BRANCH  30  31
ATOM     31  C   UNL     1       1.094   1.809  29.138  0.00  0.00    +0.292 C 
BRANCH  31  33
ATOM     32  N   UNL     1       2.307   3.671  28.046  0.00  0.00    -0.131 NA
ATOM     33  C   UNL     1       1.513   2.561  27.940  0.00  0.00    +0.120 A 
ATOM     34  C   UNL     1       1.231   2.336  26.611  0.00  0.00    +0.138 A 
ATOM     35  N   UNL     1       1.870   3.350  25.958  0.00  0.00    -0.237 N 
ATOM     36  N   UNL     1       2.522   4.146  26.827  0.00  0.00    -0.065 NA
BRANCH  35  37
ATOM     37  C   UNL     1       1.950   3.628  24.534  0.00  0.00    +0.219 C 
BRANCH  37  38
ATOM     38  C   UNL     1       1.238   4.932  24.210  0.00  0.00    +0.237 C 
ATOM     39  O   UNL     1       0.292   5.382  24.852  0.00  0.00    -0.274 OA
ATOM     40  N   UNL     1       1.751   5.653  23.165  0.00  0.00    -0.328 N 
ATOM     41  H   UNL     1       2.582   5.387  22.652  0.00  0.00    +0.145 HD
ATOM     42  H   UNL     1       1.302   6.530  22.933  0.00  0.00    +0.145 HD
ENDBRANCH  37  38
BRANCH  37  43
ATOM     43  C   UNL     1       1.369   2.472  23.724  0.00  0.00    +0.195 C 
BRANCH  43  44
ATOM     44  O   UNL     1       0.832   2.977  22.493  0.00  0.00    -0.380 OA
ATOM     45  C   UNL     1      -0.056   2.046  21.886  0.00  0.00    +0.194 C 
ENDBRANCH  43  44
ENDBRANCH  37  43
ENDBRANCH  35  37
ENDBRANCH  31  33
ENDBRANCH  30  31
ENDBRANCH  26  30
ENDBRANCH  25  28
ENDBRANCH   1  25
TORSDOF 17
