REMARK VINA RESULT:    -5.429      3.042      9.604
REMARK INTER + INTRA:         -12.677
REMARK INTER:                 -10.140
REMARK INTRA:                  -2.537
REMARK UNBOUND:                -2.805
REMARK  Name = lig_assembled_72.pdb
REMARK  20 active torsions:
REMARK  status: ('A' for Active; 'I' for Inactive)
REMARK    1  A    between atoms: _2  and  _9
REMARK    2  A    between atoms: _4  and  _17
REMARK    3  A    between atoms: _5  and  _9
REMARK    4  A    between atoms: _5  and  _12
REMARK    5  A    between atoms: _6  and  _7
REMARK    6  A    between atoms: _6  and  _17
REMARK    7  A    between atoms: _9  and  _10
REMARK    8  A    between atoms: _9  and  _11
REMARK    9  A    between atoms: _13  and  _33
REMARK   10  A    between atoms: _15  and  _21
REMARK   11  A    between atoms: _16  and  _20
REMARK   12  A    between atoms: _20  and  _21
REMARK   13  A    between atoms: _23  and  _24
REMARK   14  A    between atoms: _25  and  _26
REMARK   15  A    between atoms: _27  and  _29
REMARK   16  A    between atoms: _29  and  _30
REMARK   17  A    between atoms: _29  and  _31
REMARK   18  A    between atoms: _31  and  _32
REMARK   19  A    between atoms: _31  and  _33
REMARK   20  A    between atoms: _34  and  _36
REMARK                            x       y       z     vdW  Elec       q    Type
REMARK                         _______ _______ _______ _____ _____    ______ ____
ROOT
ATOM      1  C   UNL     1      17.955   1.536  23.308  0.00  0.00    +0.163 C 
ENDROOT
BRANCH   1   2
ATOM      2  O   UNL     1      17.316   1.157  22.079  0.00  0.00    -0.388 OA
ATOM      3  H   UNL     1      17.641   0.298  21.799  0.00  0.00    +0.210 HD
ENDBRANCH   1   2
BRANCH   1   4
ATOM      4  C   UNL     1      18.996   0.485  23.733  0.00  0.00    +0.175 C 
BRANCH   4   5
ATOM      5  C   UNL     1      18.342  -0.752  24.366  0.00  0.00    +0.176 C 
ATOM      6  O   UNL     1      17.727  -1.527  23.300  0.00  0.00    -0.332 OA
ATOM      7  C   UNL     1      17.141  -2.808  23.706  0.00  0.00    +0.277 C 
ATOM      8  C   UNL     1      16.124  -2.599  24.854  0.00  0.00    +0.110 C 
ATOM      9  C   UNL     1      16.723  -1.752  25.997  0.00  0.00    +0.143 C 
ATOM     10  C   UNL     1      17.307  -0.444  25.464  0.00  0.00    +0.133 C 
BRANCH  10  11
ATOM     11  N   UNL     1      17.951   0.313  26.548  0.00  0.00    -0.308 N 
ATOM     12  H   UNL     1      18.808  -0.055  26.936  0.00  0.00    +0.149 HD
ATOM     13  C   UNL     1      17.477   1.455  27.053  0.00  0.00    +0.210 C 
ATOM     14  C   UNL     1      16.156   1.977  26.458  0.00  0.00    +0.109 C 
ATOM     15  O   UNL     1      18.046   2.076  27.952  0.00  0.00    -0.276 OA
ENDBRANCH  10  11
BRANCH   7  16
ATOM     16  C   UNL     1      18.238  -3.792  24.162  0.00  0.00    +0.414 C 
ATOM     17  O   UNL     1      18.052  -4.520  25.136  0.00  0.00    -0.240 OA
ATOM     18  O   UNL     1      19.308  -3.859  23.555  0.00  0.00    -0.240 OA
ENDBRANCH   7  16
BRANCH   9  19
ATOM     19  O   UNL     1      15.709  -1.457  26.960  0.00  0.00    -0.390 OA
ATOM     20  H   UNL     1      14.904  -1.926  26.731  0.00  0.00    +0.210 HD
ENDBRANCH   9  19
BRANCH   7  21
ATOM     21  O   UNL     1      16.434  -3.359  22.564  0.00  0.00    -0.343 OA
ATOM     22  C   UNL     1      15.362  -4.279  22.893  0.00  0.00    +0.198 C 
ENDBRANCH   7  21
ENDBRANCH   4   5
BRANCH   4  23
ATOM     23  O   UNL     1      19.945   1.068  24.648  0.00  0.00    -0.387 OA
ATOM     24  H   UNL     1      19.478   1.587  25.307  0.00  0.00    +0.210 HD
ENDBRANCH   4  23
ENDBRANCH   1   4
BRANCH   1  25
ATOM     25  C   UNL     1      18.636   2.891  23.146  0.00  0.00    +0.141 C 
BRANCH  25  28
ATOM     26  C   UNL     1      19.160   4.254  25.139  0.00  0.00    +0.401 C 
ATOM     27  O   UNL     1      20.349   3.928  25.167  0.00  0.00    -0.226 OA
ATOM     28  N   UNL     1      18.286   3.813  24.234  0.00  0.00    -0.279 N 
ATOM     29  H   UNL     1      17.329   4.131  24.299  0.00  0.00    +0.152 HD
BRANCH  26  30
ATOM     30  O   UNL     1      18.665   5.158  26.131  0.00  0.00    -0.444 OA
BRANCH  30  31
ATOM     31  C   UNL     1      18.677   6.490  25.613  0.00  0.00    +0.292 C 
BRANCH  31  33
ATOM     32  N   UNL     1      19.001   7.061  27.997  0.00  0.00    -0.131 NA
ATOM     33  C   UNL     1      18.967   7.456  26.688  0.00  0.00    +0.120 A 
ATOM     34  C   UNL     1      19.237   8.806  26.619  0.00  0.00    +0.137 A 
ATOM     35  N   UNL     1      19.428   9.179  27.921  0.00  0.00    -0.244 N 
ATOM     36  N   UNL     1      19.282   8.119  28.742  0.00  0.00    -0.065 NA
BRANCH  35  37
ATOM     37  C   UNL     1      19.753  10.512  28.447  0.00  0.00    +0.083 C 
ATOM     38  C   UNL     1      19.429  11.572  27.377  0.00  0.00    +0.038 C 
ATOM     39  C   UNL     1      21.252  10.579  28.799  0.00  0.00    +0.038 C 
BRANCH  37  40
ATOM     40  C   UNL     1      18.918  10.848  29.714  0.00  0.00    +0.185 C 
BRANCH  40  41
ATOM     41  O   UNL     1      17.513  10.747  29.489  0.00  0.00    -0.393 OA
ATOM     42  H   UNL     1      17.159  10.207  30.229  0.00  0.00    +0.209 HD
ENDBRANCH  40  41
ENDBRANCH  37  40
ENDBRANCH  35  37
ENDBRANCH  31  33
ENDBRANCH  30  31
ENDBRANCH  26  30
ENDBRANCH  25  28
ENDBRANCH   1  25
TORSDOF 16
