REMARK VINA RESULT:    -6.248      4.706      5.363
REMARK INTER + INTRA:         -12.661
REMARK INTER:                 -10.852
REMARK INTRA:                  -1.808
REMARK UNBOUND:                -1.847
REMARK  Name = lig_assembled_2.pdb
REMARK  16 active torsions:
REMARK  status: ('A' for Active; 'I' for Inactive)
REMARK    1  A    between atoms: _2  and  _9
REMARK    2  A    between atoms: _4  and  _18
REMARK    3  A    between atoms: _6  and  _7
REMARK    4  A    between atoms: _6  and  _18
REMARK    5  A    between atoms: _14  and  _34
REMARK    6  A    between atoms: _16  and  _22
REMARK    7  A    between atoms: _17  and  _21
REMARK    8  A    between atoms: _21  and  _22
REMARK    9  A    between atoms: _24  and  _25
REMARK   10  A    between atoms: _26  and  _27
REMARK   11  A    between atoms: _28  and  _30
REMARK   12  A    between atoms: _30  and  _31
REMARK   13  A    between atoms: _30  and  _32
REMARK   14  A    between atoms: _32  and  _33
REMARK   15  A    between atoms: _32  and  _34
REMARK   16  A    between atoms: _35  and  _37
REMARK                            x       y       z     vdW  Elec       q    Type
REMARK                         _______ _______ _______ _____ _____    ______ ____
ROOT
ATOM      1  C   UNL     1       6.895   2.414  33.435  0.00  0.00    +0.163 C 
ENDROOT
BRANCH   1   2
ATOM      2  O   UNL     1       7.383   1.447  32.491  0.00  0.00    -0.388 OA
ATOM      3  H   UNL     1       8.123   1.819  32.004  0.00  0.00    +0.210 HD
ENDBRANCH   1   2
BRANCH   1   4
ATOM      4  C   UNL     1       5.579   3.006  32.943  0.00  0.00    +0.141 C 
BRANCH   4   7
ATOM      5  C   UNL     1       3.643   1.960  31.817  0.00  0.00    +0.401 C 
ATOM      6  O   UNL     1       3.595   2.799  30.915  0.00  0.00    -0.226 OA
ATOM      7  N   UNL     1       4.534   1.983  32.810  0.00  0.00    -0.279 N 
ATOM      8  H   UNL     1       4.487   1.256  33.510  0.00  0.00    +0.152 HD
BRANCH   5   9
ATOM      9  O   UNL     1       2.694   0.891  31.823  0.00  0.00    -0.444 OA
BRANCH   9  10
ATOM     10  C   UNL     1       3.338  -0.317  32.236  0.00  0.00    +0.292 C 
BRANCH  10  12
ATOM     11  N   UNL     1       5.721  -0.680  31.679  0.00  0.00    -0.131 NA
ATOM     12  C   UNL     1       4.413  -0.673  31.291  0.00  0.00    +0.121 A 
ATOM     13  C   UNL     1       4.335  -1.043  29.967  0.00  0.00    +0.143 A 
ATOM     14  N   UNL     1       5.634  -1.297  29.593  0.00  0.00    -0.220 N 
ATOM     15  N   UNL     1       6.457  -1.053  30.641  0.00  0.00    -0.060 NA
BRANCH  14  16
ATOM     16  C   UNL     1       6.122  -1.771  28.346  0.00  0.00    +0.067 A 
ATOM     17  C   UNL     1       7.407  -2.322  28.238  0.00  0.00    +0.029 A 
ATOM     18  C   UNL     1       7.883  -2.748  26.993  0.00  0.00    +0.022 A 
ATOM     19  C   UNL     1       7.081  -2.628  25.860  0.00  0.00    +0.041 A 
ATOM     20 CL   UNL     1       7.684  -3.134  24.331  0.00  0.00    -0.084 Cl
ATOM     21  C   UNL     1       5.798  -2.096  25.960  0.00  0.00    +0.022 A 
ATOM     22  C   UNL     1       5.315  -1.669  27.201  0.00  0.00    +0.029 A 
ENDBRANCH  14  16
ENDBRANCH  10  12
ENDBRANCH   9  10
ENDBRANCH   5   9
ENDBRANCH   4   7
ENDBRANCH   1   4
BRANCH   1  23
ATOM     23  C   UNL     1       7.919   3.542  33.646  0.00  0.00    +0.175 C 
BRANCH  23  24
ATOM     24  C   UNL     1       7.819   4.158  35.049  0.00  0.00    +0.176 C 
ATOM     25  O   UNL     1       7.722   5.601  34.898  0.00  0.00    -0.332 OA
ATOM     26  C   UNL     1       7.512   6.356  36.137  0.00  0.00    +0.277 C 
ATOM     27  C   UNL     1       8.609   6.011  37.174  0.00  0.00    +0.110 C 
ATOM     28  C   UNL     1       8.771   4.486  37.345  0.00  0.00    +0.143 C 
ATOM     29  C   UNL     1       8.981   3.801  35.995  0.00  0.00    +0.133 C 
BRANCH  29  30
ATOM     30  N   UNL     1       9.047   2.341  36.162  0.00  0.00    -0.308 N 
ATOM     31  H   UNL     1       8.259   1.879  36.593  0.00  0.00    +0.149 HD
ATOM     32  C   UNL     1      10.081   1.585  35.782  0.00  0.00    +0.210 C 
ATOM     33  C   UNL     1      11.279   2.322  35.152  0.00  0.00    +0.109 C 
ATOM     34  O   UNL     1      10.103   0.362  35.922  0.00  0.00    -0.276 OA
ENDBRANCH  29  30
BRANCH  26  35
ATOM     35  C   UNL     1       6.123   6.049  36.735  0.00  0.00    +0.414 C 
ATOM     36  O   UNL     1       5.924   6.184  37.942  0.00  0.00    -0.240 OA
ATOM     37  O   UNL     1       5.202   5.668  36.012  0.00  0.00    -0.240 OA
ENDBRANCH  26  35
BRANCH  28  38
ATOM     38  O   UNL     1       9.889   4.213  38.191  0.00  0.00    -0.390 OA
ATOM     39  H   UNL     1      10.696   4.230  37.671  0.00  0.00    +0.210 HD
ENDBRANCH  28  38
BRANCH  26  40
ATOM     40  O   UNL     1       7.607   7.769  35.823  0.00  0.00    -0.343 OA
ATOM     41  C   UNL     1       7.324   8.110  34.443  0.00  0.00    +0.198 C 
ENDBRANCH  26  40
ENDBRANCH  23  24
BRANCH  23  42
ATOM     42  O   UNL     1       7.748   4.562  32.642  0.00  0.00    -0.387 OA
ATOM     43  H   UNL     1       8.468   4.512  32.009  0.00  0.00    +0.210 HD
ENDBRANCH  23  42
ENDBRANCH   1  23
TORSDOF 14
