REMARK VINA RESULT:    -5.165      5.400      9.881
REMARK INTER + INTRA:         -13.307
REMARK INTER:                  -9.393
REMARK INTRA:                  -3.914
REMARK UNBOUND:                -3.914
REMARK  Name = lig_assembled_73.pdb
REMARK  18 active torsions:
REMARK  status: ('A' for Active; 'I' for Inactive)
REMARK    1  A    between atoms: _2  and  _10
REMARK    2  A    between atoms: _3  and  _14
REMARK    3  A    between atoms: _5  and  _22
REMARK    4  A    between atoms: _7  and  _8
REMARK    5  A    between atoms: _7  and  _22
REMARK    6  A    between atoms: _13  and  _16
REMARK    7  A    between atoms: _18  and  _38
REMARK    8  A    between atoms: _20  and  _26
REMARK    9  A    between atoms: _21  and  _25
REMARK   10  A    between atoms: _25  and  _26
REMARK   11  A    between atoms: _28  and  _29
REMARK   12  A    between atoms: _30  and  _31
REMARK   13  A    between atoms: _32  and  _34
REMARK   14  A    between atoms: _34  and  _35
REMARK   15  A    between atoms: _34  and  _36
REMARK   16  A    between atoms: _36  and  _37
REMARK   17  A    between atoms: _36  and  _38
REMARK   18  A    between atoms: _39  and  _41
REMARK                            x       y       z     vdW  Elec       q    Type
REMARK                         _______ _______ _______ _____ _____    ______ ____
ROOT
ATOM      1  C   UNL     1       1.604   3.193  29.043  0.00  0.00    +0.163 C 
ENDROOT
BRANCH   1   2
ATOM      2  O   UNL     1       2.536   4.007  28.313  0.00  0.00    -0.388 OA
ATOM      3  H   UNL     1       2.070   4.742  27.907  0.00  0.00    +0.210 HD
ENDBRANCH   1   2
BRANCH   1   4
ATOM      4  C   UNL     1       1.243   1.924  28.251  0.00  0.00    +0.175 C 
BRANCH   4   5
ATOM      5  C   UNL     1       1.195   2.182  26.738  0.00  0.00    +0.176 C 
ATOM      6  O   UNL     1       0.559   3.472  26.524  0.00  0.00    -0.332 OA
ATOM      7  C   UNL     1       0.520   3.937  25.134  0.00  0.00    +0.277 C 
ATOM      8  C   UNL     1      -0.141   2.871  24.226  0.00  0.00    +0.110 C 
ATOM      9  C   UNL     1       0.481   1.475  24.441  0.00  0.00    +0.143 C 
ATOM     10  C   UNL     1       0.474   1.093  25.922  0.00  0.00    +0.133 C 
BRANCH  10  11
ATOM     11  N   UNL     1       1.147  -0.199  26.124  0.00  0.00    -0.308 N 
ATOM     12  H   UNL     1       2.146  -0.239  25.976  0.00  0.00    +0.149 HD
ATOM     13  C   UNL     1       0.525  -1.323  26.490  0.00  0.00    +0.210 C 
ATOM     14  C   UNL     1      -1.001  -1.235  26.682  0.00  0.00    +0.109 C 
ATOM     15  O   UNL     1       1.117  -2.388  26.666  0.00  0.00    -0.276 OA
ENDBRANCH  10  11
BRANCH   7  16
ATOM     16  C   UNL     1       1.941   4.244  24.620  0.00  0.00    +0.414 C 
ATOM     17  O   UNL     1       2.121   4.555  23.443  0.00  0.00    -0.240 OA
ATOM     18  O   UNL     1       2.908   4.181  25.381  0.00  0.00    -0.240 OA
ENDBRANCH   7  16
BRANCH   9  19
ATOM     19  O   UNL     1      -0.254   0.501  23.700  0.00  0.00    -0.390 OA
ATOM     20  H   UNL     1      -0.574   0.893  22.884  0.00  0.00    +0.210 HD
ENDBRANCH   9  19
BRANCH   7  21
ATOM     21  O   UNL     1      -0.287   5.142  25.087  0.00  0.00    -0.343 OA
ATOM     22  C   UNL     1      -1.701   4.923  24.847  0.00  0.00    +0.198 C 
ENDBRANCH   7  21
ENDBRANCH   4   5
BRANCH   4  23
ATOM     23  O   UNL     1      -0.019   1.397  28.706  0.00  0.00    -0.387 OA
ATOM     24  H   UNL     1      -0.702   2.062  28.595  0.00  0.00    +0.210 HD
ENDBRANCH   4  23
ENDBRANCH   1   4
BRANCH   1  25
ATOM     25  C   UNL     1       2.200   2.799  30.391  0.00  0.00    +0.141 C 
BRANCH  25  28
ATOM     26  C   UNL     1       3.616   0.915  31.132  0.00  0.00    +0.401 C 
ATOM     27  O   UNL     1       4.360   1.621  31.818  0.00  0.00    -0.226 OA
ATOM     28  N   UNL     1       2.586   1.383  30.427  0.00  0.00    -0.279 N 
ATOM     29  H   UNL     1       2.040   0.727  29.887  0.00  0.00    +0.152 HD
BRANCH  26  30
ATOM     30  O   UNL     1       3.858  -0.493  31.070  0.00  0.00    -0.444 OA
BRANCH  30  31
ATOM     31  C   UNL     1       5.267  -0.737  31.074  0.00  0.00    +0.292 C 
BRANCH  31  33
ATOM     32  N   UNL     1       6.993  -1.634  29.544  0.00  0.00    -0.131 NA
ATOM     33  C   UNL     1       5.703  -1.248  29.760  0.00  0.00    +0.121 A 
ATOM     34  C   UNL     1       4.981  -1.425  28.603  0.00  0.00    +0.143 A 
ATOM     35  N   UNL     1       5.882  -1.937  27.698  0.00  0.00    -0.220 N 
ATOM     36  N   UNL     1       7.094  -2.052  28.290  0.00  0.00    -0.060 NA
BRANCH  35  37
ATOM     37  C   UNL     1       5.671  -2.306  26.344  0.00  0.00    +0.074 A 
ATOM     38  C   UNL     1       6.734  -2.836  25.591  0.00  0.00    +0.032 A 
ATOM     39  C   UNL     1       6.551  -3.199  24.250  0.00  0.00    +0.054 A 
ATOM     40  C   UNL     1       5.307  -3.033  23.646  0.00  0.00    +0.195 A 
ATOM     41  C   UNL     1       4.256  -2.508  24.398  0.00  0.00    +0.316 A 
ATOM     42  C   UNL     1       4.416  -2.146  25.743  0.00  0.00    +0.116 A 
BRANCH  41  43
ATOM     43  N   UNL     1       2.952  -2.314  23.796  0.00  0.00    +0.083 N 
ATOM     44  O   UNL     1       2.344  -3.321  23.408  0.00  0.00    +0.042 OA
ATOM     45  O   UNL     1       2.585  -1.142  23.632  0.00  0.00    -0.576 OA
ENDBRANCH  41  43
BRANCH  40  46
ATOM     46  O   UNL     1       5.124  -3.406  22.349  0.00  0.00    -0.501 OA
ATOM     47  H   UNL     1       4.374  -2.920  21.964  0.00  0.00    +0.292 HD
ENDBRANCH  40  46
ENDBRANCH  35  37
ENDBRANCH  31  33
ENDBRANCH  30  31
ENDBRANCH  26  30
ENDBRANCH  25  28
ENDBRANCH   1  25
TORSDOF 16
