REMARK VINA RESULT:    -5.980      3.152      5.387
REMARK INTER + INTRA:         -14.041
REMARK INTER:                 -11.920
REMARK INTRA:                  -2.120
REMARK UNBOUND:                -2.643
REMARK  Name = lig_assembled_21.pdb
REMARK  20 active torsions:
REMARK  status: ('A' for Active; 'I' for Inactive)
REMARK    1  A    between atoms: _2  and  _9
REMARK    2  A    between atoms: _4  and  _23
REMARK    3  A    between atoms: _6  and  _7
REMARK    4  A    between atoms: _6  and  _23
REMARK    5  A    between atoms: _9  and  _10
REMARK    6  A    between atoms: _11  and  _18
REMARK    7  A    between atoms: _12  and  _13
REMARK    8  A    between atoms: _12  and  _18
REMARK    9  A    between atoms: _19  and  _39
REMARK   10  A    between atoms: _21  and  _27
REMARK   11  A    between atoms: _22  and  _26
REMARK   12  A    between atoms: _26  and  _27
REMARK   13  A    between atoms: _29  and  _30
REMARK   14  A    between atoms: _31  and  _32
REMARK   15  A    between atoms: _33  and  _35
REMARK   16  A    between atoms: _35  and  _36
REMARK   17  A    between atoms: _35  and  _37
REMARK   18  A    between atoms: _37  and  _38
REMARK   19  A    between atoms: _37  and  _39
REMARK   20  A    between atoms: _40  and  _42
REMARK                            x       y       z     vdW  Elec       q    Type
REMARK                         _______ _______ _______ _____ _____    ______ ____
ROOT
ATOM      1  C   UNL     1       6.361   2.843  32.782  0.00  0.00    +0.163 C 
ENDROOT
BRANCH   1   2
ATOM      2  O   UNL     1       6.139   3.189  31.406  0.00  0.00    -0.388 OA
ATOM      3  H   UNL     1       6.456   2.480  30.841  0.00  0.00    +0.210 HD
ENDBRANCH   1   2
BRANCH   1   4
ATOM      4  C   UNL     1       7.559   3.616  33.358  0.00  0.00    +0.175 C 
BRANCH   4   5
ATOM      5  C   UNL     1       7.269   4.172  34.760  0.00  0.00    +0.176 C 
ATOM      6  O   UNL     1       7.109   5.613  34.646  0.00  0.00    -0.332 OA
ATOM      7  C   UNL     1       6.720   6.307  35.877  0.00  0.00    +0.277 C 
ATOM      8  C   UNL     1       7.713   5.979  37.020  0.00  0.00    +0.110 C 
ATOM      9  C   UNL     1       7.939   4.459  37.159  0.00  0.00    +0.143 C 
ATOM     10  C   UNL     1       8.337   3.839  35.819  0.00  0.00    +0.133 C 
BRANCH  10  11
ATOM     11  N   UNL     1       8.465   2.378  35.945  0.00  0.00    -0.308 N 
ATOM     12  H   UNL     1       7.670   1.864  36.298  0.00  0.00    +0.149 HD
ATOM     13  C   UNL     1       9.563   1.689  35.625  0.00  0.00    +0.210 C 
ATOM     14  C   UNL     1      10.765   2.504  35.115  0.00  0.00    +0.109 C 
ATOM     15  O   UNL     1       9.636   0.464  35.727  0.00  0.00    -0.276 OA
ENDBRANCH  10  11
BRANCH   7  16
ATOM     16  C   UNL     1       5.293   5.906  36.303  0.00  0.00    +0.414 C 
ATOM     17  O   UNL     1       4.410   5.765  35.458  0.00  0.00    -0.240 OA
ATOM     18  O   UNL     1       5.024   5.724  37.491  0.00  0.00    -0.240 OA
ENDBRANCH   7  16
BRANCH   9  19
ATOM     19  O   UNL     1       8.969   4.211  38.116  0.00  0.00    -0.390 OA
ATOM     20  H   UNL     1       8.769   4.679  38.931  0.00  0.00    +0.210 HD
ENDBRANCH   9  19
BRANCH   7  21
ATOM     21  O   UNL     1       6.771   7.734  35.623  0.00  0.00    -0.343 OA
ATOM     22  C   UNL     1       7.609   8.128  34.507  0.00  0.00    +0.198 C 
ENDBRANCH   7  21
ENDBRANCH   4   5
BRANCH   4  23
ATOM     23  O   UNL     1       7.934   4.686  32.468  0.00  0.00    -0.387 OA
ATOM     24  H   UNL     1       8.865   4.891  32.587  0.00  0.00    +0.210 HD
ENDBRANCH   4  23
ENDBRANCH   1   4
BRANCH   1  25
ATOM     25  C   UNL     1       5.114   3.150  33.605  0.00  0.00    +0.141 C 
BRANCH  25  28
ATOM     26  C   UNL     1       2.998   3.450  32.364  0.00  0.00    +0.401 C 
ATOM     27  O   UNL     1       2.645   2.276  32.495  0.00  0.00    -0.226 OA
ATOM     28  N   UNL     1       4.139   3.944  32.846  0.00  0.00    -0.279 N 
ATOM     29  H   UNL     1       4.345   4.919  32.680  0.00  0.00    +0.152 HD
BRANCH  26  30
ATOM     30  O   UNL     1       2.149   4.355  31.654  0.00  0.00    -0.444 OA
BRANCH  30  31
ATOM     31  C   UNL     1       0.781   3.997  31.869  0.00  0.00    +0.292 C 
BRANCH  31  33
ATOM     32  N   UNL     1      -0.863   4.603  30.127  0.00  0.00    -0.131 NA
ATOM     33  C   UNL     1       0.109   3.754  30.579  0.00  0.00    +0.120 A 
ATOM     34  C   UNL     1       0.312   2.763  29.644  0.00  0.00    +0.137 A 
ATOM     35  N   UNL     1      -0.504   3.117  28.603  0.00  0.00    -0.247 N 
ATOM     36  N   UNL     1      -1.233   4.203  28.919  0.00  0.00    -0.065 NA
BRANCH  35  37
ATOM     37  C   UNL     1      -0.537   2.486  27.288  0.00  0.00    +0.184 C 
BRANCH  37  38
ATOM     38  C   UNL     1       0.387   3.079  26.253  0.00  0.00    +0.016 A 
ATOM     39  C   UNL     1       1.572   2.433  25.855  0.00  0.00    +0.137 A 
ATOM     40  C   UNL     1       2.410   2.996  24.893  0.00  0.00    +0.047 A 
ATOM     41  C   UNL     1       2.065   4.211  24.301  0.00  0.00    +0.004 A 
ATOM     42  C   UNL     1       0.904   4.874  24.692  0.00  0.00    +0.001 A 
ATOM     43  C   UNL     1       0.069   4.312  25.658  0.00  0.00    +0.009 A 
BRANCH  39  44
ATOM     44  O   UNL     1       1.906   1.238  26.536  0.00  0.00    -0.426 OA
BRANCH  44  45
ATOM     45  C   UNL     1       1.922  -0.007  25.905  0.00  0.00    +0.309 C 
ATOM     46  O   UNL     1       0.999  -0.548  25.312  0.00  0.00    -0.251 OA
ATOM     47  C   UNL     1       3.306  -0.580  25.995  0.00  0.00    +0.136 C 
ENDBRANCH  44  45
ENDBRANCH  39  44
ENDBRANCH  37  38
ENDBRANCH  35  37
ENDBRANCH  31  33
ENDBRANCH  30  31
ENDBRANCH  26  30
ENDBRANCH  25  28
ENDBRANCH   1  25
TORSDOF 17
