REMARK VINA RESULT:    -6.552      5.637     10.148
REMARK INTER + INTRA:         -13.742
REMARK INTER:                 -11.713
REMARK INTRA:                  -2.029
REMARK UNBOUND:                -1.444
REMARK  Name = lig_assembled_16.pdb
REMARK  19 active torsions:
REMARK  status: ('A' for Active; 'I' for Inactive)
REMARK    1  A    between atoms: _2  and  _9
REMARK    2  A    between atoms: _4  and  _22
REMARK    3  A    between atoms: _6  and  _7
REMARK    4  A    between atoms: _6  and  _22
REMARK    5  A    between atoms: _9  and  _10
REMARK    6  A    between atoms: _13  and  _14
REMARK    7  A    between atoms: _14  and  _16
REMARK    8  A    between atoms: _18  and  _38
REMARK    9  A    between atoms: _20  and  _26
REMARK   10  A    between atoms: _21  and  _25
REMARK   11  A    between atoms: _25  and  _26
REMARK   12  A    between atoms: _28  and  _29
REMARK   13  A    between atoms: _30  and  _31
REMARK   14  A    between atoms: _32  and  _34
REMARK   15  A    between atoms: _34  and  _35
REMARK   16  A    between atoms: _34  and  _36
REMARK   17  A    between atoms: _36  and  _37
REMARK   18  A    between atoms: _36  and  _38
REMARK   19  A    between atoms: _39  and  _41
REMARK                            x       y       z     vdW  Elec       q    Type
REMARK                         _______ _______ _______ _____ _____    ______ ____
ROOT
ATOM      1  C   UNL     1       7.632   2.077  34.147  0.00  0.00    +0.163 C 
ENDROOT
BRANCH   1   2
ATOM      2  O   UNL     1       8.346   2.035  35.393  0.00  0.00    -0.388 OA
ATOM      3  H   UNL     1       9.259   2.298  35.249  0.00  0.00    +0.210 HD
ENDBRANCH   1   2
BRANCH   1   4
ATOM      4  C   UNL     1       7.813   3.439  33.455  0.00  0.00    +0.175 C 
BRANCH   4   5
ATOM      5  C   UNL     1       7.013   4.551  34.148  0.00  0.00    +0.176 C 
ATOM      6  O   UNL     1       7.656   4.838  35.420  0.00  0.00    -0.332 OA
ATOM      7  C   UNL     1       7.087   5.956  36.180  0.00  0.00    +0.277 C 
ATOM      8  C   UNL     1       5.568   5.745  36.397  0.00  0.00    +0.110 C 
ATOM      9  C   UNL     1       4.846   5.405  35.076  0.00  0.00    +0.143 C 
ATOM     10  C   UNL     1       5.522   4.231  34.367  0.00  0.00    +0.133 C 
BRANCH  10  11
ATOM     11  N   UNL     1       4.879   3.973  33.069  0.00  0.00    -0.308 N 
ATOM     12  H   UNL     1       4.987   4.667  32.343  0.00  0.00    +0.149 HD
ATOM     13  C   UNL     1       4.162   2.882  32.788  0.00  0.00    +0.210 C 
ATOM     14  C   UNL     1       3.994   1.856  33.924  0.00  0.00    +0.109 C 
ATOM     15  O   UNL     1       3.647   2.686  31.687  0.00  0.00    -0.276 OA
ENDBRANCH  10  11
BRANCH   7  16
ATOM     16  C   UNL     1       7.322   7.292  35.446  0.00  0.00    +0.414 C 
ATOM     17  O   UNL     1       6.385   7.874  34.901  0.00  0.00    -0.240 OA
ATOM     18  O   UNL     1       8.448   7.789  35.400  0.00  0.00    -0.240 OA
ENDBRANCH   7  16
BRANCH   7  19
ATOM     19  O   UNL     1       7.733   5.991  37.478  0.00  0.00    -0.343 OA
ATOM     20  C   UNL     1       8.829   5.055  37.642  0.00  0.00    +0.198 C 
ENDBRANCH   7  19
BRANCH   9  21
ATOM     21  O   UNL     1       3.483   5.072  35.344  0.00  0.00    -0.390 OA
ATOM     22  H   UNL     1       3.100   4.647  34.573  0.00  0.00    +0.210 HD
ENDBRANCH   9  21
ENDBRANCH   4   5
BRANCH   4  23
ATOM     23  O   UNL     1       7.434   3.345  32.067  0.00  0.00    -0.387 OA
ATOM     24  H   UNL     1       7.584   4.190  31.636  0.00  0.00    +0.210 HD
ENDBRANCH   4  23
ENDBRANCH   1   4
BRANCH   1  25
ATOM     25  C   UNL     1       8.125   0.967  33.225  0.00  0.00    +0.141 C 
BRANCH  25  28
ATOM     26  C   UNL     1       7.143  -0.999  32.094  0.00  0.00    +0.401 C 
ATOM     27  O   UNL     1       8.210  -1.613  32.031  0.00  0.00    -0.226 OA
ATOM     28  N   UNL     1       7.013   0.215  32.630  0.00  0.00    -0.279 N 
ATOM     29  H   UNL     1       6.097   0.642  32.627  0.00  0.00    +0.152 HD
BRANCH  26  30
ATOM     30  O   UNL     1       5.961  -1.604  31.563  0.00  0.00    -0.444 OA
BRANCH  30  31
ATOM     31  C   UNL     1       5.030  -0.585  31.190  0.00  0.00    +0.292 C 
BRANCH  31  33
ATOM     32  N   UNL     1       5.515  -1.254  28.855  0.00  0.00    -0.131 NA
ATOM     33  C   UNL     1       4.640  -0.741  29.778  0.00  0.00    +0.120 A 
ATOM     34  C   UNL     1       3.442  -0.465  29.157  0.00  0.00    +0.137 A 
ATOM     35  N   UNL     1       3.624  -0.920  27.885  0.00  0.00    -0.247 N 
ATOM     36  N   UNL     1       4.886  -1.345  27.691  0.00  0.00    -0.065 NA
BRANCH  35  37
ATOM     37  C   UNL     1       2.645  -1.004  26.821  0.00  0.00    +0.180 C 
BRANCH  37  38
ATOM     38  C   UNL     1       2.307   0.365  26.275  0.00  0.00    -0.026 A 
ATOM     39  C   UNL     1       1.621   1.301  27.063  0.00  0.00    +0.006 A 
ATOM     40  C   UNL     1       1.346   2.578  26.566  0.00  0.00    +0.015 A 
ATOM     41  C   UNL     1       1.739   2.933  25.274  0.00  0.00    +0.059 A 
ATOM     42  C   UNL     1       2.406   1.998  24.468  0.00  0.00    +0.015 A 
ATOM     43  C   UNL     1       2.674   0.719  24.966  0.00  0.00    +0.006 A 
BRANCH  41  44
ATOM     44  C   UNL     1       1.486   4.327  24.822  0.00  0.00    +0.337 C 
ATOM     45  O   UNL     1       0.648   5.044  25.345  0.00  0.00    -0.245 OA
BRANCH  44  46
ATOM     46  O   UNL     1       2.233   4.712  23.771  0.00  0.00    -0.477 OA
ATOM     47  H   UNL     1       1.809   5.351  23.171  0.00  0.00    +0.295 HD
ENDBRANCH  44  46
ENDBRANCH  41  44
ENDBRANCH  37  38
ENDBRANCH  35  37
ENDBRANCH  31  33
ENDBRANCH  30  31
ENDBRANCH  26  30
ENDBRANCH  25  28
ENDBRANCH   1  25
TORSDOF 17
