REMARK VINA RESULT:    -7.093      1.425      3.593
REMARK INTER + INTRA:         -14.567
REMARK INTER:                 -13.341
REMARK INTRA:                  -1.226
REMARK UNBOUND:                -1.875
REMARK  Name = lig_assembled_82.pdb
REMARK  19 active torsions:
REMARK  status: ('A' for Active; 'I' for Inactive)
REMARK    1  A    between atoms: _2  and  _9
REMARK    2  A    between atoms: _4  and  _22
REMARK    3  A    between atoms: _5  and  _16
REMARK    4  A    between atoms: _6  and  _7
REMARK    5  A    between atoms: _6  and  _22
REMARK    6  A    between atoms: _9  and  _10
REMARK    7  A    between atoms: _16  and  _17
REMARK    8  A    between atoms: _18  and  _38
REMARK    9  A    between atoms: _20  and  _26
REMARK   10  A    between atoms: _21  and  _25
REMARK   11  A    between atoms: _25  and  _26
REMARK   12  A    between atoms: _28  and  _29
REMARK   13  A    between atoms: _30  and  _31
REMARK   14  A    between atoms: _32  and  _34
REMARK   15  A    between atoms: _34  and  _35
REMARK   16  A    between atoms: _34  and  _36
REMARK   17  A    between atoms: _36  and  _37
REMARK   18  A    between atoms: _36  and  _38
REMARK   19  A    between atoms: _39  and  _41
REMARK                            x       y       z     vdW  Elec       q    Type
REMARK                         _______ _______ _______ _____ _____    ______ ____
ROOT
ATOM      1  C   UNL     1       3.778   3.192  32.498  0.00  0.00    +0.163 C 
ENDROOT
BRANCH   1   2
ATOM      2  O   UNL     1       2.840   2.849  33.531  0.00  0.00    -0.388 OA
ATOM      3  H   UNL     1       3.310   2.704  34.355  0.00  0.00    +0.210 HD
ENDBRANCH   1   2
BRANCH   1   4
ATOM      4  C   UNL     1       3.452   2.424  31.221  0.00  0.00    +0.141 C 
BRANCH   4   7
ATOM      5  C   UNL     1       2.186   2.790  29.130  0.00  0.00    +0.401 C 
ATOM      6  O   UNL     1       2.197   1.601  28.805  0.00  0.00    -0.226 OA
ATOM      7  N   UNL     1       2.754   3.264  30.240  0.00  0.00    -0.279 N 
ATOM      8  H   UNL     1       2.701   4.258  30.416  0.00  0.00    +0.152 HD
BRANCH   5   9
ATOM      9  O   UNL     1       1.535   3.737  28.279  0.00  0.00    -0.444 OA
BRANCH   9  10
ATOM     10  C   UNL     1       1.054   3.074  27.107  0.00  0.00    +0.292 C 
BRANCH  10  12
ATOM     11  N   UNL     1       0.037   4.859  25.728  0.00  0.00    -0.131 NA
ATOM     12  C   UNL     1       1.068   3.977  25.952  0.00  0.00    +0.120 A 
ATOM     13  C   UNL     1       1.999   4.126  24.940  0.00  0.00    +0.137 A 
ATOM     14  N   UNL     1       1.414   5.009  24.076  0.00  0.00    -0.247 N 
ATOM     15  N   UNL     1       0.280   5.511  24.600  0.00  0.00    -0.065 NA
BRANCH  14  16
ATOM     16  C   UNL     1       1.820   5.353  22.711  0.00  0.00    +0.176 C 
BRANCH  16  17
ATOM     17  C   UNL     1       1.527   4.251  21.723  0.00  0.00    -0.049 C 
ATOM     18  C   UNL     1       0.459   4.494  20.705  0.00  0.00    +0.023 C 
ATOM     19  C   UNL     1       0.655   3.894  19.240  0.00  0.00    -0.025 C 
ATOM     20  C   UNL     1       1.920   3.671  18.402  0.00  0.00    +0.012 C 
ATOM     21  C   UNL     1       0.266   2.532  19.984  0.00  0.00    -0.000 C 
ATOM     22  C   UNL     1       1.405   1.921  20.860  0.00  0.00    +0.031 C 
ATOM     23  C   UNL     1      -0.294   4.746  18.360  0.00  0.00    +0.012 C 
ATOM     24  C   UNL     1      -0.671   3.398  20.866  0.00  0.00    +0.012 C 
ATOM     25  C   UNL     1       2.001   2.991  21.761  0.00  0.00    -0.025 C 
ENDBRANCH  16  17
ENDBRANCH  14  16
ENDBRANCH  10  12
ENDBRANCH   9  10
ENDBRANCH   5   9
ENDBRANCH   4   7
ENDBRANCH   1   4
BRANCH   1  26
ATOM     26  C   UNL     1       5.218   2.874  32.935  0.00  0.00    +0.175 C 
BRANCH  26  27
ATOM     27  C   UNL     1       5.577   3.540  34.272  0.00  0.00    +0.176 C 
ATOM     28  O   UNL     1       5.542   4.981  34.077  0.00  0.00    -0.332 OA
ATOM     29  C   UNL     1       5.758   5.788  35.281  0.00  0.00    +0.277 C 
ATOM     30  C   UNL     1       7.083   5.385  35.973  0.00  0.00    +0.110 C 
ATOM     31  C   UNL     1       7.179   3.858  36.173  0.00  0.00    +0.143 C 
ATOM     32  C   UNL     1       6.936   3.116  34.859  0.00  0.00    +0.133 C 
BRANCH  32  33
ATOM     33  N   UNL     1       6.944   1.662  35.079  0.00  0.00    -0.308 N 
ATOM     34  H   UNL     1       6.289   1.282  35.748  0.00  0.00    +0.149 HD
ATOM     35  C   UNL     1       7.761   0.810  34.453  0.00  0.00    +0.210 C 
ATOM     36  C   UNL     1       8.766   1.423  33.459  0.00  0.00    +0.109 C 
ATOM     37  O   UNL     1       7.736  -0.406  34.646  0.00  0.00    -0.276 OA
ENDBRANCH  32  33
BRANCH  29  38
ATOM     38  C   UNL     1       4.586   5.618  36.271  0.00  0.00    +0.414 C 
ATOM     39  O   UNL     1       3.456   5.364  35.856  0.00  0.00    -0.240 OA
ATOM     40  O   UNL     1       4.771   5.734  37.483  0.00  0.00    -0.240 OA
ENDBRANCH  29  38
BRANCH  29  41
ATOM     41  O   UNL     1       5.857   7.178  34.877  0.00  0.00    -0.343 OA
ATOM     42  C   UNL     1       7.008   7.496  34.055  0.00  0.00    +0.198 C 
ENDBRANCH  29  41
BRANCH  31  43
ATOM     43  O   UNL     1       8.473   3.519  36.673  0.00  0.00    -0.390 OA
ATOM     44  H   UNL     1       8.384   3.083  37.524  0.00  0.00    +0.210 HD
ENDBRANCH  31  43
ENDBRANCH  26  27
BRANCH  26  45
ATOM     45  O   UNL     1       6.149   3.280  31.912  0.00  0.00    -0.387 OA
ATOM     46  H   UNL     1       7.035   2.998  32.154  0.00  0.00    +0.210 HD
ENDBRANCH  26  45
ENDBRANCH   1  26
TORSDOF 15
