REMARK VINA RESULT:    -6.331      1.803      3.586
REMARK INTER + INTRA:         -13.434
REMARK INTER:                 -11.415
REMARK INTRA:                  -2.020
REMARK UNBOUND:                -1.921
REMARK  Name = lig_assembled_23.pdb
REMARK  18 active torsions:
REMARK  status: ('A' for Active; 'I' for Inactive)
REMARK    1  A    between atoms: _2  and  _10
REMARK    2  A    between atoms: _3  and  _41
REMARK    3  A    between atoms: _5  and  _21
REMARK    4  A    between atoms: _7  and  _8
REMARK    5  A    between atoms: _7  and  _21
REMARK    6  A    between atoms: _12  and  _41
REMARK    7  A    between atoms: _17  and  _37
REMARK    8  A    between atoms: _19  and  _25
REMARK    9  A    between atoms: _20  and  _24
REMARK   10  A    between atoms: _24  and  _25
REMARK   11  A    between atoms: _27  and  _28
REMARK   12  A    between atoms: _29  and  _30
REMARK   13  A    between atoms: _31  and  _33
REMARK   14  A    between atoms: _33  and  _34
REMARK   15  A    between atoms: _33  and  _35
REMARK   16  A    between atoms: _35  and  _36
REMARK   17  A    between atoms: _35  and  _37
REMARK   18  A    between atoms: _38  and  _40
REMARK                            x       y       z     vdW  Elec       q    Type
REMARK                         _______ _______ _______ _____ _____    ______ ____
ROOT
ATOM      1  C   UNL     1      18.183   4.111  23.070  0.00  0.00    +0.141 C 
ENDROOT
BRANCH   1   4
ATOM      2  C   UNL     1      18.779   6.072  24.450  0.00  0.00    +0.401 C 
ATOM      3  O   UNL     1      19.256   6.708  23.507  0.00  0.00    -0.226 OA
ATOM      4  N   UNL     1      18.261   4.848  24.337  0.00  0.00    -0.279 N 
ATOM      5  H   UNL     1      17.903   4.403  25.170  0.00  0.00    +0.152 HD
BRANCH   2   6
ATOM      6  O   UNL     1      18.774   6.660  25.753  0.00  0.00    -0.444 OA
BRANCH   6   7
ATOM      7  C   UNL     1      19.769   7.686  25.818  0.00  0.00    +0.292 C 
BRANCH   7   9
ATOM      8  N   UNL     1      18.646   9.791  26.467  0.00  0.00    -0.131 NA
ATOM      9  C   UNL     1      19.391   8.702  26.817  0.00  0.00    +0.121 A 
ATOM     10  C   UNL     1      19.674   8.766  28.163  0.00  0.00    +0.143 A 
ATOM     11  N   UNL     1      19.066   9.919  28.600  0.00  0.00    -0.220 N 
ATOM     12  N   UNL     1      18.455  10.527  27.553  0.00  0.00    -0.060 NA
BRANCH  11  13
ATOM     13  C   UNL     1      19.036  10.472  29.906  0.00  0.00    +0.069 A 
ATOM     14  C   UNL     1      17.894  10.299  30.702  0.00  0.00    +0.056 A 
ATOM     15  C   UNL     1      17.847  10.873  31.977  0.00  0.00    +0.107 A 
ATOM     16  C   UNL     1      18.932  11.593  32.480  0.00  0.00    +0.028 A 
ATOM     17  C   UNL     1      20.073  11.751  31.694  0.00  0.00    +0.004 A 
ATOM     18  C   UNL     1      20.126  11.198  30.409  0.00  0.00    +0.028 A 
BRANCH  15  19
ATOM     19  S   UNL     1      16.378  10.695  32.943  0.00  0.00    +0.056 S 
ATOM     20  O   UNL     1      15.882   9.347  32.791  0.00  0.00    -0.153 OA
ATOM     21  O   UNL     1      16.578  11.312  34.234  0.00  0.00    -0.153 OA
BRANCH  19  22
ATOM     22  N   UNL     1      15.303  11.698  32.132  0.00  0.00    -0.204 NA
ATOM     23  H   UNL     1      15.324  12.633  32.539  0.00  0.00    +0.144 HD
ATOM     24  H   UNL     1      14.375  11.273  32.114  0.00  0.00    +0.144 HD
ENDBRANCH  19  22
ENDBRANCH  15  19
ENDBRANCH  11  13
ENDBRANCH   7   9
ENDBRANCH   6   7
ENDBRANCH   2   6
ENDBRANCH   1   4
BRANCH   1  25
ATOM     25  C   UNL     1      17.164   2.978  23.133  0.00  0.00    +0.163 C 
BRANCH  25  26
ATOM     26  O   UNL     1      16.562   2.786  21.842  0.00  0.00    -0.388 OA
ATOM     27  H   UNL     1      17.203   2.390  21.246  0.00  0.00    +0.210 HD
ENDBRANCH  25  26
BRANCH  25  28
ATOM     28  C   UNL     1      17.856   1.691  23.615  0.00  0.00    +0.175 C 
BRANCH  28  29
ATOM     29  C   UNL     1      17.821   1.555  25.144  0.00  0.00    +0.176 C 
ATOM     30  O   UNL     1      19.049   2.128  25.672  0.00  0.00    -0.332 OA
ATOM     31  C   UNL     1      19.146   2.182  27.134  0.00  0.00    +0.277 C 
ATOM     32  C   UNL     1      18.920   0.776  27.743  0.00  0.00    +0.110 C 
ATOM     33  C   UNL     1      17.642   0.113  27.188  0.00  0.00    +0.143 C 
ATOM     34  C   UNL     1      17.645   0.114  25.659  0.00  0.00    +0.133 C 
BRANCH  34  35
ATOM     35  N   UNL     1      16.384  -0.442  25.141  0.00  0.00    -0.308 N 
ATOM     36  H   UNL     1      15.533   0.073  25.322  0.00  0.00    +0.149 HD
ATOM     37  C   UNL     1      16.291  -1.580  24.449  0.00  0.00    +0.210 C 
ATOM     38  C   UNL     1      17.602  -2.353  24.214  0.00  0.00    +0.109 C 
ATOM     39  O   UNL     1      15.223  -2.014  24.016  0.00  0.00    -0.276 OA
ENDBRANCH  34  35
BRANCH  31  40
ATOM     40  C   UNL     1      18.112   3.168  27.715  0.00  0.00    +0.414 C 
ATOM     41  O   UNL     1      17.457   3.893  26.966  0.00  0.00    -0.240 OA
ATOM     42  O   UNL     1      17.931   3.239  28.931  0.00  0.00    -0.240 OA
ENDBRANCH  31  40
BRANCH  33  43
ATOM     43  O   UNL     1      17.555  -1.233  27.658  0.00  0.00    -0.390 OA
ATOM     44  H   UNL     1      17.655  -1.246  28.612  0.00  0.00    +0.210 HD
ENDBRANCH  33  43
BRANCH  31  45
ATOM     45  O   UNL     1      20.486   2.620  27.479  0.00  0.00    -0.343 OA
ATOM     46  C   UNL     1      20.922   3.834  26.817  0.00  0.00    +0.198 C 
ENDBRANCH  31  45
ENDBRANCH  28  29
BRANCH  28  47
ATOM     47  O   UNL     1      19.217   1.653  23.143  0.00  0.00    -0.387 OA
ATOM     48  H   UNL     1      19.814   1.589  23.893  0.00  0.00    +0.210 HD
ENDBRANCH  28  47
ENDBRANCH  25  28
ENDBRANCH   1  25
TORSDOF 16
