REMARK VINA RESULT:    -6.498      6.889     12.427
REMARK INTER + INTRA:         -13.961
REMARK INTER:                 -11.566
REMARK INTRA:                  -2.396
REMARK UNBOUND:                -1.955
REMARK  Name = lig_assembled_78.pdb
REMARK  18 active torsions:
REMARK  status: ('A' for Active; 'I' for Inactive)
REMARK    1  A    between atoms: _2  and  _9
REMARK    2  A    between atoms: _4  and  _21
REMARK    3  A    between atoms: _6  and  _7
REMARK    4  A    between atoms: _6  and  _21
REMARK    5  A    between atoms: _9  and  _41
REMARK    6  A    between atoms: _10  and  _41
REMARK    7  A    between atoms: _17  and  _37
REMARK    8  A    between atoms: _19  and  _25
REMARK    9  A    between atoms: _20  and  _24
REMARK   10  A    between atoms: _24  and  _25
REMARK   11  A    between atoms: _27  and  _28
REMARK   12  A    between atoms: _29  and  _30
REMARK   13  A    between atoms: _31  and  _33
REMARK   14  A    between atoms: _33  and  _34
REMARK   15  A    between atoms: _33  and  _35
REMARK   16  A    between atoms: _35  and  _36
REMARK   17  A    between atoms: _35  and  _37
REMARK   18  A    between atoms: _38  and  _40
REMARK                            x       y       z     vdW  Elec       q    Type
REMARK                         _______ _______ _______ _____ _____    ______ ____
ROOT
ATOM      1  C   UNL     1       8.532   2.544  36.238  0.00  0.00    +0.163 C 
ENDROOT
BRANCH   1   2
ATOM      2  O   UNL     1       8.421   3.132  37.544  0.00  0.00    -0.388 OA
ATOM      3  H   UNL     1       7.497   3.305  37.741  0.00  0.00    +0.210 HD
ENDBRANCH   1   2
BRANCH   1   4
ATOM      4  C   UNL     1       8.886   3.606  35.184  0.00  0.00    +0.175 C 
BRANCH   4   5
ATOM      5  C   UNL     1       7.727   4.584  34.937  0.00  0.00    +0.176 C 
ATOM      6  O   UNL     1       7.575   5.406  36.127  0.00  0.00    -0.332 OA
ATOM      7  C   UNL     1       6.577   6.476  36.035  0.00  0.00    +0.277 C 
ATOM      8  C   UNL     1       5.202   5.899  35.617  0.00  0.00    +0.110 C 
ATOM      9  C   UNL     1       5.318   4.992  34.374  0.00  0.00    +0.143 C 
ATOM     10  C   UNL     1       6.386   3.917  34.578  0.00  0.00    +0.133 C 
BRANCH  10  11
ATOM     11  N   UNL     1       6.549   3.115  33.355  0.00  0.00    -0.308 N 
ATOM     12  H   UNL     1       6.953   3.564  32.546  0.00  0.00    +0.149 HD
ATOM     13  C   UNL     1       6.197   1.831  33.245  0.00  0.00    +0.210 C 
ATOM     14  C   UNL     1       5.560   1.181  34.488  0.00  0.00    +0.109 C 
ATOM     15  O   UNL     1       6.359   1.179  32.213  0.00  0.00    -0.276 OA
ENDBRANCH  10  11
BRANCH   7  16
ATOM     16  C   UNL     1       7.017   7.548  35.016  0.00  0.00    +0.414 C 
ATOM     17  O   UNL     1       8.209   7.826  34.885  0.00  0.00    -0.240 OA
ATOM     18  O   UNL     1       6.182   8.134  34.327  0.00  0.00    -0.240 OA
ENDBRANCH   7  16
BRANCH   7  19
ATOM     19  O   UNL     1       6.441   7.077  37.348  0.00  0.00    -0.343 OA
ATOM     20  C   UNL     1       7.649   7.077  38.150  0.00  0.00    +0.198 C 
ENDBRANCH   7  19
BRANCH   9  21
ATOM     21  O   UNL     1       4.062   4.365  34.116  0.00  0.00    -0.390 OA
ATOM     22  H   UNL     1       3.781   4.565  33.221  0.00  0.00    +0.210 HD
ENDBRANCH   9  21
ENDBRANCH   4   5
BRANCH   4  23
ATOM     23  O   UNL     1       9.271   2.971  33.948  0.00  0.00    -0.387 OA
ATOM     24  H   UNL     1       8.672   3.242  33.248  0.00  0.00    +0.210 HD
ENDBRANCH   4  23
ENDBRANCH   1   4
BRANCH   1  25
ATOM     25  C   UNL     1       9.601   1.456  36.245  0.00  0.00    +0.141 C 
BRANCH  25  28
ATOM     26  C   UNL     1      11.730   2.480  36.969  0.00  0.00    +0.401 C 
ATOM     27  O   UNL     1      11.415   2.519  38.161  0.00  0.00    -0.226 OA
ATOM     28  N   UNL     1      10.941   2.006  36.004  0.00  0.00    -0.279 N 
ATOM     29  H   UNL     1      11.285   2.025  35.054  0.00  0.00    +0.152 HD
BRANCH  26  30
ATOM     30  O   UNL     1      13.013   2.973  36.574  0.00  0.00    -0.444 OA
BRANCH  30  31
ATOM     31  C   UNL     1      13.076   4.382  36.806  0.00  0.00    +0.292 C 
BRANCH  31  33
ATOM     32  N   UNL     1      14.175   4.550  34.591  0.00  0.00    -0.131 NA
ATOM     33  C   UNL     1      14.025   5.014  35.871  0.00  0.00    +0.120 A 
ATOM     34  C   UNL     1      14.867   6.088  36.060  0.00  0.00    +0.139 A 
ATOM     35  N   UNL     1      15.455   6.263  34.843  0.00  0.00    -0.230 N 
ATOM     36  N   UNL     1      15.072   5.309  33.976  0.00  0.00    -0.064 NA
BRANCH  35  37
ATOM     37  C   UNL     1      16.436   7.243  34.448  0.00  0.00    +0.316 C 
BRANCH  37  38
ATOM     38  S   UNL     1      15.838   8.401  33.243  0.00  0.00    +0.017 S 
ATOM     39  O   UNL     1      16.442   8.130  31.955  0.00  0.00    -0.168 OA
ATOM     40  O   UNL     1      14.395   8.489  33.387  0.00  0.00    -0.168 OA
BRANCH  38  41
ATOM     41  C   UNL     1      16.507   9.963  33.774  0.00  0.00    +0.090 A 
ATOM     42  C   UNL     1      16.597  10.238  35.143  0.00  0.00    +0.027 A 
ATOM     43  C   UNL     1      17.144  11.449  35.563  0.00  0.00    +0.002 A 
ATOM     44  C   UNL     1      17.614  12.369  34.623  0.00  0.00    +0.000 A 
ATOM     45  C   UNL     1      17.539  12.081  33.260  0.00  0.00    +0.002 A 
ATOM     46  C   UNL     1      16.985  10.875  32.828  0.00  0.00    +0.027 A 
ENDBRANCH  38  41
ENDBRANCH  37  38
ENDBRANCH  35  37
ENDBRANCH  31  33
ENDBRANCH  30  31
ENDBRANCH  26  30
ENDBRANCH  25  28
ENDBRANCH   1  25
TORSDOF 16
