REMARK VINA RESULT:    -5.100     20.954     24.162
REMARK INTER + INTRA:         -13.102
REMARK INTER:                 -10.118
REMARK INTRA:                  -2.984
REMARK UNBOUND:                -3.380
REMARK  Name = lig_assembled_62.pdb
REMARK  20 active torsions:
REMARK  status: ('A' for Active; 'I' for Inactive)
REMARK    1  A    between atoms: _2  and  _10
REMARK    2  A    between atoms: _5  and  _19
REMARK    3  A    between atoms: _6  and  _10
REMARK    4  A    between atoms: _7  and  _8
REMARK    5  A    between atoms: _7  and  _19
REMARK    6  A    between atoms: _10  and  _11
REMARK    7  A    between atoms: _11  and  _14
REMARK    8  A    between atoms: _12  and  _14
REMARK    9  A    between atoms: _15  and  _35
REMARK   10  A    between atoms: _17  and  _23
REMARK   11  A    between atoms: _18  and  _22
REMARK   12  A    between atoms: _22  and  _23
REMARK   13  A    between atoms: _25  and  _26
REMARK   14  A    between atoms: _27  and  _28
REMARK   15  A    between atoms: _29  and  _31
REMARK   16  A    between atoms: _31  and  _32
REMARK   17  A    between atoms: _31  and  _33
REMARK   18  A    between atoms: _33  and  _34
REMARK   19  A    between atoms: _33  and  _35
REMARK   20  A    between atoms: _36  and  _38
REMARK                            x       y       z     vdW  Elec       q    Type
REMARK                         _______ _______ _______ _____ _____    ______ ____
ROOT
ATOM      1  C   UNL     1      13.435  23.046  25.629  0.00  0.00    +0.163 C 
ENDROOT
BRANCH   1   2
ATOM      2  O   UNL     1      13.123  22.957  27.029  0.00  0.00    -0.388 OA
ATOM      3  H   UNL     1      13.487  22.144  27.387  0.00  0.00    +0.210 HD
ENDBRANCH   1   2
BRANCH   1   4
ATOM      4  C   UNL     1      12.995  24.403  25.053  0.00  0.00    +0.175 C 
BRANCH   4   5
ATOM      5  C   UNL     1      11.471  24.587  25.104  0.00  0.00    +0.176 C 
ATOM      6  O   UNL     1      11.001  24.804  23.746  0.00  0.00    -0.332 OA
ATOM      7  C   UNL     1       9.547  24.896  23.585  0.00  0.00    +0.277 C 
ATOM      8  C   UNL     1       8.967  25.986  24.521  0.00  0.00    +0.110 C 
ATOM      9  C   UNL     1       9.465  25.814  25.971  0.00  0.00    +0.143 C 
ATOM     10  C   UNL     1      10.991  25.727  26.021  0.00  0.00    +0.133 C 
BRANCH  10  11
ATOM     11  N   UNL     1      11.448  25.477  27.397  0.00  0.00    -0.308 N 
ATOM     12  H   UNL     1      11.128  24.635  27.855  0.00  0.00    +0.149 HD
ATOM     13  C   UNL     1      12.257  26.290  28.081  0.00  0.00    +0.210 C 
ATOM     14  C   UNL     1      12.705  27.579  27.365  0.00  0.00    +0.109 C 
ATOM     15  O   UNL     1      12.636  26.048  29.227  0.00  0.00    -0.276 OA
ENDBRANCH  10  11
BRANCH   7  16
ATOM     16  C   UNL     1       8.876  23.542  23.894  0.00  0.00    +0.414 C 
ATOM     17  O   UNL     1       9.241  22.875  24.861  0.00  0.00    -0.240 OA
ATOM     18  O   UNL     1       7.970  23.116  23.176  0.00  0.00    -0.240 OA
ENDBRANCH   7  16
BRANCH   7  19
ATOM     19  O   UNL     1       9.270  25.277  22.213  0.00  0.00    -0.343 OA
ATOM     20  C   UNL     1       9.181  26.706  21.980  0.00  0.00    +0.198 C 
ENDBRANCH   7  19
BRANCH   9  21
ATOM     21  O   UNL     1       9.031  26.921  26.763  0.00  0.00    -0.390 OA
ATOM     22  H   UNL     1       8.106  26.807  26.993  0.00  0.00    +0.210 HD
ENDBRANCH   9  21
ENDBRANCH   4   5
BRANCH   4  23
ATOM     23  O   UNL     1      13.467  24.543  23.698  0.00  0.00    -0.387 OA
ATOM     24  H   UNL     1      14.211  25.149  23.678  0.00  0.00    +0.210 HD
ENDBRANCH   4  23
ENDBRANCH   1   4
BRANCH   1  25
ATOM     25  C   UNL     1      14.934  22.863  25.415  0.00  0.00    +0.141 C 
BRANCH  25  28
ATOM     26  C   UNL     1      16.442  22.049  23.635  0.00  0.00    +0.401 C 
ATOM     27  O   UNL     1      17.448  22.573  24.118  0.00  0.00    -0.226 OA
ATOM     28  N   UNL     1      15.224  22.138  24.172  0.00  0.00    -0.279 N 
ATOM     29  H   UNL     1      14.459  21.682  23.696  0.00  0.00    +0.152 HD
BRANCH  26  30
ATOM     30  O   UNL     1      16.564  21.298  22.424  0.00  0.00    -0.444 OA
BRANCH  30  31
ATOM     31  C   UNL     1      16.931  22.174  21.355  0.00  0.00    +0.292 C 
BRANCH  31  33
ATOM     32  N   UNL     1      14.892  21.580  20.081  0.00  0.00    -0.131 NA
ATOM     33  C   UNL     1      15.744  22.539  20.560  0.00  0.00    +0.120 A 
ATOM     34  C   UNL     1      15.286  23.779  20.173  0.00  0.00    +0.138 A 
ATOM     35  N   UNL     1      14.161  23.509  19.449  0.00  0.00    -0.237 N 
ATOM     36  N   UNL     1      13.924  22.184  19.404  0.00  0.00    -0.065 NA
BRANCH  35  37
ATOM     37  C   UNL     1      13.236  24.423  18.800  0.00  0.00    +0.219 C 
BRANCH  37  38
ATOM     38  C   UNL     1      12.485  25.240  19.838  0.00  0.00    +0.237 C 
ATOM     39  O   UNL     1      12.345  26.460  19.790  0.00  0.00    -0.274 OA
ATOM     40  N   UNL     1      11.887  24.529  20.844  0.00  0.00    -0.328 N 
ATOM     41  H   UNL     1      11.884  23.519  20.895  0.00  0.00    +0.145 HD
ATOM     42  H   UNL     1      11.372  25.048  21.545  0.00  0.00    +0.145 HD
ENDBRANCH  37  38
BRANCH  37  43
ATOM     43  C   UNL     1      12.268  23.661  17.898  0.00  0.00    +0.195 C 
BRANCH  43  44
ATOM     44  O   UNL     1      12.724  23.736  16.540  0.00  0.00    -0.380 OA
ATOM     45  C   UNL     1      12.778  22.452  15.931  0.00  0.00    +0.194 C 
ENDBRANCH  43  44
ENDBRANCH  37  43
ENDBRANCH  35  37
ENDBRANCH  31  33
ENDBRANCH  30  31
ENDBRANCH  26  30
ENDBRANCH  25  28
ENDBRANCH   1  25
TORSDOF 17
