REMARK VINA RESULT:    -5.825      4.530      7.455
REMARK INTER + INTRA:         -13.947
REMARK INTER:                 -10.933
REMARK INTRA:                  -3.014
REMARK UNBOUND:                -3.014
REMARK  Name = lig_assembled_75.pdb
REMARK  19 active torsions:
REMARK  status: ('A' for Active; 'I' for Inactive)
REMARK    1  A    between atoms: _2  and  _9
REMARK    2  A    between atoms: _4  and  _23
REMARK    3  A    between atoms: _6  and  _7
REMARK    4  A    between atoms: _6  and  _23
REMARK    5  A    between atoms: _11  and  _12
REMARK    6  A    between atoms: _13  and  _14
REMARK    7  A    between atoms: _14  and  _17
REMARK    8  A    between atoms: _19  and  _39
REMARK    9  A    between atoms: _21  and  _27
REMARK   10  A    between atoms: _22  and  _26
REMARK   11  A    between atoms: _26  and  _27
REMARK   12  A    between atoms: _29  and  _30
REMARK   13  A    between atoms: _31  and  _32
REMARK   14  A    between atoms: _33  and  _35
REMARK   15  A    between atoms: _35  and  _36
REMARK   16  A    between atoms: _35  and  _37
REMARK   17  A    between atoms: _37  and  _38
REMARK   18  A    between atoms: _37  and  _39
REMARK   19  A    between atoms: _40  and  _42
REMARK                            x       y       z     vdW  Elec       q    Type
REMARK                         _______ _______ _______ _____ _____    ______ ____
ROOT
ATOM      1  C   UNL     1       1.677   2.559  32.015  0.00  0.00    +0.141 C 
ENDROOT
BRANCH   1   4
ATOM      2  C   UNL     1       2.652   1.029  30.337  0.00  0.00    +0.401 C 
ATOM      3  O   UNL     1       3.205   0.312  31.174  0.00  0.00    -0.226 OA
ATOM      4  N   UNL     1       1.923   2.103  30.641  0.00  0.00    -0.279 N 
ATOM      5  H   UNL     1       1.516   2.634  29.884  0.00  0.00    +0.152 HD
BRANCH   2   6
ATOM      6  O   UNL     1       2.790   0.711  28.950  0.00  0.00    -0.444 OA
BRANCH   6   7
ATOM      7  C   UNL     1       1.548   0.942  28.281  0.00  0.00    +0.292 C 
BRANCH   7   9
ATOM      8  N   UNL     1       2.012   3.282  27.627  0.00  0.00    -0.131 NA
ATOM      9  C   UNL     1       1.701   2.003  27.267  0.00  0.00    +0.121 A 
ATOM     10  C   UNL     1       1.573   1.938  25.899  0.00  0.00    +0.143 A 
ATOM     11  N   UNL     1       1.817   3.217  25.457  0.00  0.00    -0.220 N 
ATOM     12  N   UNL     1       2.080   4.015  26.524  0.00  0.00    -0.060 NA
BRANCH  11  13
ATOM     13  C   UNL     1       1.790   3.723  24.132  0.00  0.00    +0.068 A 
ATOM     14  C   UNL     1       1.839   2.825  23.052  0.00  0.00    +0.035 A 
ATOM     15  C   UNL     1       1.881   3.293  21.730  0.00  0.00    -0.023 A 
ATOM     16  C   UNL     1       1.808   4.673  21.503  0.00  0.00    +0.008 A 
ATOM     17  C   UNL     1       1.737   5.569  22.573  0.00  0.00    +0.003 A 
ATOM     18  C   UNL     1       1.736   5.099  23.885  0.00  0.00    +0.028 A 
BRANCH  15  19
ATOM     19  C   UNL     1       1.979   2.389  20.574  0.00  0.00    +0.015 C 
ATOM     20  C   UNL     1       2.231   2.803  19.322  0.00  0.00    +0.092 C 
BRANCH  20  21
ATOM     21  C   UNL     1       2.256   1.824  18.219  0.00  0.00    +0.330 C 
ATOM     22  O   UNL     1       1.395   0.987  18.014  0.00  0.00    -0.246 OA
BRANCH  21  23
ATOM     23  O   UNL     1       3.350   1.967  17.443  0.00  0.00    -0.478 OA
ATOM     24  H   UNL     1       4.189   1.671  17.839  0.00  0.00    +0.295 HD
ENDBRANCH  21  23
ENDBRANCH  20  21
ENDBRANCH  15  19
ENDBRANCH  11  13
ENDBRANCH   7   9
ENDBRANCH   6   7
ENDBRANCH   2   6
ENDBRANCH   1   4
BRANCH   1  25
ATOM     25  C   UNL     1       0.190   2.752  32.293  0.00  0.00    +0.163 C 
BRANCH  25  26
ATOM     26  O   UNL     1       0.000   3.815  33.241  0.00  0.00    -0.388 OA
ATOM     27  H   UNL     1      -0.602   3.526  33.930  0.00  0.00    +0.210 HD
ENDBRANCH  25  26
BRANCH  25  28
ATOM     28  C   UNL     1      -0.544   3.052  30.975  0.00  0.00    +0.175 C 
BRANCH  28  29
ATOM     29  C   UNL     1      -1.790   3.924  31.193  0.00  0.00    +0.176 C 
ATOM     30  O   UNL     1      -2.556   3.343  32.284  0.00  0.00    -0.332 OA
ATOM     31  C   UNL     1      -3.735   4.105  32.706  0.00  0.00    +0.277 C 
ATOM     32  C   UNL     1      -4.666   4.376  31.499  0.00  0.00    +0.110 C 
ATOM     33  C   UNL     1      -3.890   4.964  30.302  0.00  0.00    +0.143 C 
ATOM     34  C   UNL     1      -2.683   4.094  29.950  0.00  0.00    +0.133 C 
BRANCH  34  35
ATOM     35  N   UNL     1      -1.902   4.711  28.865  0.00  0.00    -0.308 N 
ATOM     36  H   UNL     1      -1.433   5.584  29.059  0.00  0.00    +0.149 HD
ATOM     37  C   UNL     1      -1.774   4.191  27.641  0.00  0.00    +0.210 C 
ATOM     38  C   UNL     1      -2.523   2.873  27.369  0.00  0.00    +0.109 C 
ATOM     39  O   UNL     1      -1.102   4.723  26.757  0.00  0.00    -0.276 OA
ENDBRANCH  34  35
BRANCH  31  40
ATOM     40  C   UNL     1      -3.319   5.446  33.347  0.00  0.00    +0.414 C 
ATOM     41  O   UNL     1      -2.348   5.498  34.101  0.00  0.00    -0.240 OA
ATOM     42  O   UNL     1      -3.954   6.474  33.110  0.00  0.00    -0.240 OA
ENDBRANCH  31  40
BRANCH  31  43
ATOM     43  O   UNL     1      -4.463   3.306  33.675  0.00  0.00    -0.343 OA
ATOM     44  C   UNL     1      -5.890   3.556  33.726  0.00  0.00    +0.198 C 
ENDBRANCH  31  43
BRANCH  33  45
ATOM     45  O   UNL     1      -4.752   5.056  29.167  0.00  0.00    -0.390 OA
ATOM     46  H   UNL     1      -4.396   5.695  28.545  0.00  0.00    +0.210 HD
ENDBRANCH  33  45
ENDBRANCH  28  29
BRANCH  28  47
ATOM     47  O   UNL     1      -0.908   1.822  30.317  0.00  0.00    -0.387 OA
ATOM     48  H   UNL     1      -0.176   1.203  30.369  0.00  0.00    +0.210 HD
ENDBRANCH  28  47
ENDBRANCH  25  28
ENDBRANCH   1  25
TORSDOF 17
