REMARK VINA RESULT:    -6.685     11.022     13.763
REMARK INTER + INTRA:         -15.377
REMARK INTER:                 -13.295
REMARK INTRA:                  -2.083
REMARK UNBOUND:                -2.243
REMARK  Name = lig_assembled_31.pdb
REMARK  20 active torsions:
REMARK  status: ('A' for Active; 'I' for Inactive)
REMARK    1  A    between atoms: _2  and  _11
REMARK    2  A    between atoms: _3  and  _12
REMARK    3  A    between atoms: _4  and  _14
REMARK    4  A    between atoms: _6  and  _24
REMARK    5  A    between atoms: _8  and  _9
REMARK    6  A    between atoms: _8  and  _24
REMARK    7  A    between atoms: _11  and  _12
REMARK    8  A    between atoms: _14  and  _15
REMARK    9  A    between atoms: _20  and  _40
REMARK   10  A    between atoms: _22  and  _28
REMARK   11  A    between atoms: _23  and  _27
REMARK   12  A    between atoms: _27  and  _28
REMARK   13  A    between atoms: _30  and  _31
REMARK   14  A    between atoms: _32  and  _33
REMARK   15  A    between atoms: _34  and  _36
REMARK   16  A    between atoms: _36  and  _37
REMARK   17  A    between atoms: _36  and  _38
REMARK   18  A    between atoms: _38  and  _39
REMARK   19  A    between atoms: _38  and  _40
REMARK   20  A    between atoms: _41  and  _43
REMARK                            x       y       z     vdW  Elec       q    Type
REMARK                         _______ _______ _______ _____ _____    ______ ____
ROOT
ATOM      1  C   UNL     1      10.519   1.406  34.979  0.00  0.00    +0.401 C 
ATOM      2  O   UNL     1      10.133   0.780  35.969  0.00  0.00    -0.226 OA
ATOM      3  N   UNL     1       9.729   1.755  33.963  0.00  0.00    -0.279 N 
ATOM      4  H   UNL     1      10.136   2.277  33.199  0.00  0.00    +0.152 HD
ENDROOT
BRANCH   1   5
ATOM      5  O   UNL     1      11.892   1.797  34.896  0.00  0.00    -0.444 OA
BRANCH   5   6
ATOM      6  C   UNL     1      12.174   2.769  35.905  0.00  0.00    +0.292 C 
BRANCH   6   8
ATOM      7  N   UNL     1      13.646   3.687  34.139  0.00  0.00    -0.131 NA
ATOM      8  C   UNL     1      13.203   3.717  35.434  0.00  0.00    +0.120 A 
ATOM      9  C   UNL     1      13.863   4.719  36.111  0.00  0.00    +0.137 A 
ATOM     10  N   UNL     1      14.698   5.251  35.175  0.00  0.00    -0.250 N 
ATOM     11  N   UNL     1      14.563   4.635  33.989  0.00  0.00    -0.065 NA
BRANCH  10  12
ATOM     12  C   UNL     1      15.647   6.334  35.334  0.00  0.00    +0.164 C 
BRANCH  12  13
ATOM     13  C   UNL     1      15.332   7.490  34.398  0.00  0.00    +0.129 C 
BRANCH  13  14
ATOM     14  N   UNL     1      15.849   7.336  33.045  0.00  0.00    -0.298 N 
ATOM     15  H   UNL     1      15.541   6.574  32.458  0.00  0.00    +0.150 HD
ATOM     16  C   UNL     1      17.035   7.945  32.729  0.00  0.00    +0.300 C 
ATOM     17  O   UNL     1      17.626   8.692  33.505  0.00  0.00    -0.253 OA
ATOM     18  N   UNL     1      17.489   7.675  31.475  0.00  0.00    -0.292 N 
ATOM     19  H   UNL     1      17.025   7.029  30.853  0.00  0.00    +0.151 HD
BRANCH  18  20
ATOM     20  C   UNL     1      18.730   8.276  31.045  0.00  0.00    +0.180 C 
BRANCH  20  21
ATOM     21  C   UNL     1      18.573   9.183  29.881  0.00  0.00    +0.122 A 
ATOM     22  O   UNL     1      18.976   8.756  28.646  0.00  0.00    -0.466 OA
ATOM     23  C   UNL     1      18.718   9.771  27.776  0.00  0.00    +0.195 A 
ATOM     24  C   UNL     1      18.159  10.844  28.431  0.00  0.00    +0.041 A 
ATOM     25  C   UNL     1      18.065  10.466  29.790  0.00  0.00    +0.046 A 
ENDBRANCH  20  21
ENDBRANCH  18  20
ENDBRANCH  13  14
ENDBRANCH  12  13
ENDBRANCH  10  12
ENDBRANCH   6   8
ENDBRANCH   5   6
ENDBRANCH   1   5
BRANCH   3  26
ATOM     26  C   UNL     1       8.300   1.423  33.891  0.00  0.00    +0.141 C 
BRANCH  26  27
ATOM     27  C   UNL     1       7.429   2.533  34.469  0.00  0.00    +0.163 C 
BRANCH  27  28
ATOM     28  O   UNL     1       7.530   2.541  35.903  0.00  0.00    -0.388 OA
ATOM     29  H   UNL     1       7.517   1.638  36.230  0.00  0.00    +0.210 HD
ENDBRANCH  27  28
BRANCH  27  30
ATOM     30  C   UNL     1       7.862   3.887  33.880  0.00  0.00    +0.175 C 
BRANCH  30  31
ATOM     31  C   UNL     1       7.222   5.071  34.619  0.00  0.00    +0.176 C 
ATOM     32  O   UNL     1       7.926   5.244  35.880  0.00  0.00    -0.332 OA
ATOM     33  C   UNL     1       7.518   6.403  36.680  0.00  0.00    +0.277 C 
ATOM     34  C   UNL     1       5.990   6.375  36.933  0.00  0.00    +0.110 C 
ATOM     35  C   UNL     1       5.200   6.161  35.624  0.00  0.00    +0.143 C 
ATOM     36  C   UNL     1       5.709   4.931  34.871  0.00  0.00    +0.133 C 
BRANCH  36  37
ATOM     37  N   UNL     1       5.008   4.788  33.586  0.00  0.00    -0.308 N 
ATOM     38  H   UNL     1       5.208   5.463  32.861  0.00  0.00    +0.149 HD
ATOM     39  C   UNL     1       4.125   3.824  33.313  0.00  0.00    +0.210 C 
ATOM     40  C   UNL     1       3.822   2.826  34.447  0.00  0.00    +0.109 C 
ATOM     41  O   UNL     1       3.564   3.720  32.222  0.00  0.00    -0.276 OA
ENDBRANCH  36  37
BRANCH  33  42
ATOM     42  C   UNL     1       7.899   7.719  35.971  0.00  0.00    +0.414 C 
ATOM     43  O   UNL     1       7.916   7.778  34.742  0.00  0.00    -0.240 OA
ATOM     44  O   UNL     1       8.189   8.720  36.626  0.00  0.00    -0.240 OA
ENDBRANCH  33  42
BRANCH  35  45
ATOM     45  O   UNL     1       3.814   5.991  35.921  0.00  0.00    -0.390 OA
ATOM     46  H   UNL     1       3.603   5.054  35.944  0.00  0.00    +0.210 HD
ENDBRANCH  35  45
BRANCH  33  47
ATOM     47  O   UNL     1       8.195   6.325  37.961  0.00  0.00    -0.343 OA
ATOM     48  C   UNL     1       7.373   5.856  39.060  0.00  0.00    +0.198 C 
ENDBRANCH  33  47
ENDBRANCH  30  31
BRANCH  30  49
ATOM     49  O   UNL     1       7.538   3.944  32.477  0.00  0.00    -0.387 OA
ATOM     50  H   UNL     1       8.292   4.282  31.987  0.00  0.00    +0.210 HD
ENDBRANCH  30  49
ENDBRANCH  27  30
ENDBRANCH  26  27
ENDBRANCH   3  26
TORSDOF 18
