REMARK VINA RESULT:    -5.956     23.025     24.814
REMARK INTER + INTRA:         -12.876
REMARK INTER:                 -11.194
REMARK INTRA:                  -1.681
REMARK UNBOUND:                -2.568
REMARK  Name = lig_assembled_27.pdb
REMARK  16 active torsions:
REMARK  status: ('A' for Active; 'I' for Inactive)
REMARK    1  A    between atoms: _2  and  _9
REMARK    2  A    between atoms: _4  and  _18
REMARK    3  A    between atoms: _6  and  _7
REMARK    4  A    between atoms: _6  and  _18
REMARK    5  A    between atoms: _14  and  _34
REMARK    6  A    between atoms: _16  and  _22
REMARK    7  A    between atoms: _17  and  _21
REMARK    8  A    between atoms: _21  and  _22
REMARK    9  A    between atoms: _24  and  _25
REMARK   10  A    between atoms: _26  and  _27
REMARK   11  A    between atoms: _28  and  _30
REMARK   12  A    between atoms: _30  and  _31
REMARK   13  A    between atoms: _30  and  _32
REMARK   14  A    between atoms: _32  and  _33
REMARK   15  A    between atoms: _32  and  _34
REMARK   16  A    between atoms: _35  and  _37
REMARK                            x       y       z     vdW  Elec       q    Type
REMARK                         _______ _______ _______ _____ _____    ______ ____
ROOT
ATOM      1  C   UNL     1      11.741  23.247  25.825  0.00  0.00    +0.163 C 
ENDROOT
BRANCH   1   2
ATOM      2  O   UNL     1      10.813  22.151  25.772  0.00  0.00    -0.388 OA
ATOM      3  H   UNL     1      10.675  21.891  24.857  0.00  0.00    +0.210 HD
ENDBRANCH   1   2
BRANCH   1   4
ATOM      4  C   UNL     1      12.882  22.919  26.783  0.00  0.00    +0.141 C 
BRANCH   4   7
ATOM      5  C   UNL     1      15.017  22.790  25.547  0.00  0.00    +0.401 C 
ATOM      6  O   UNL     1      15.182  24.012  25.516  0.00  0.00    -0.226 OA
ATOM      7  N   UNL     1      13.968  22.193  26.113  0.00  0.00    -0.279 N 
ATOM      8  H   UNL     1      13.917  21.185  26.078  0.00  0.00    +0.152 HD
BRANCH   5   9
ATOM      9  O   UNL     1      15.997  21.943  24.942  0.00  0.00    -0.444 OA
BRANCH   9  10
ATOM     10  C   UNL     1      16.782  22.703  24.018  0.00  0.00    +0.292 C 
BRANCH  10  12
ATOM     11  N   UNL     1      15.971  21.242  22.193  0.00  0.00    -0.131 NA
ATOM     12  C   UNL     1      16.304  22.488  22.640  0.00  0.00    +0.121 A 
ATOM     13  C   UNL     1      16.110  23.395  21.625  0.00  0.00    +0.143 A 
ATOM     14  N   UNL     1      15.643  22.652  20.565  0.00  0.00    -0.220 N 
ATOM     15  N   UNL     1      15.572  21.349  20.932  0.00  0.00    -0.060 NA
BRANCH  14  16
ATOM     16  C   UNL     1      15.273  23.089  19.268  0.00  0.00    +0.068 A 
ATOM     17  C   UNL     1      16.162  23.875  18.517  0.00  0.00    +0.028 A 
ATOM     18  C   UNL     1      15.808  24.314  17.240  0.00  0.00    +0.003 A 
ATOM     19  C   UNL     1      14.566  23.975  16.704  0.00  0.00    +0.020 A 
ATOM     20  C   UNL     1      13.684  23.194  17.446  0.00  0.00    +0.043 A 
ATOM     21 CL   UNL     1      12.152  22.773  16.783  0.00  0.00    -0.083 Cl
ATOM     22  C   UNL     1      14.027  22.748  18.724  0.00  0.00    +0.047 A 
ENDBRANCH  14  16
ENDBRANCH  10  12
ENDBRANCH   9  10
ENDBRANCH   5   9
ENDBRANCH   4   7
ENDBRANCH   1   4
BRANCH   1  23
ATOM     23  C   UNL     1      11.042  24.539  26.281  0.00  0.00    +0.175 C 
BRANCH  23  24
ATOM     24  C   UNL     1       9.609  24.643  25.739  0.00  0.00    +0.176 C 
ATOM     25  O   UNL     1       9.686  25.069  24.351  0.00  0.00    -0.332 OA
ATOM     26  C   UNL     1       8.409  25.122  23.633  0.00  0.00    +0.277 C 
ATOM     27  C   UNL     1       7.394  26.008  24.397  0.00  0.00    +0.110 C 
ATOM     28  C   UNL     1       7.301  25.612  25.886  0.00  0.00    +0.143 C 
ATOM     29  C   UNL     1       8.686  25.586  26.534  0.00  0.00    +0.133 C 
BRANCH  29  30
ATOM     30  N   UNL     1       8.594  25.124  27.928  0.00  0.00    -0.308 N 
ATOM     31  H   UNL     1       8.192  24.212  28.097  0.00  0.00    +0.149 HD
ATOM     32  C   UNL     1       9.007  25.830  28.984  0.00  0.00    +0.210 C 
ATOM     33  C   UNL     1       9.591  27.225  28.694  0.00  0.00    +0.109 C 
ATOM     34  O   UNL     1       8.931  25.411  30.139  0.00  0.00    -0.276 OA
ENDBRANCH  29  30
BRANCH  26  35
ATOM     35  C   UNL     1       7.824  23.706  23.452  0.00  0.00    +0.414 C 
ATOM     36  O   UNL     1       6.705  23.555  22.961  0.00  0.00    -0.240 OA
ATOM     37  O   UNL     1       8.469  22.716  23.796  0.00  0.00    -0.240 OA
ENDBRANCH  26  35
BRANCH  28  38
ATOM     38  O   UNL     1       6.474  26.546  26.581  0.00  0.00    -0.390 OA
ATOM     39  H   UNL     1       5.555  26.279  26.505  0.00  0.00    +0.210 HD
ENDBRANCH  28  38
BRANCH  26  40
ATOM     40  O   UNL     1       8.650  25.721  22.333  0.00  0.00    -0.343 OA
ATOM     41  C   UNL     1      10.047  25.845  21.966  0.00  0.00    +0.198 C 
ENDBRANCH  26  40
ENDBRANCH  23  24
BRANCH  23  42
ATOM     42  O   UNL     1      11.811  25.689  25.877  0.00  0.00    -0.387 OA
ATOM     43  H   UNL     1      11.704  26.390  26.525  0.00  0.00    +0.210 HD
ENDBRANCH  23  42
ENDBRANCH   1  23
TORSDOF 14
