REMARK VINA RESULT:    -6.718      2.221      4.117
REMARK INTER + INTRA:         -13.595
REMARK INTER:                 -11.727
REMARK INTRA:                  -1.868
REMARK UNBOUND:                -1.575
REMARK  Name = lig_assembled_0.pdb
REMARK  17 active torsions:
REMARK  status: ('A' for Active; 'I' for Inactive)
REMARK    1  A    between atoms: _2  and  _10
REMARK    2  A    between atoms: _5  and  _21
REMARK    3  A    between atoms: _7  and  _8
REMARK    4  A    between atoms: _7  and  _21
REMARK    5  A    between atoms: _11  and  _12
REMARK    6  A    between atoms: _17  and  _37
REMARK    7  A    between atoms: _19  and  _25
REMARK    8  A    between atoms: _20  and  _24
REMARK    9  A    between atoms: _24  and  _25
REMARK   10  A    between atoms: _27  and  _28
REMARK   11  A    between atoms: _29  and  _30
REMARK   12  A    between atoms: _31  and  _33
REMARK   13  A    between atoms: _33  and  _34
REMARK   14  A    between atoms: _33  and  _35
REMARK   15  A    between atoms: _35  and  _36
REMARK   16  A    between atoms: _35  and  _37
REMARK   17  A    between atoms: _38  and  _40
REMARK                            x       y       z     vdW  Elec       q    Type
REMARK                         _______ _______ _______ _____ _____    ______ ____
ROOT
ATOM      1  C   UNL     1       6.662   3.701  33.405  0.00  0.00    +0.163 C 
ENDROOT
BRANCH   1   2
ATOM      2  O   UNL     1       7.444   4.798  32.906  0.00  0.00    -0.388 OA
ATOM      3  H   UNL     1       8.287   4.470  32.582  0.00  0.00    +0.210 HD
ENDBRANCH   1   2
BRANCH   1   4
ATOM      4  C   UNL     1       6.181   2.834  32.246  0.00  0.00    +0.141 C 
BRANCH   4   7
ATOM      5  C   UNL     1       3.934   2.516  31.268  0.00  0.00    +0.401 C 
ATOM      6  O   UNL     1       3.996   1.284  31.290  0.00  0.00    -0.226 OA
ATOM      7  N   UNL     1       4.912   3.319  31.690  0.00  0.00    -0.279 N 
ATOM      8  H   UNL     1       4.771   4.317  31.622  0.00  0.00    +0.152 HD
BRANCH   5   9
ATOM      9  O   UNL     1       2.754   3.143  30.760  0.00  0.00    -0.444 OA
BRANCH   9  10
ATOM     10  C   UNL     1       1.996   2.194  30.004  0.00  0.00    +0.292 C 
BRANCH  10  12
ATOM     11  N   UNL     1       0.638   3.659  28.555  0.00  0.00    -0.131 NA
ATOM     12  C   UNL     1       1.646   2.751  28.684  0.00  0.00    +0.121 A 
ATOM     13  C   UNL     1       2.209   2.523  27.448  0.00  0.00    +0.143 A 
ATOM     14  N   UNL     1       1.443   3.250  26.565  0.00  0.00    -0.219 N 
ATOM     15  N   UNL     1       0.554   3.996  27.278  0.00  0.00    -0.060 NA
BRANCH  14  16
ATOM     16  C   UNL     1       1.539   3.399  25.153  0.00  0.00    +0.079 A 
ATOM     17  C   UNL     1       1.836   2.356  24.253  0.00  0.00    +0.062 A 
ATOM     18  C   UNL     1       1.942   2.654  22.877  0.00  0.00    +0.015 A 
ATOM     19  C   UNL     1       1.772   3.954  22.399  0.00  0.00    +0.001 A 
ATOM     20  C   UNL     1       1.465   4.978  23.284  0.00  0.00    +0.002 A 
ATOM     21  C   UNL     1       1.338   4.703  24.645  0.00  0.00    +0.028 A 
BRANCH  17  22
ATOM     22  C   UNL     1       1.866   0.914  24.626  0.00  0.00    +0.244 C 
ATOM     23  O   UNL     1       2.911   0.303  24.790  0.00  0.00    -0.270 OA
ATOM     24  N   UNL     1       0.666   0.285  24.823  0.00  0.00    -0.325 N 
ATOM     25  H   UNL     1       0.696  -0.681  25.126  0.00  0.00    +0.145 HD
ATOM     26  H   UNL     1      -0.239   0.722  24.721  0.00  0.00    +0.145 HD
ENDBRANCH  17  22
ENDBRANCH  14  16
ENDBRANCH  10  12
ENDBRANCH   9  10
ENDBRANCH   5   9
ENDBRANCH   4   7
ENDBRANCH   1   4
BRANCH   1  27
ATOM     27  C   UNL     1       5.450   4.209  34.205  0.00  0.00    +0.175 C 
BRANCH  27  28
ATOM     28  C   UNL     1       5.840   5.294  35.219  0.00  0.00    +0.176 C 
ATOM     29  O   UNL     1       7.243   5.108  35.555  0.00  0.00    -0.332 OA
ATOM     30  C   UNL     1       7.823   6.124  36.438  0.00  0.00    +0.277 C 
ATOM     31  C   UNL     1       6.988   6.255  37.735  0.00  0.00    +0.110 C 
ATOM     32  C   UNL     1       5.485   6.423  37.429  0.00  0.00    +0.143 C 
ATOM     33  C   UNL     1       4.986   5.315  36.501  0.00  0.00    +0.133 C 
BRANCH  33  34
ATOM     34  N   UNL     1       3.575   5.534  36.147  0.00  0.00    -0.308 N 
ATOM     35  H   UNL     1       3.361   6.286  35.508  0.00  0.00    +0.149 HD
ATOM     36  C   UNL     1       2.559   4.805  36.617  0.00  0.00    +0.210 C 
ATOM     37  C   UNL     1       2.917   3.683  37.610  0.00  0.00    +0.109 C 
ATOM     38  O   UNL     1       1.388   5.002  36.292  0.00  0.00    -0.276 OA
ENDBRANCH  33  34
BRANCH  30  39
ATOM     39  C   UNL     1       7.891   7.492  35.728  0.00  0.00    +0.414 C 
ATOM     40  O   UNL     1       7.757   7.564  34.507  0.00  0.00    -0.240 OA
ATOM     41  O   UNL     1       8.078   8.523  36.375  0.00  0.00    -0.240 OA
ENDBRANCH  30  39
BRANCH  32  42
ATOM     42  O   UNL     1       4.739   6.387  38.647  0.00  0.00    -0.390 OA
ATOM     43  H   UNL     1       5.226   5.889  39.307  0.00  0.00    +0.210 HD
ENDBRANCH  32  42
BRANCH  30  44
ATOM     44  O   UNL     1       9.162   5.694  36.797  0.00  0.00    -0.343 OA
ATOM     45  C   UNL     1       9.508   5.874  38.194  0.00  0.00    +0.198 C 
ENDBRANCH  30  44
ENDBRANCH  27  28
BRANCH  27  46
ATOM     46  O   UNL     1       4.802   3.111  34.876  0.00  0.00    -0.387 OA
ATOM     47  H   UNL     1       4.127   3.450  35.469  0.00  0.00    +0.210 HD
ENDBRANCH  27  46
ENDBRANCH   1  27
TORSDOF 15
