REMARK VINA RESULT:    -5.647     10.382     13.914
REMARK INTER + INTRA:         -13.240
REMARK INTER:                 -11.586
REMARK INTRA:                  -1.653
REMARK UNBOUND:                -2.970
REMARK  Name = lig_assembled_22.pdb
REMARK  20 active torsions:
REMARK  status: ('A' for Active; 'I' for Inactive)
REMARK    1  A    between atoms: _2  and  _9
REMARK    2  A    between atoms: _4  and  _18
REMARK    3  A    between atoms: _5  and  _9
REMARK    4  A    between atoms: _5  and  _12
REMARK    5  A    between atoms: _6  and  _7
REMARK    6  A    between atoms: _6  and  _18
REMARK    7  A    between atoms: _9  and  _10
REMARK    8  A    between atoms: _9  and  _11
REMARK    9  A    between atoms: _14  and  _34
REMARK   10  A    between atoms: _16  and  _22
REMARK   11  A    between atoms: _17  and  _21
REMARK   12  A    between atoms: _21  and  _22
REMARK   13  A    between atoms: _24  and  _25
REMARK   14  A    between atoms: _26  and  _27
REMARK   15  A    between atoms: _28  and  _30
REMARK   16  A    between atoms: _30  and  _31
REMARK   17  A    between atoms: _30  and  _32
REMARK   18  A    between atoms: _32  and  _33
REMARK   19  A    between atoms: _32  and  _34
REMARK   20  A    between atoms: _35  and  _37
REMARK                            x       y       z     vdW  Elec       q    Type
REMARK                         _______ _______ _______ _____ _____    ______ ____
ROOT
ATOM      1  C   UNL     1       7.240   2.396  34.409  0.00  0.00    +0.163 C 
ENDROOT
BRANCH   1   2
ATOM      2  O   UNL     1       7.194   2.433  35.845  0.00  0.00    -0.388 OA
ATOM      3  H   UNL     1       6.541   1.804  36.161  0.00  0.00    +0.210 HD
ENDBRANCH   1   2
BRANCH   1   4
ATOM      4  C   UNL     1       8.173   1.282  33.946  0.00  0.00    +0.141 C 
BRANCH   4   7
ATOM      5  C   UNL     1      10.434   1.803  34.797  0.00  0.00    +0.401 C 
ATOM      6  O   UNL     1      10.177   1.470  35.957  0.00  0.00    -0.226 OA
ATOM      7  N   UNL     1       9.556   1.753  33.795  0.00  0.00    -0.279 N 
ATOM      8  H   UNL     1       9.858   2.057  32.880  0.00  0.00    +0.152 HD
BRANCH   5   9
ATOM      9  O   UNL     1      11.746   2.278  34.486  0.00  0.00    -0.444 OA
BRANCH   9  10
ATOM     10  C   UNL     1      12.504   2.412  35.692  0.00  0.00    +0.292 C 
BRANCH  10  12
ATOM     11  N   UNL     1      12.953   4.772  36.263  0.00  0.00    -0.131 NA
ATOM     12  C   UNL     1      13.344   3.623  35.635  0.00  0.00    +0.120 A 
ATOM     13  C   UNL     1      14.555   3.841  35.014  0.00  0.00    +0.138 A 
ATOM     14  N   UNL     1      14.851   5.144  35.301  0.00  0.00    -0.235 N 
ATOM     15  N   UNL     1      13.877   5.695  36.051  0.00  0.00    -0.064 NA
BRANCH  14  16
ATOM     16  C   UNL     1      16.006   5.946  34.894  0.00  0.00    +0.155 C 
ATOM     17  C   UNL     1      17.248   5.075  34.607  0.00  0.00    +0.048 C 
ATOM     18  C   UNL     1      16.352   6.926  36.031  0.00  0.00    +0.048 C 
BRANCH  16  19
ATOM     19  C   UNL     1      15.688   6.730  33.618  0.00  0.00    +0.332 C 
ATOM     20  O   UNL     1      14.984   7.733  33.585  0.00  0.00    -0.248 OA
BRANCH  19  21
ATOM     21  O   UNL     1      16.245   6.242  32.484  0.00  0.00    -0.479 OA
ATOM     22  H   UNL     1      16.037   6.719  31.657  0.00  0.00    +0.295 HD
ENDBRANCH  19  21
ENDBRANCH  16  19
ENDBRANCH  14  16
ENDBRANCH  10  12
ENDBRANCH   9  10
ENDBRANCH   5   9
ENDBRANCH   4   7
ENDBRANCH   1   4
BRANCH   1  23
ATOM     23  C   UNL     1       7.723   3.741  33.839  0.00  0.00    +0.175 C 
BRANCH  23  24
ATOM     24  C   UNL     1       7.102   4.937  34.576  0.00  0.00    +0.176 C 
ATOM     25  O   UNL     1       7.788   5.083  35.849  0.00  0.00    -0.332 OA
ATOM     26  C   UNL     1       7.397   6.248  36.650  0.00  0.00    +0.277 C 
ATOM     27  C   UNL     1       5.865   6.259  36.876  0.00  0.00    +0.110 C 
ATOM     28  C   UNL     1       5.093   6.074  35.553  0.00  0.00    +0.143 C 
ATOM     29  C   UNL     1       5.581   4.836  34.801  0.00  0.00    +0.133 C 
BRANCH  29  30
ATOM     30  N   UNL     1       4.899   4.720  33.502  0.00  0.00    -0.308 N 
ATOM     31  H   UNL     1       5.124   5.399  32.789  0.00  0.00    +0.149 HD
ATOM     32  C   UNL     1       4.003   3.775  33.205  0.00  0.00    +0.210 C 
ATOM     33  C   UNL     1       3.663   2.771  34.322  0.00  0.00    +0.109 C 
ATOM     34  O   UNL     1       3.458   3.693  32.104  0.00  0.00    -0.276 OA
ENDBRANCH  29  30
BRANCH  26  35
ATOM     35  C   UNL     1       7.826   7.557  35.956  0.00  0.00    +0.414 C 
ATOM     36  O   UNL     1       7.829   7.636  34.728  0.00  0.00    -0.240 OA
ATOM     37  O   UNL     1       8.168   8.534  36.623  0.00  0.00    -0.240 OA
ENDBRANCH  26  35
BRANCH  26  38
ATOM     38  O   UNL     1       8.050   6.144  37.941  0.00  0.00    -0.343 OA
ATOM     39  C   UNL     1       7.170   6.286  39.085  0.00  0.00    +0.198 C 
ENDBRANCH  26  38
BRANCH  28  40
ATOM     40  O   UNL     1       3.697   5.939  35.825  0.00  0.00    -0.390 OA
ATOM     41  H   UNL     1       3.193   6.186  35.046  0.00  0.00    +0.210 HD
ENDBRANCH  28  40
ENDBRANCH  23  24
BRANCH  23  42
ATOM     42  O   UNL     1       7.428   3.817  32.430  0.00  0.00    -0.387 OA
ATOM     43  H   UNL     1       6.555   4.197  32.306  0.00  0.00    +0.210 HD
ENDBRANCH  23  42
ENDBRANCH   1  23
TORSDOF 16
