REMARK VINA RESULT:    -6.345     12.649     18.335
REMARK INTER + INTRA:         -13.889
REMARK INTER:                 -11.397
REMARK INTRA:                  -2.492
REMARK UNBOUND:                -2.536
REMARK  Name = lig_assembled_44.pdb
REMARK  17 active torsions:
REMARK  status: ('A' for Active; 'I' for Inactive)
REMARK    1  A    between atoms: _2  and  _9
REMARK    2  A    between atoms: _4  and  _19
REMARK    3  A    between atoms: _6  and  _7
REMARK    4  A    between atoms: _6  and  _19
REMARK    5  A    between atoms: _9  and  _10
REMARK    6  A    between atoms: _15  and  _35
REMARK    7  A    between atoms: _17  and  _23
REMARK    8  A    between atoms: _18  and  _22
REMARK    9  A    between atoms: _22  and  _23
REMARK   10  A    between atoms: _25  and  _26
REMARK   11  A    between atoms: _27  and  _28
REMARK   12  A    between atoms: _29  and  _31
REMARK   13  A    between atoms: _31  and  _32
REMARK   14  A    between atoms: _31  and  _33
REMARK   15  A    between atoms: _33  and  _34
REMARK   16  A    between atoms: _33  and  _35
REMARK   17  A    between atoms: _36  and  _38
REMARK                            x       y       z     vdW  Elec       q    Type
REMARK                         _______ _______ _______ _____ _____    ______ ____
ROOT
ATOM      1  C   UNL     1      -4.889   7.646  13.143  0.00  0.00    +0.163 C 
ENDROOT
BRANCH   1   2
ATOM      2  O   UNL     1      -5.091   7.097  14.456  0.00  0.00    -0.388 OA
ATOM      3  H   UNL     1      -5.182   6.143  14.394  0.00  0.00    +0.210 HD
ENDBRANCH   1   2
BRANCH   1   4
ATOM      4  C   UNL     1      -3.487   7.309  12.647  0.00  0.00    +0.141 C 
BRANCH   4   7
ATOM      5  C   UNL     1      -1.567   7.605  14.174  0.00  0.00    +0.401 C 
ATOM      6  O   UNL     1      -1.231   8.690  13.693  0.00  0.00    -0.226 OA
ATOM      7  N   UNL     1      -2.605   6.888  13.742  0.00  0.00    -0.279 N 
ATOM      8  H   UNL     1      -2.795   6.004  14.194  0.00  0.00    +0.152 HD
BRANCH   5   9
ATOM      9  O   UNL     1      -0.809   7.061  15.258  0.00  0.00    -0.444 OA
BRANCH   9  10
ATOM     10  C   UNL     1      -1.699   6.597  16.277  0.00  0.00    +0.292 C 
BRANCH  10  12
ATOM     11  N   UNL     1      -1.722   4.897  18.081  0.00  0.00    -0.131 NA
ATOM     12  C   UNL     1      -1.028   5.596  17.129  0.00  0.00    +0.120 A 
ATOM     13  C   UNL     1       0.284   5.184  17.135  0.00  0.00    +0.137 A 
ATOM     14  N   UNL     1       0.307   4.179  18.057  0.00  0.00    -0.247 N 
ATOM     15  N   UNL     1      -0.890   4.037  18.653  0.00  0.00    -0.065 NA
BRANCH  14  16
ATOM     16  C   UNL     1       1.418   3.320  18.421  0.00  0.00    +0.180 C 
BRANCH  16  17
ATOM     17  C   UNL     1       1.579   3.229  19.919  0.00  0.00    -0.026 A 
ATOM     18  C   UNL     1       1.680   4.390  20.701  0.00  0.00    +0.006 A 
ATOM     19  C   UNL     1       1.846   4.303  22.084  0.00  0.00    +0.015 A 
ATOM     20  C   UNL     1       1.911   3.052  22.695  0.00  0.00    +0.018 A 
ATOM     21 BR   UNL     1       2.118   2.936  24.571  0.00  0.00    -0.050 Br
ATOM     22  C   UNL     1       1.825   1.888  21.935  0.00  0.00    +0.015 A 
ATOM     23  C   UNL     1       1.665   1.976  20.549  0.00  0.00    +0.006 A 
ENDBRANCH  16  17
ENDBRANCH  14  16
ENDBRANCH  10  12
ENDBRANCH   9  10
ENDBRANCH   5   9
ENDBRANCH   4   7
ENDBRANCH   1   4
BRANCH   1  24
ATOM     24  C   UNL     1      -5.080   9.172  13.150  0.00  0.00    +0.175 C 
BRANCH  24  25
ATOM     25  C   UNL     1      -4.782   9.786  14.526  0.00  0.00    +0.176 C 
ATOM     26  O   UNL     1      -6.016   9.779  15.295  0.00  0.00    -0.332 OA
ATOM     27  C   UNL     1      -5.901  10.234  16.683  0.00  0.00    +0.277 C 
ATOM     28  C   UNL     1      -5.258  11.641  16.740  0.00  0.00    +0.110 C 
ATOM     29  C   UNL     1      -3.958  11.707  15.910  0.00  0.00    +0.143 C 
ATOM     30  C   UNL     1      -4.192  11.208  14.484  0.00  0.00    +0.133 C 
BRANCH  30  31
ATOM     31  N   UNL     1      -2.929  11.193  13.729  0.00  0.00    -0.308 N 
ATOM     32  H   UNL     1      -2.201  10.565  14.040  0.00  0.00    +0.149 HD
ATOM     33  C   UNL     1      -2.681  11.956  12.661  0.00  0.00    +0.210 C 
ATOM     34  C   UNL     1      -3.800  12.922  12.229  0.00  0.00    +0.109 C 
ATOM     35  O   UNL     1      -1.619  11.912  12.040  0.00  0.00    -0.276 OA
ENDBRANCH  30  31
BRANCH  27  36
ATOM     36  C   UNL     1      -5.055   9.247  17.514  0.00  0.00    +0.414 C 
ATOM     37  O   UNL     1      -4.621   9.578  18.617  0.00  0.00    -0.240 OA
ATOM     38  O   UNL     1      -4.807   8.121  17.083  0.00  0.00    -0.240 OA
ENDBRANCH  27  36
BRANCH  27  39
ATOM     39  O   UNL     1      -7.238  10.320  17.240  0.00  0.00    -0.343 OA
ATOM     40  C   UNL     1      -8.108  11.286  16.598  0.00  0.00    +0.198 C 
ENDBRANCH  27  39
BRANCH  29  41
ATOM     41  O   UNL     1      -3.483  13.053  15.865  0.00  0.00    -0.390 OA
ATOM     42  H   UNL     1      -4.127  13.635  16.275  0.00  0.00    +0.210 HD
ENDBRANCH  29  41
ENDBRANCH  24  25
BRANCH  24  43
ATOM     43  O   UNL     1      -6.419   9.507  12.735  0.00  0.00    -0.387 OA
ATOM     44  H   UNL     1      -6.794  10.144  13.349  0.00  0.00    +0.210 HD
ENDBRANCH  24  43
ENDBRANCH   1  24
TORSDOF 15
