REMARK VINA RESULT:    -6.646      1.556      2.098
REMARK INTER + INTRA:         -13.466
REMARK INTER:                 -11.891
REMARK INTRA:                  -1.575
REMARK UNBOUND:                -1.575
REMARK  Name = lig_assembled_0.pdb
REMARK  17 active torsions:
REMARK  status: ('A' for Active; 'I' for Inactive)
REMARK    1  A    between atoms: _2  and  _10
REMARK    2  A    between atoms: _5  and  _21
REMARK    3  A    between atoms: _7  and  _8
REMARK    4  A    between atoms: _7  and  _21
REMARK    5  A    between atoms: _11  and  _12
REMARK    6  A    between atoms: _17  and  _37
REMARK    7  A    between atoms: _19  and  _25
REMARK    8  A    between atoms: _20  and  _24
REMARK    9  A    between atoms: _24  and  _25
REMARK   10  A    between atoms: _27  and  _28
REMARK   11  A    between atoms: _29  and  _30
REMARK   12  A    between atoms: _31  and  _33
REMARK   13  A    between atoms: _33  and  _34
REMARK   14  A    between atoms: _33  and  _35
REMARK   15  A    between atoms: _35  and  _36
REMARK   16  A    between atoms: _35  and  _37
REMARK   17  A    between atoms: _38  and  _40
REMARK                            x       y       z     vdW  Elec       q    Type
REMARK                         _______ _______ _______ _____ _____    ______ ____
ROOT
ATOM      1  C   UNL     1       5.517   2.534  32.482  0.00  0.00    +0.163 C 
ENDROOT
BRANCH   1   2
ATOM      2  O   UNL     1       6.614   3.259  31.902  0.00  0.00    -0.388 OA
ATOM      3  H   UNL     1       7.262   2.639  31.560  0.00  0.00    +0.210 HD
ENDBRANCH   1   2
BRANCH   1   4
ATOM      4  C   UNL     1       4.199   3.223  32.142  0.00  0.00    +0.141 C 
BRANCH   4   7
ATOM      5  C   UNL     1       2.245   2.847  30.677  0.00  0.00    +0.401 C 
ATOM      6  O   UNL     1       1.570   3.743  31.189  0.00  0.00    -0.226 OA
ATOM      7  N   UNL     1       3.482   2.531  31.065  0.00  0.00    -0.279 N 
ATOM      8  H   UNL     1       3.951   1.773  30.590  0.00  0.00    +0.152 HD
BRANCH   5   9
ATOM      9  O   UNL     1       1.687   2.083  29.605  0.00  0.00    -0.444 OA
BRANCH   9  10
ATOM     10  C   UNL     1       0.745   2.885  28.887  0.00  0.00    +0.292 C 
BRANCH  10  12
ATOM     11  N   UNL     1       2.520   3.796  27.437  0.00  0.00    -0.131 NA
ATOM     12  C   UNL     1       1.281   3.244  27.561  0.00  0.00    +0.121 A 
ATOM     13  C   UNL     1       0.726   3.095  26.310  0.00  0.00    +0.143 A 
ATOM     14  N   UNL     1       1.633   3.663  25.445  0.00  0.00    -0.219 N 
ATOM     15  N   UNL     1       2.749   3.999  26.149  0.00  0.00    -0.060 NA
BRANCH  14  16
ATOM     16  C   UNL     1       1.602   3.812  24.029  0.00  0.00    +0.079 A 
ATOM     17  C   UNL     1       1.898   2.789  23.106  0.00  0.00    +0.062 A 
ATOM     18  C   UNL     1       1.868   3.089  21.726  0.00  0.00    +0.015 A 
ATOM     19  C   UNL     1       1.568   4.371  21.267  0.00  0.00    +0.001 A 
ATOM     20  C   UNL     1       1.262   5.374  22.175  0.00  0.00    +0.002 A 
ATOM     21  C   UNL     1       1.267   5.097  23.542  0.00  0.00    +0.028 A 
BRANCH  17  22
ATOM     22  C   UNL     1       2.060   1.354  23.473  0.00  0.00    +0.244 C 
ATOM     23  O   UNL     1       1.150   0.547  23.371  0.00  0.00    -0.270 OA
ATOM     24  N   UNL     1       3.296   0.945  23.900  0.00  0.00    -0.325 N 
ATOM     25  H   UNL     1       3.411  -0.042  24.099  0.00  0.00    +0.145 HD
ATOM     26  H   UNL     1       4.101   1.546  23.998  0.00  0.00    +0.145 HD
ENDBRANCH  17  22
ENDBRANCH  14  16
ENDBRANCH  10  12
ENDBRANCH   9  10
ENDBRANCH   5   9
ENDBRANCH   4   7
ENDBRANCH   1   4
BRANCH   1  27
ATOM     27  C   UNL     1       5.667   2.439  34.010  0.00  0.00    +0.175 C 
BRANCH  27  28
ATOM     28  C   UNL     1       7.063   2.874  34.482  0.00  0.00    +0.176 C 
ATOM     29  O   UNL     1       7.611   1.806  35.302  0.00  0.00    -0.332 OA
ATOM     30  C   UNL     1       8.991   2.002  35.757  0.00  0.00    +0.277 C 
ATOM     31  C   UNL     1       9.129   3.354  36.499  0.00  0.00    +0.110 C 
ATOM     32  C   UNL     1       8.531   4.516  35.679  0.00  0.00    +0.143 C 
ATOM     33  C   UNL     1       7.095   4.206  35.254  0.00  0.00    +0.133 C 
BRANCH  33  34
ATOM     34  N   UNL     1       6.566   5.282  34.401  0.00  0.00    -0.308 N 
ATOM     35  H   UNL     1       7.007   5.433  33.505  0.00  0.00    +0.149 HD
ATOM     36  C   UNL     1       5.541   6.071  34.734  0.00  0.00    +0.210 C 
ATOM     37  C   UNL     1       4.907   5.832  36.118  0.00  0.00    +0.109 C 
ATOM     38  O   UNL     1       5.109   6.955  33.993  0.00  0.00    -0.276 OA
ENDBRANCH  33  34
BRANCH  30  39
ATOM     39  C   UNL     1       9.971   1.964  34.566  0.00  0.00    +0.414 C 
ATOM     40  O   UNL     1       9.619   1.484  33.489  0.00  0.00    -0.240 OA
ATOM     41  O   UNL     1      11.112   2.412  34.683  0.00  0.00    -0.240 OA
ENDBRANCH  30  39
BRANCH  32  42
ATOM     42  O   UNL     1       8.542   5.712  36.459  0.00  0.00    -0.390 OA
ATOM     43  H   UNL     1       8.955   6.419  35.957  0.00  0.00    +0.210 HD
ENDBRANCH  32  42
BRANCH  30  44
ATOM     44  O   UNL     1       9.311   0.935  36.688  0.00  0.00    -0.343 OA
ATOM     45  C   UNL     1       8.896  -0.389  36.268  0.00  0.00    +0.198 C 
ENDBRANCH  30  44
ENDBRANCH  27  28
BRANCH  27  46
ATOM     46  O   UNL     1       5.390   1.095  34.453  0.00  0.00    -0.387 OA
ATOM     47  H   UNL     1       4.441   0.961  34.496  0.00  0.00    +0.210 HD
ENDBRANCH  27  46
ENDBRANCH   1  27
TORSDOF 15
