REMARK VINA RESULT:    -6.809     14.398     18.710
REMARK INTER + INTRA:         -13.741
REMARK INTER:                 -11.541
REMARK INTRA:                  -2.200
REMARK UNBOUND:                -1.557
REMARK  Name = lig_assembled_28.pdb
REMARK  17 active torsions:
REMARK  status: ('A' for Active; 'I' for Inactive)
REMARK    1  A    between atoms: _2  and  _9
REMARK    2  A    between atoms: _4  and  _22
REMARK    3  A    between atoms: _6  and  _7
REMARK    4  A    between atoms: _6  and  _22
REMARK    5  A    between atoms: _9  and  _10
REMARK    6  A    between atoms: _18  and  _38
REMARK    7  A    between atoms: _20  and  _26
REMARK    8  A    between atoms: _21  and  _25
REMARK    9  A    between atoms: _25  and  _26
REMARK   10  A    between atoms: _28  and  _29
REMARK   11  A    between atoms: _30  and  _31
REMARK   12  A    between atoms: _32  and  _34
REMARK   13  A    between atoms: _34  and  _35
REMARK   14  A    between atoms: _34  and  _36
REMARK   15  A    between atoms: _36  and  _37
REMARK   16  A    between atoms: _36  and  _38
REMARK   17  A    between atoms: _39  and  _41
REMARK                            x       y       z     vdW  Elec       q    Type
REMARK                         _______ _______ _______ _____ _____    ______ ____
ROOT
ATOM      1  C   UNL     1      18.653   5.835  23.949  0.00  0.00    +0.163 C 
ENDROOT
BRANCH   1   2
ATOM      2  O   UNL     1      17.465   5.854  23.140  0.00  0.00    -0.388 OA
ATOM      3  H   UNL     1      16.894   6.571  23.425  0.00  0.00    +0.210 HD
ENDBRANCH   1   2
BRANCH   1   4
ATOM      4  C   UNL     1      19.657   6.857  23.426  0.00  0.00    +0.141 C 
BRANCH   4   7
ATOM      5  C   UNL     1      21.296   7.803  25.014  0.00  0.00    +0.401 C 
ATOM      6  O   UNL     1      22.193   7.016  24.704  0.00  0.00    -0.226 OA
ATOM      7  N   UNL     1      20.077   7.797  24.472  0.00  0.00    -0.279 N 
ATOM      8  H   UNL     1      19.406   8.477  24.800  0.00  0.00    +0.152 HD
BRANCH   5   9
ATOM      9  O   UNL     1      21.553   8.789  26.017  0.00  0.00    -0.444 OA
BRANCH   9  10
ATOM     10  C   UNL     1      20.314   9.263  26.552  0.00  0.00    +0.292 C 
BRANCH  10  12
ATOM     11  N   UNL     1      18.986   7.341  27.383  0.00  0.00    -0.131 NA
ATOM     12  C   UNL     1      19.849   8.374  27.633  0.00  0.00    +0.120 A 
ATOM     13  C   UNL     1      20.176   8.372  28.970  0.00  0.00    +0.137 A 
ATOM     14  N   UNL     1      19.560   7.257  29.463  0.00  0.00    -0.247 N 
ATOM     15  N   UNL     1      18.806   6.671  28.513  0.00  0.00    -0.065 NA
BRANCH  14  16
ATOM     16  C   UNL     1      19.680   6.609  30.762  0.00  0.00    +0.180 C 
BRANCH  16  17
ATOM     17  C   UNL     1      18.493   6.840  31.668  0.00  0.00    -0.022 A 
ATOM     18  C   UNL     1      17.844   8.088  31.678  0.00  0.00    +0.055 A 
ATOM     19  C   UNL     1      16.698   8.215  32.433  0.00  0.00    +0.167 A 
ATOM     20  O   UNL     1      15.921   9.330  32.512  0.00  0.00    -0.453 OA
ATOM     21  C   UNL     1      14.830   8.839  33.318  0.00  0.00    +0.466 C 
ATOM     22  O   UNL     1      15.047   7.504  33.825  0.00  0.00    -0.453 OA
ATOM     23  C   UNL     1      16.202   7.178  33.183  0.00  0.00    +0.166 A 
ATOM     24  C   UNL     1      16.828   5.951  33.225  0.00  0.00    +0.050 A 
ATOM     25  C   UNL     1      17.981   5.781  32.453  0.00  0.00    +0.009 A 
ENDBRANCH  16  17
ENDBRANCH  14  16
ENDBRANCH  10  12
ENDBRANCH   9  10
ENDBRANCH   5   9
ENDBRANCH   4   7
ENDBRANCH   1   4
BRANCH   1  26
ATOM     26  C   UNL     1      19.295   4.437  23.951  0.00  0.00    +0.175 C 
BRANCH  26  27
ATOM     27  C   UNL     1      18.503   3.438  24.807  0.00  0.00    +0.176 C 
ATOM     28  O   UNL     1      19.373   2.978  25.878  0.00  0.00    -0.332 OA
ATOM     29  C   UNL     1      18.750   2.092  26.865  0.00  0.00    +0.277 C 
ATOM     30  C   UNL     1      18.095   0.876  26.163  0.00  0.00    +0.110 C 
ATOM     31  C   UNL     1      17.185   1.314  24.996  0.00  0.00    +0.143 C 
ATOM     32  C   UNL     1      17.933   2.235  24.033  0.00  0.00    +0.133 C 
BRANCH  32  33
ATOM     33  N   UNL     1      17.032   2.715  22.974  0.00  0.00    -0.308 N 
ATOM     34  H   UNL     1      16.283   3.340  23.239  0.00  0.00    +0.149 HD
ATOM     35  C   UNL     1      17.138   2.380  21.685  0.00  0.00    +0.210 C 
ATOM     36  C   UNL     1      18.273   1.406  21.317  0.00  0.00    +0.109 C 
ATOM     37  O   UNL     1      16.377   2.809  20.817  0.00  0.00    -0.276 OA
ENDBRANCH  32  33
BRANCH  29  38
ATOM     38  C   UNL     1      17.684   2.849  27.684  0.00  0.00    +0.414 C 
ATOM     39  O   UNL     1      16.511   2.864  27.313  0.00  0.00    -0.240 OA
ATOM     40  O   UNL     1      17.997   3.444  28.716  0.00  0.00    -0.240 OA
ENDBRANCH  29  38
BRANCH  29  41
ATOM     41  O   UNL     1      19.790   1.603  27.750  0.00  0.00    -0.343 OA
ATOM     42  C   UNL     1      19.518   0.318  28.365  0.00  0.00    +0.198 C 
ENDBRANCH  29  41
BRANCH  31  43
ATOM     43  O   UNL     1      16.725   0.164  24.286  0.00  0.00    -0.390 OA
ATOM     44  H   UNL     1      17.181   0.104  23.443  0.00  0.00    +0.210 HD
ENDBRANCH  31  43
ENDBRANCH  26  27
BRANCH  26  45
ATOM     45  O   UNL     1      20.658   4.518  24.415  0.00  0.00    -0.387 OA
ATOM     46  H   UNL     1      21.015   3.632  24.515  0.00  0.00    +0.210 HD
ENDBRANCH  26  45
ENDBRANCH   1  26
TORSDOF 15
