REMARK VINA RESULT:    -6.146      2.646      4.811
REMARK INTER + INTRA:         -15.343
REMARK INTER:                 -12.522
REMARK INTRA:                  -2.821
REMARK UNBOUND:                -3.269
REMARK  Name = lig_assembled_84.pdb
REMARK  21 active torsions:
REMARK  status: ('A' for Active; 'I' for Inactive)
REMARK    1  A    between atoms: _2  and  _11
REMARK    2  A    between atoms: _3  and  _14
REMARK    3  A    between atoms: _4  and  _17
REMARK    4  A    between atoms: _6  and  _28
REMARK    5  A    between atoms: _8  and  _9
REMARK    6  A    between atoms: _8  and  _28
REMARK    7  A    between atoms: _11  and  _12
REMARK    8  A    between atoms: _12  and  _13
REMARK    9  A    between atoms: _12  and  _14
REMARK   10  A    between atoms: _24  and  _44
REMARK   11  A    between atoms: _26  and  _32
REMARK   12  A    between atoms: _27  and  _31
REMARK   13  A    between atoms: _31  and  _32
REMARK   14  A    between atoms: _34  and  _35
REMARK   15  A    between atoms: _36  and  _37
REMARK   16  A    between atoms: _38  and  _40
REMARK   17  A    between atoms: _40  and  _41
REMARK   18  A    between atoms: _40  and  _42
REMARK   19  A    between atoms: _42  and  _43
REMARK   20  A    between atoms: _42  and  _44
REMARK   21  A    between atoms: _45  and  _47
REMARK                            x       y       z     vdW  Elec       q    Type
REMARK                         _______ _______ _______ _____ _____    ______ ____
ROOT
ATOM      1  C   UNL     1       4.739   2.292  35.862  0.00  0.00    +0.401 C 
ATOM      2  O   UNL     1       4.678   1.753  36.969  0.00  0.00    -0.226 OA
ATOM      3  N   UNL     1       4.011   3.352  35.508  0.00  0.00    -0.279 N 
ATOM      4  H   UNL     1       4.138   3.730  34.580  0.00  0.00    +0.152 HD
ENDROOT
BRANCH   1   5
ATOM      5  O   UNL     1       5.642   1.770  34.884  0.00  0.00    -0.444 OA
BRANCH   5   6
ATOM      6  C   UNL     1       5.092   1.960  33.577  0.00  0.00    +0.292 C 
BRANCH   6   8
ATOM      7  N   UNL     1       6.677   0.614  32.226  0.00  0.00    -0.131 NA
ATOM      8  C   UNL     1       5.408   0.812  32.706  0.00  0.00    +0.120 A 
ATOM      9  C   UNL     1       4.582  -0.172  32.211  0.00  0.00    +0.137 A 
ATOM     10  N   UNL     1       5.391  -0.896  31.386  0.00  0.00    -0.251 N 
ATOM     11  N   UNL     1       6.654  -0.436  31.415  0.00  0.00    -0.065 NA
BRANCH  10  12
ATOM     12  C   UNL     1       5.004  -1.934  30.451  0.00  0.00    +0.149 C 
BRANCH  12  13
ATOM     13  C   UNL     1       4.746  -1.434  29.020  0.00  0.00    +0.021 C 
ATOM     14  C   UNL     1       5.973  -1.655  28.123  0.00  0.00    +0.010 C 
BRANCH  13  15
ATOM     15  C   UNL     1       3.529  -2.151  28.385  0.00  0.00    +0.089 C 
BRANCH  15  16
ATOM     16  N   UNL     1       2.522  -1.273  27.775  0.00  0.00    -0.299 NA
ATOM     17  C   UNL     1       2.644  -1.311  26.293  0.00  0.00    +0.103 C 
ATOM     18  C   UNL     1       1.548  -0.469  25.608  0.00  0.00    +0.120 C 
ATOM     19  N   UNL     1       1.628   0.920  26.075  0.00  0.00    -0.327 N 
ATOM     20  C   UNL     1       1.574   1.070  27.537  0.00  0.00    +0.120 C 
ATOM     21  C   UNL     1       2.628   0.143  28.209  0.00  0.00    +0.103 C 
BRANCH  19  22
ATOM     22  C   UNL     1       1.691   1.990  25.214  0.00  0.00    +0.030 A 
ATOM     23  C   UNL     1       1.582   3.313  25.681  0.00  0.00    +0.024 A 
ATOM     24  C   UNL     1       1.619   4.413  24.817  0.00  0.00    +0.022 A 
ATOM     25  C   UNL     1       1.774   4.210  23.456  0.00  0.00    +0.041 A 
ATOM     26 CL   UNL     1       1.815   5.557  22.387  0.00  0.00    -0.084 Cl
ATOM     27  C   UNL     1       1.889   2.919  22.953  0.00  0.00    +0.022 A 
ATOM     28  C   UNL     1       1.845   1.825  23.829  0.00  0.00    +0.024 A 
ENDBRANCH  19  22
ENDBRANCH  15  16
ENDBRANCH  13  15
ENDBRANCH  12  13
ENDBRANCH  10  12
ENDBRANCH   6   8
ENDBRANCH   5   6
ENDBRANCH   1   5
BRANCH   3  29
ATOM     29  C   UNL     1       3.034   4.000  36.392  0.00  0.00    +0.141 C 
BRANCH  29  30
ATOM     30  C   UNL     1       3.307   5.492  36.545  0.00  0.00    +0.163 C 
BRANCH  30  31
ATOM     31  O   UNL     1       2.075   6.198  36.765  0.00  0.00    -0.388 OA
ATOM     32  H   UNL     1       2.129   7.070  36.365  0.00  0.00    +0.210 HD
ENDBRANCH  30  31
BRANCH  30  33
ATOM     33  C   UNL     1       4.286   5.719  37.709  0.00  0.00    +0.175 C 
BRANCH  33  34
ATOM     34  C   UNL     1       5.596   6.374  37.245  0.00  0.00    +0.176 C 
ATOM     35  O   UNL     1       6.081   5.633  36.092  0.00  0.00    -0.332 OA
ATOM     36  C   UNL     1       7.276   6.182  35.443  0.00  0.00    +0.277 C 
ATOM     37  C   UNL     1       8.419   6.355  36.473  0.00  0.00    +0.110 C 
ATOM     38  C   UNL     1       7.942   7.110  37.732  0.00  0.00    +0.143 C 
ATOM     39  C   UNL     1       6.693   6.456  38.323  0.00  0.00    +0.133 C 
BRANCH  39  40
ATOM     40  N   UNL     1       6.197   7.234  39.469  0.00  0.00    -0.308 N 
ATOM     41  H   UNL     1       5.830   8.158  39.289  0.00  0.00    +0.149 HD
ATOM     42  C   UNL     1       6.201   6.799  40.732  0.00  0.00    +0.210 C 
ATOM     43  C   UNL     1       6.791   5.397  40.977  0.00  0.00    +0.109 C 
ATOM     44  O   UNL     1       5.766   7.467  41.671  0.00  0.00    -0.276 OA
ENDBRANCH  39  40
BRANCH  36  45
ATOM     45  C   UNL     1       6.965   7.541  34.784  0.00  0.00    +0.414 C 
ATOM     46  O   UNL     1       7.851   8.385  34.655  0.00  0.00    -0.240 OA
ATOM     47  O   UNL     1       5.829   7.795  34.381  0.00  0.00    -0.240 OA
ENDBRANCH  36  45
BRANCH  36  48
ATOM     48  O   UNL     1       7.712   5.237  34.431  0.00  0.00    -0.343 OA
ATOM     49  C   UNL     1       8.195   3.970  34.944  0.00  0.00    +0.198 C 
ENDBRANCH  36  48
BRANCH  38  50
ATOM     50  O   UNL     1       8.980   7.114  38.713  0.00  0.00    -0.390 OA
ATOM     51  H   UNL     1       9.532   7.891  38.592  0.00  0.00    +0.210 HD
ENDBRANCH  38  50
ENDBRANCH  33  34
BRANCH  33  52
ATOM     52  O   UNL     1       4.564   4.470  38.374  0.00  0.00    -0.387 OA
ATOM     53  H   UNL     1       3.740   4.070  38.661  0.00  0.00    +0.210 HD
ENDBRANCH  33  52
ENDBRANCH  30  33
ENDBRANCH  29  30
ENDBRANCH   3  29
TORSDOF 18
