REMARK VINA RESULT:    -5.750     24.330     26.601
REMARK INTER + INTRA:         -14.364
REMARK INTER:                 -11.198
REMARK INTRA:                  -3.166
REMARK UNBOUND:                -2.564
REMARK  Name = lig_assembled_74.pdb
REMARK  24 active torsions:
REMARK  status: ('A' for Active; 'I' for Inactive)
REMARK    1  A    between atoms: _2  and  _9
REMARK    2  A    between atoms: _4  and  _22
REMARK    3  A    between atoms: _5  and  _14
REMARK    4  A    between atoms: _6  and  _7
REMARK    5  A    between atoms: _6  and  _22
REMARK    6  A    between atoms: _9  and  _10
REMARK    7  A    between atoms: _10  and  _11
REMARK    8  A    between atoms: _10  and  _13
REMARK    9  A    between atoms: _11  and  _12
REMARK   10  A    between atoms: _12  and  _16
REMARK   11  A    between atoms: _13  and  _14
REMARK   12  A    between atoms: _14  and  _15
REMARK   13  A    between atoms: _18  and  _38
REMARK   14  A    between atoms: _20  and  _26
REMARK   15  A    between atoms: _21  and  _25
REMARK   16  A    between atoms: _25  and  _26
REMARK   17  A    between atoms: _28  and  _29
REMARK   18  A    between atoms: _30  and  _31
REMARK   19  A    between atoms: _32  and  _34
REMARK   20  A    between atoms: _34  and  _35
REMARK   21  A    between atoms: _34  and  _36
REMARK   22  A    between atoms: _36  and  _37
REMARK   23  A    between atoms: _36  and  _38
REMARK   24  A    between atoms: _39  and  _41
REMARK                            x       y       z     vdW  Elec       q    Type
REMARK                         _______ _______ _______ _____ _____    ______ ____
ROOT
ATOM      1  C   UNL     1      -6.434  17.046  28.906  0.00  0.00    +0.163 C 
ENDROOT
BRANCH   1   2
ATOM      2  O   UNL     1      -5.732  16.769  30.129  0.00  0.00    -0.388 OA
ATOM      3  H   UNL     1      -4.956  16.236  29.939  0.00  0.00    +0.210 HD
ENDBRANCH   1   2
BRANCH   1   4
ATOM      4  C   UNL     1      -5.709  18.128  28.088  0.00  0.00    +0.175 C 
BRANCH   4   5
ATOM      5  C   UNL     1      -5.043  19.182  28.985  0.00  0.00    +0.176 C 
ATOM      6  O   UNL     1      -5.962  19.490  30.069  0.00  0.00    -0.332 OA
ATOM      7  C   UNL     1      -5.450  20.407  31.092  0.00  0.00    +0.277 C 
ATOM      8  C   UNL     1      -4.950  21.720  30.440  0.00  0.00    +0.110 C 
ATOM      9  C   UNL     1      -3.994  21.442  29.261  0.00  0.00    +0.143 C 
ATOM     10  C   UNL     1      -4.626  20.474  28.259  0.00  0.00    +0.133 C 
BRANCH  10  11
ATOM     11  N   UNL     1      -3.674  20.150  27.186  0.00  0.00    -0.308 N 
ATOM     12  H   UNL     1      -2.879  19.571  27.419  0.00  0.00    +0.149 HD
ATOM     13  C   UNL     1      -3.791  20.570  25.923  0.00  0.00    +0.210 C 
ATOM     14  C   UNL     1      -4.999  21.471  25.605  0.00  0.00    +0.109 C 
ATOM     15  O   UNL     1      -2.985  20.270  25.041  0.00  0.00    -0.276 OA
ENDBRANCH  10  11
BRANCH   7  16
ATOM     16  C   UNL     1      -4.299  19.754  31.885  0.00  0.00    +0.414 C 
ATOM     17  O   UNL     1      -3.468  20.455  32.462  0.00  0.00    -0.240 OA
ATOM     18  O   UNL     1      -4.201  18.528  31.948  0.00  0.00    -0.240 OA
ENDBRANCH   7  16
BRANCH   9  19
ATOM     19  O   UNL     1      -3.679  22.667  28.597  0.00  0.00    -0.390 OA
ATOM     20  H   UNL     1      -2.791  22.942  28.837  0.00  0.00    +0.210 HD
ENDBRANCH   9  19
BRANCH   7  21
ATOM     21  O   UNL     1      -6.541  20.730  31.992  0.00  0.00    -0.343 OA
ATOM     22  C   UNL     1      -7.374  19.606  32.372  0.00  0.00    +0.198 C 
ENDBRANCH   7  21
ENDBRANCH   4   5
BRANCH   4  23
ATOM     23  O   UNL     1      -6.628  18.761  27.176  0.00  0.00    -0.387 OA
ATOM     24  H   UNL     1      -7.169  18.091  26.750  0.00  0.00    +0.210 HD
ENDBRANCH   4  23
ENDBRANCH   1   4
BRANCH   1  25
ATOM     25  C   UNL     1      -6.555  15.773  28.074  0.00  0.00    +0.141 C 
BRANCH  25  28
ATOM     26  C   UNL     1      -7.123  15.313  25.714  0.00  0.00    +0.401 C 
ATOM     27  O   UNL     1      -6.270  14.433  25.582  0.00  0.00    -0.226 OA
ATOM     28  N   UNL     1      -7.322  15.996  26.842  0.00  0.00    -0.279 N 
ATOM     29  H   UNL     1      -8.041  16.706  26.850  0.00  0.00    +0.152 HD
BRANCH  26  30
ATOM     30  O   UNL     1      -7.960  15.641  24.602  0.00  0.00    -0.444 OA
BRANCH  30  31
ATOM     31  C   UNL     1      -7.796  17.023  24.272  0.00  0.00    +0.292 C 
BRANCH  31  33
ATOM     32  N   UNL     1      -6.018  16.375  22.665  0.00  0.00    -0.131 NA
ATOM     33  C   UNL     1      -6.501  17.251  23.601  0.00  0.00    +0.120 A 
ATOM     34  C   UNL     1      -5.642  18.324  23.699  0.00  0.00    +0.137 A 
ATOM     35  N   UNL     1      -4.764  18.126  22.670  0.00  0.00    -0.251 N 
ATOM     36  N   UNL     1      -4.936  16.911  22.117  0.00  0.00    -0.065 NA
BRANCH  35  37
ATOM     37  C   UNL     1      -3.994  19.139  21.976  0.00  0.00    +0.149 C 
BRANCH  37  38
ATOM     38  C   UNL     1      -2.938  18.609  20.983  0.00  0.00    +0.021 C 
BRANCH  38  39
ATOM     39  C   UNL     1      -1.715  17.968  21.670  0.00  0.00    +0.125 C 
BRANCH  39  40
ATOM     40  C   UNL     1      -1.357  16.585  21.167  0.00  0.00    +0.305 C 
ATOM     41  O   UNL     1      -0.565  16.352  20.267  0.00  0.00    -0.251 OA
BRANCH  40  42
ATOM     42  O   UNL     1      -1.956  15.600  21.862  0.00  0.00    -0.481 OA
ATOM     43  H   UNL     1      -2.389  14.912  21.325  0.00  0.00    +0.295 HD
ENDBRANCH  40  42
ENDBRANCH  39  40
ENDBRANCH  38  39
BRANCH  38  44
ATOM     44  C   UNL     1      -2.552  19.748  19.994  0.00  0.00    +0.009 C 
BRANCH  44  45
ATOM     45  C   UNL     1      -3.726  20.566  19.416  0.00  0.00    -0.017 C 
ATOM     46  C   UNL     1      -3.252  21.661  18.457  0.00  0.00    +0.007 C 
ATOM     47  C   UNL     1      -4.710  19.650  18.680  0.00  0.00    +0.007 C 
ENDBRANCH  44  45
ENDBRANCH  38  44
ENDBRANCH  37  38
ENDBRANCH  35  37
ENDBRANCH  31  33
ENDBRANCH  30  31
ENDBRANCH  26  30
ENDBRANCH  25  28
ENDBRANCH   1  25
TORSDOF 20
