REMARK VINA RESULT:    -6.203      3.528      4.916
REMARK INTER + INTRA:         -15.455
REMARK INTER:                 -13.003
REMARK INTRA:                  -2.452
REMARK UNBOUND:                -3.269
REMARK  Name = lig_assembled_84.pdb
REMARK  21 active torsions:
REMARK  status: ('A' for Active; 'I' for Inactive)
REMARK    1  A    between atoms: _2  and  _11
REMARK    2  A    between atoms: _3  and  _14
REMARK    3  A    between atoms: _4  and  _17
REMARK    4  A    between atoms: _6  and  _28
REMARK    5  A    between atoms: _8  and  _9
REMARK    6  A    between atoms: _8  and  _28
REMARK    7  A    between atoms: _11  and  _12
REMARK    8  A    between atoms: _12  and  _13
REMARK    9  A    between atoms: _12  and  _14
REMARK   10  A    between atoms: _24  and  _44
REMARK   11  A    between atoms: _26  and  _32
REMARK   12  A    between atoms: _27  and  _31
REMARK   13  A    between atoms: _31  and  _32
REMARK   14  A    between atoms: _34  and  _35
REMARK   15  A    between atoms: _36  and  _37
REMARK   16  A    between atoms: _38  and  _40
REMARK   17  A    between atoms: _40  and  _41
REMARK   18  A    between atoms: _40  and  _42
REMARK   19  A    between atoms: _42  and  _43
REMARK   20  A    between atoms: _42  and  _44
REMARK   21  A    between atoms: _45  and  _47
REMARK                            x       y       z     vdW  Elec       q    Type
REMARK                         _______ _______ _______ _____ _____    ______ ____
ROOT
ATOM      1  C   UNL     1       5.060   1.058  32.066  0.00  0.00    +0.401 C 
ATOM      2  O   UNL     1       4.353   0.569  32.950  0.00  0.00    -0.226 OA
ATOM      3  N   UNL     1       5.398   2.347  32.009  0.00  0.00    -0.279 N 
ATOM      4  H   UNL     1       5.991   2.652  31.250  0.00  0.00    +0.152 HD
ENDROOT
BRANCH   1   5
ATOM      5  O   UNL     1       5.565   0.209  31.032  0.00  0.00    -0.444 OA
BRANCH   5   6
ATOM      6  C   UNL     1       5.987  -1.034  31.597  0.00  0.00    +0.292 C 
BRANCH   6   8
ATOM      7  N   UNL     1       7.396  -2.941  30.871  0.00  0.00    -0.131 NA
ATOM      8  C   UNL     1       6.531  -1.925  30.555  0.00  0.00    +0.120 A 
ATOM      9  C   UNL     1       6.339  -1.907  29.191  0.00  0.00    +0.137 A 
ATOM     10  N   UNL     1       7.164  -2.889  28.731  0.00  0.00    -0.251 N 
ATOM     11  N   UNL     1       7.780  -3.524  29.743  0.00  0.00    -0.065 NA
BRANCH  10  12
ATOM     12  C   UNL     1       7.514  -3.180  27.353  0.00  0.00    +0.149 C 
BRANCH  12  13
ATOM     13  C   UNL     1       6.689  -2.405  26.313  0.00  0.00    +0.021 C 
ATOM     14  C   UNL     1       7.528  -2.075  25.070  0.00  0.00    +0.010 C 
BRANCH  13  15
ATOM     15  C   UNL     1       5.441  -3.210  25.873  0.00  0.00    +0.089 C 
BRANCH  15  16
ATOM     16  N   UNL     1       4.217  -2.424  25.667  0.00  0.00    -0.299 NA
ATOM     17  C   UNL     1       4.111  -2.014  24.241  0.00  0.00    +0.103 C 
ATOM     18  C   UNL     1       2.795  -1.258  23.961  0.00  0.00    +0.120 C 
ATOM     19  N   UNL     1       2.712  -0.074  24.824  0.00  0.00    -0.327 N 
ATOM     20  C   UNL     1       2.864  -0.359  26.259  0.00  0.00    +0.120 C 
ATOM     21  C   UNL     1       4.151  -1.199  26.504  0.00  0.00    +0.103 C 
BRANCH  19  22
ATOM     22  C   UNL     1       2.459   1.186  24.334  0.00  0.00    +0.030 A 
ATOM     23  C   UNL     1       2.497   2.318  25.169  0.00  0.00    +0.024 A 
ATOM     24  C   UNL     1       2.218   3.604  24.694  0.00  0.00    +0.022 A 
ATOM     25  C   UNL     1       1.898   3.785  23.358  0.00  0.00    +0.041 A 
ATOM     26 CL   UNL     1       1.548   5.363  22.767  0.00  0.00    -0.084 Cl
ATOM     27  C   UNL     1       1.853   2.694  22.499  0.00  0.00    +0.022 A 
ATOM     28  C   UNL     1       2.129   1.410  22.989  0.00  0.00    +0.024 A 
ENDBRANCH  19  22
ENDBRANCH  15  16
ENDBRANCH  13  15
ENDBRANCH  12  13
ENDBRANCH  10  12
ENDBRANCH   6   8
ENDBRANCH   5   6
ENDBRANCH   1   5
BRANCH   3  29
ATOM     29  C   UNL     1       4.955   3.348  32.987  0.00  0.00    +0.141 C 
BRANCH  29  30
ATOM     30  C   UNL     1       5.917   3.455  34.166  0.00  0.00    +0.163 C 
BRANCH  30  31
ATOM     31  O   UNL     1       5.724   2.346  35.059  0.00  0.00    -0.388 OA
ATOM     32  H   UNL     1       4.785   2.223  35.219  0.00  0.00    +0.210 HD
ENDBRANCH  30  31
BRANCH  30  33
ATOM     33  C   UNL     1       7.364   3.498  33.646  0.00  0.00    +0.175 C 
BRANCH  33  34
ATOM     34  C   UNL     1       8.374   3.773  34.771  0.00  0.00    +0.176 C 
ATOM     35  O   UNL     1       8.668   2.508  35.426  0.00  0.00    -0.332 OA
ATOM     36  C   UNL     1       9.701   2.558  36.465  0.00  0.00    +0.277 C 
ATOM     37  C   UNL     1       9.348   3.629  37.527  0.00  0.00    +0.110 C 
ATOM     38  C   UNL     1       8.997   4.983  36.876  0.00  0.00    +0.143 C 
ATOM     39  C   UNL     1       7.915   4.814  35.809  0.00  0.00    +0.133 C 
BRANCH  39  40
ATOM     40  N   UNL     1       7.651   6.095  35.136  0.00  0.00    -0.308 N 
ATOM     41  H   UNL     1       8.361   6.458  34.516  0.00  0.00    +0.149 HD
ATOM     42  C   UNL     1       6.533   6.810  35.290  0.00  0.00    +0.210 C 
ATOM     43  C   UNL     1       5.480   6.243  36.261  0.00  0.00    +0.109 C 
ATOM     44  O   UNL     1       6.332   7.873  34.702  0.00  0.00    -0.276 OA
ENDBRANCH  39  40
BRANCH  36  45
ATOM     45  C   UNL     1      11.080   2.877  35.851  0.00  0.00    +0.414 C 
ATOM     46  O   UNL     1      11.340   2.533  34.698  0.00  0.00    -0.240 OA
ATOM     47  O   UNL     1      11.932   3.477  36.507  0.00  0.00    -0.240 OA
ENDBRANCH  36  45
BRANCH  36  48
ATOM     48  O   UNL     1       9.744   1.263  37.118  0.00  0.00    -0.343 OA
ATOM     49  C   UNL     1       9.494   0.131  36.247  0.00  0.00    +0.198 C 
ENDBRANCH  36  48
BRANCH  38  50
ATOM     50  O   UNL     1       8.533   5.892  37.876  0.00  0.00    -0.390 OA
ATOM     51  H   UNL     1       9.114   6.656  37.908  0.00  0.00    +0.210 HD
ENDBRANCH  38  50
ENDBRANCH  33  34
BRANCH  33  52
ATOM     52  O   UNL     1       7.491   4.493  32.611  0.00  0.00    -0.387 OA
ATOM     53  H   UNL     1       6.744   4.429  32.012  0.00  0.00    +0.210 HD
ENDBRANCH  33  52
ENDBRANCH  30  33
ENDBRANCH  29  30
ENDBRANCH   3  29
TORSDOF 18
