REMARK VINA RESULT:    -6.363      4.359      7.133
REMARK INTER + INTRA:         -13.260
REMARK INTER:                 -11.142
REMARK INTRA:                  -2.118
REMARK UNBOUND:                -1.875
REMARK  Name = lig_assembled_82.pdb
REMARK  19 active torsions:
REMARK  status: ('A' for Active; 'I' for Inactive)
REMARK    1  A    between atoms: _2  and  _9
REMARK    2  A    between atoms: _4  and  _22
REMARK    3  A    between atoms: _5  and  _16
REMARK    4  A    between atoms: _6  and  _7
REMARK    5  A    between atoms: _6  and  _22
REMARK    6  A    between atoms: _9  and  _10
REMARK    7  A    between atoms: _16  and  _17
REMARK    8  A    between atoms: _18  and  _38
REMARK    9  A    between atoms: _20  and  _26
REMARK   10  A    between atoms: _21  and  _25
REMARK   11  A    between atoms: _25  and  _26
REMARK   12  A    between atoms: _28  and  _29
REMARK   13  A    between atoms: _30  and  _31
REMARK   14  A    between atoms: _32  and  _34
REMARK   15  A    between atoms: _34  and  _35
REMARK   16  A    between atoms: _34  and  _36
REMARK   17  A    between atoms: _36  and  _37
REMARK   18  A    between atoms: _36  and  _38
REMARK   19  A    between atoms: _39  and  _41
REMARK                            x       y       z     vdW  Elec       q    Type
REMARK                         _______ _______ _______ _____ _____    ______ ____
ROOT
ATOM      1  C   UNL     1       7.842   2.409  34.166  0.00  0.00    +0.163 C 
ENDROOT
BRANCH   1   2
ATOM      2  O   UNL     1       8.716   2.570  35.295  0.00  0.00    -0.388 OA
ATOM      3  H   UNL     1       8.416   2.010  36.015  0.00  0.00    +0.210 HD
ENDBRANCH   1   2
BRANCH   1   4
ATOM      4  C   UNL     1       8.293   1.222  33.322  0.00  0.00    +0.141 C 
BRANCH   4   7
ATOM      5  C   UNL     1       7.086  -0.729  32.404  0.00  0.00    +0.401 C 
ATOM      6  O   UNL     1       7.951  -1.541  32.741  0.00  0.00    -0.226 OA
ATOM      7  N   UNL     1       7.167   0.582  32.630  0.00  0.00    -0.279 N 
ATOM      8  H   UNL     1       6.411   1.170  32.307  0.00  0.00    +0.152 HD
BRANCH   5   9
ATOM      9  O   UNL     1       5.919  -1.199  31.725  0.00  0.00    -0.444 OA
BRANCH   9  10
ATOM     10  C   UNL     1       6.112  -2.560  31.328  0.00  0.00    +0.292 C 
BRANCH  10  12
ATOM     11  N   UNL     1       5.873  -3.937  29.287  0.00  0.00    -0.131 NA
ATOM     12  C   UNL     1       6.007  -2.701  29.873  0.00  0.00    +0.120 A 
ATOM     13  C   UNL     1       6.028  -1.743  28.874  0.00  0.00    +0.137 A 
ATOM     14  N   UNL     1       6.035  -2.469  27.716  0.00  0.00    -0.247 N 
ATOM     15  N   UNL     1       5.851  -3.778  27.971  0.00  0.00    -0.065 NA
BRANCH  14  16
ATOM     16  C   UNL     1       6.300  -2.006  26.352  0.00  0.00    +0.176 C 
BRANCH  16  17
ATOM     17  C   UNL     1       5.039  -1.842  25.540  0.00  0.00    -0.049 C 
ATOM     18  C   UNL     1       3.848  -1.239  26.216  0.00  0.00    +0.023 C 
ATOM     19  C   UNL     1       2.894  -0.284  25.366  0.00  0.00    -0.025 C 
ATOM     20  C   UNL     1       3.201   0.689  24.221  0.00  0.00    +0.012 C 
ATOM     21  C   UNL     1       2.407  -1.681  24.757  0.00  0.00    -0.000 C 
ATOM     22  C   UNL     1       3.395  -2.328  23.736  0.00  0.00    +0.031 C 
ATOM     23  C   UNL     1       2.146   0.544  26.440  0.00  0.00    +0.012 C 
ATOM     24  C   UNL     1       2.649  -2.270  26.172  0.00  0.00    +0.012 C 
ATOM     25  C   UNL     1       4.803  -2.341  24.311  0.00  0.00    -0.025 C 
ENDBRANCH  16  17
ENDBRANCH  14  16
ENDBRANCH  10  12
ENDBRANCH   9  10
ENDBRANCH   5   9
ENDBRANCH   4   7
ENDBRANCH   1   4
BRANCH   1  26
ATOM     26  C   UNL     1       7.825   3.679  33.298  0.00  0.00    +0.175 C 
BRANCH  26  27
ATOM     27  C   UNL     1       6.969   4.793  33.920  0.00  0.00    +0.176 C 
ATOM     28  O   UNL     1       7.719   5.371  35.023  0.00  0.00    -0.332 OA
ATOM     29  C   UNL     1       7.098   6.528  35.675  0.00  0.00    +0.277 C 
ATOM     30  C   UNL     1       5.664   6.180  36.143  0.00  0.00    +0.110 C 
ATOM     31  C   UNL     1       4.837   5.533  35.012  0.00  0.00    +0.143 C 
ATOM     32  C   UNL     1       5.577   4.342  34.403  0.00  0.00    +0.133 C 
BRANCH  32  33
ATOM     33  N   UNL     1       4.819   3.788  33.270  0.00  0.00    -0.308 N 
ATOM     34  H   UNL     1       4.755   4.344  32.429  0.00  0.00    +0.149 HD
ATOM     35  C   UNL     1       4.211   2.599  33.281  0.00  0.00    +0.210 C 
ATOM     36  C   UNL     1       4.305   1.788  34.587  0.00  0.00    +0.109 C 
ATOM     37  O   UNL     1       3.595   2.154  32.312  0.00  0.00    -0.276 OA
ENDBRANCH  32  33
BRANCH  29  38
ATOM     38  C   UNL     1       7.049   7.735  34.715  0.00  0.00    +0.414 C 
ATOM     39  O   UNL     1       5.967   8.195  34.353  0.00  0.00    -0.240 OA
ATOM     40  O   UNL     1       8.090   8.248  34.303  0.00  0.00    -0.240 OA
ENDBRANCH  29  38
BRANCH  29  41
ATOM     41  O   UNL     1       7.891   6.864  36.842  0.00  0.00    -0.343 OA
ATOM     42  C   UNL     1       9.095   6.074  37.013  0.00  0.00    +0.198 C 
ENDBRANCH  29  41
BRANCH  31  43
ATOM     43  O   UNL     1       3.579   5.092  35.526  0.00  0.00    -0.390 OA
ATOM     44  H   UNL     1       3.189   4.458  34.920  0.00  0.00    +0.210 HD
ENDBRANCH  31  43
ENDBRANCH  26  27
BRANCH  26  45
ATOM     45  O   UNL     1       7.350   3.369  31.973  0.00  0.00    -0.387 OA
ATOM     46  H   UNL     1       8.086   3.385  31.357  0.00  0.00    +0.210 HD
ENDBRANCH  26  45
ENDBRANCH   1  26
TORSDOF 15
