REMARK VINA RESULT:    -6.243      2.052      3.913
REMARK INTER + INTRA:         -15.945
REMARK INTER:                 -13.096
REMARK INTRA:                  -2.850
REMARK UNBOUND:                -3.133
REMARK  Name = lig_assembled_90.pdb
REMARK  22 active torsions:
REMARK  status: ('A' for Active; 'I' for Inactive)
REMARK    1  A    between atoms: _2  and  _13
REMARK    2  A    between atoms: _3  and  _15
REMARK    3  A    between atoms: _4  and  _17
REMARK    4  A    between atoms: _8  and  _28
REMARK    5  A    between atoms: _10  and  _11
REMARK    6  A    between atoms: _10  and  _28
REMARK    7  A    between atoms: _13  and  _14
REMARK    8  A    between atoms: _15  and  _16
REMARK    9  A    between atoms: _16  and  _17
REMARK   10  A    between atoms: _16  and  _22
REMARK   11  A    between atoms: _24  and  _44
REMARK   12  A    between atoms: _26  and  _32
REMARK   13  A    between atoms: _27  and  _31
REMARK   14  A    between atoms: _31  and  _32
REMARK   15  A    between atoms: _34  and  _35
REMARK   16  A    between atoms: _36  and  _37
REMARK   17  A    between atoms: _38  and  _40
REMARK   18  A    between atoms: _40  and  _41
REMARK   19  A    between atoms: _40  and  _42
REMARK   20  A    between atoms: _42  and  _43
REMARK   21  A    between atoms: _42  and  _44
REMARK   22  A    between atoms: _45  and  _47
REMARK                            x       y       z     vdW  Elec       q    Type
REMARK                         _______ _______ _______ _____ _____    ______ ____
ROOT
ATOM      1  C   UNL     1      18.415   6.255  24.406  0.00  0.00    +0.401 C 
ATOM      2  O   UNL     1      18.402   6.629  23.231  0.00  0.00    -0.226 OA
ATOM      3  N   UNL     1      18.656   5.000  24.787  0.00  0.00    -0.279 N 
ATOM      4  H   UNL     1      18.655   4.793  25.776  0.00  0.00    +0.152 HD
ENDROOT
BRANCH   3   5
ATOM      5  C   UNL     1      18.924   3.902  23.850  0.00  0.00    +0.141 C 
BRANCH   5   6
ATOM      6  C   UNL     1      18.946   2.548  24.552  0.00  0.00    +0.163 C 
BRANCH   6   7
ATOM      7  O   UNL     1      19.608   2.664  25.822  0.00  0.00    -0.388 OA
ATOM      8  H   UNL     1      19.575   3.576  26.119  0.00  0.00    +0.210 HD
ENDBRANCH   6   7
BRANCH   6   9
ATOM      9  C   UNL     1      17.506   2.036  24.727  0.00  0.00    +0.175 C 
BRANCH   9  10
ATOM     10  C   UNL     1      17.410   0.512  24.562  0.00  0.00    +0.176 C 
ATOM     11  O   UNL     1      18.000  -0.103  25.741  0.00  0.00    -0.332 OA
ATOM     12  C   UNL     1      17.903  -1.564  25.809  0.00  0.00    +0.277 C 
ATOM     13  C   UNL     1      18.497  -2.206  24.531  0.00  0.00    +0.110 C 
ATOM     14  C   UNL     1      17.924  -1.562  23.251  0.00  0.00    +0.143 C 
ATOM     15  C   UNL     1      18.074  -0.041  23.287  0.00  0.00    +0.133 C 
BRANCH  15  16
ATOM     16  N   UNL     1      17.446   0.567  22.103  0.00  0.00    -0.308 N 
ATOM     17  H   UNL     1      16.437   0.575  22.057  0.00  0.00    +0.149 HD
ATOM     18  C   UNL     1      18.123   1.107  21.086  0.00  0.00    +0.210 C 
ATOM     19  C   UNL     1      19.660   1.055  21.175  0.00  0.00    +0.109 C 
ATOM     20  O   UNL     1      17.570   1.623  20.114  0.00  0.00    -0.276 OA
ENDBRANCH  15  16
BRANCH  12  21
ATOM     21  C   UNL     1      16.435  -2.008  25.974  0.00  0.00    +0.414 C 
ATOM     22  O   UNL     1      15.810  -1.717  26.994  0.00  0.00    -0.240 OA
ATOM     23  O   UNL     1      15.875  -2.656  25.089  0.00  0.00    -0.240 OA
ENDBRANCH  12  21
BRANCH  14  24
ATOM     24  O   UNL     1      18.606  -2.076  22.107  0.00  0.00    -0.390 OA
ATOM     25  H   UNL     1      18.161  -2.868  21.797  0.00  0.00    +0.210 HD
ENDBRANCH  14  24
BRANCH  12  26
ATOM     26  O   UNL     1      18.680  -2.012  26.950  0.00  0.00    -0.343 OA
ATOM     27  C   UNL     1      19.189  -0.952  27.798  0.00  0.00    +0.198 C 
ENDBRANCH  12  26
ENDBRANCH   9  10
BRANCH   9  28
ATOM     28  O   UNL     1      16.628   2.693  23.790  0.00  0.00    -0.387 OA
ATOM     29  H   UNL     1      17.113   3.378  23.324  0.00  0.00    +0.210 HD
ENDBRANCH   9  28
ENDBRANCH   6   9
ENDBRANCH   5   6
ENDBRANCH   3   5
BRANCH   1  30
ATOM     30  O   UNL     1      18.162   7.209  25.441  0.00  0.00    -0.444 OA
BRANCH  30  31
ATOM     31  C   UNL     1      19.386   7.521  26.112  0.00  0.00    +0.292 C 
BRANCH  31  33
ATOM     32  N   UNL     1      18.246   9.579  26.897  0.00  0.00    -0.131 NA
ATOM     33  C   UNL     1      19.400   8.937  26.527  0.00  0.00    +0.120 A 
ATOM     34  C   UNL     1      20.453   9.818  26.619  0.00  0.00    +0.137 A 
ATOM     35  N   UNL     1      19.882  10.970  27.070  0.00  0.00    -0.242 N 
ATOM     36  N   UNL     1      18.552  10.830  27.218  0.00  0.00    -0.065 NA
BRANCH  35  37
ATOM     37  C   UNL     1      20.504  12.255  27.278  0.00  0.00    +0.240 C 
BRANCH  37  38
ATOM     38  C   UNL     1      20.806  12.491  28.739  0.00  0.00    +0.235 C 
ATOM     39  O   UNL     1      21.632  13.320  29.121  0.00  0.00    -0.274 OA
ATOM     40  N   UNL     1      20.047  11.750  29.625  0.00  0.00    -0.311 N 
ATOM     41  H   UNL     1      19.591  10.905  29.288  0.00  0.00    +0.149 HD
BRANCH  40  42
ATOM     42  C   UNL     1      20.301  11.824  31.058  0.00  0.00    +0.137 C 
BRANCH  42  43
ATOM     43  C   UNL     1      19.155  11.189  31.859  0.00  0.00    +0.151 C 
BRANCH  43  44
ATOM     44  O   UNL     1      18.428  12.231  32.523  0.00  0.00    -0.388 OA
ATOM     45  H   UNL     1      18.506  12.104  33.491  0.00  0.00    +0.210 HD
ENDBRANCH  43  44
BRANCH  43  46
ATOM     46  C   UNL     1      18.234  10.351  30.964  0.00  0.00    +0.162 C 
BRANCH  46  47
ATOM     47  N   UNL     1      17.948   9.040  31.532  0.00  0.00    -0.269 N 
ATOM     48  C   UNL     1      18.759   7.944  31.335  0.00  0.00    +0.113 A 
ATOM     49  C   UNL     1      18.141   6.901  31.982  0.00  0.00    +0.137 A 
ATOM     50  N   UNL     1      16.975   7.320  32.569  0.00  0.00    -0.172 NA
ATOM     51  C   UNL     1      16.889   8.611  32.293  0.00  0.00    +0.450 A 
ATOM     52  N   UNL     1      15.789   9.426  32.751  0.00  0.00    +0.120 N 
ATOM     53  O   UNL     1      15.849  10.645  32.537  0.00  0.00    +0.045 OA
ATOM     54  O   UNL     1      14.853   8.849  33.318  0.00  0.00    -0.573 OA
ENDBRANCH  46  47
ENDBRANCH  43  46
ENDBRANCH  42  43
ENDBRANCH  40  42
ENDBRANCH  37  38
ENDBRANCH  35  37
ENDBRANCH  31  33
ENDBRANCH  30  31
ENDBRANCH   1  30
TORSDOF 20
