REMARK VINA RESULT:    -6.291     22.043     23.910
REMARK INTER + INTRA:         -12.741
REMARK INTER:                  -9.940
REMARK INTRA:                  -2.801
REMARK UNBOUND:                -1.853
REMARK  Name = lig_assembled_86.pdb
REMARK  17 active torsions:
REMARK  status: ('A' for Active; 'I' for Inactive)
REMARK    1  A    between atoms: _2  and  _10
REMARK    2  A    between atoms: _3  and  _13
REMARK    3  A    between atoms: _5  and  _21
REMARK    4  A    between atoms: _7  and  _8
REMARK    5  A    between atoms: _7  and  _21
REMARK    6  A    between atoms: _17  and  _37
REMARK    7  A    between atoms: _19  and  _25
REMARK    8  A    between atoms: _20  and  _24
REMARK    9  A    between atoms: _24  and  _25
REMARK   10  A    between atoms: _27  and  _28
REMARK   11  A    between atoms: _29  and  _30
REMARK   12  A    between atoms: _31  and  _33
REMARK   13  A    between atoms: _33  and  _34
REMARK   14  A    between atoms: _33  and  _35
REMARK   15  A    between atoms: _35  and  _36
REMARK   16  A    between atoms: _35  and  _37
REMARK   17  A    between atoms: _38  and  _40
REMARK                            x       y       z     vdW  Elec       q    Type
REMARK                         _______ _______ _______ _____ _____    ______ ____
ROOT
ATOM      1  C   UNL     1      12.976  24.563  25.207  0.00  0.00    +0.163 C 
ENDROOT
BRANCH   1   2
ATOM      2  O   UNL     1      13.439  24.708  23.854  0.00  0.00    -0.388 OA
ATOM      3  H   UNL     1      12.775  24.368  23.250  0.00  0.00    +0.210 HD
ENDBRANCH   1   2
BRANCH   1   4
ATOM      4  C   UNL     1      14.147  24.236  26.127  0.00  0.00    +0.141 C 
BRANCH   4   7
ATOM      5  C   UNL     1      15.473  22.381  25.174  0.00  0.00    +0.401 C 
ATOM      6  O   UNL     1      14.714  21.501  25.586  0.00  0.00    -0.226 OA
ATOM      7  N   UNL     1      15.289  23.685  25.386  0.00  0.00    -0.279 N 
ATOM      8  H   UNL     1      15.972  24.330  25.015  0.00  0.00    +0.152 HD
BRANCH   5   9
ATOM      9  O   UNL     1      16.631  22.004  24.424  0.00  0.00    -0.444 OA
BRANCH   9  10
ATOM     10  C   UNL     1      16.896  22.993  23.425  0.00  0.00    +0.292 C 
BRANCH  10  12
ATOM     11  N   UNL     1      16.102  21.251  21.848  0.00  0.00    -0.131 NA
ATOM     12  C   UNL     1      16.331  22.573  22.129  0.00  0.00    +0.120 A 
ATOM     13  C   UNL     1      15.940  23.332  21.051  0.00  0.00    +0.137 A 
ATOM     14  N   UNL     1      15.450  22.422  20.165  0.00  0.00    -0.248 N 
ATOM     15  N   UNL     1      15.578  21.168  20.632  0.00  0.00    -0.065 NA
BRANCH  14  16
ATOM     16  C   UNL     1      14.845  22.689  18.869  0.00  0.00    +0.112 C 
ATOM     17  C   UNL     1      13.329  22.408  18.874  0.00  0.00    +0.045 C 
ATOM     18  C   UNL     1      12.474  23.502  18.226  0.00  0.00    +0.059 C 
ATOM     19  C   UNL     1      12.329  24.712  19.153  0.00  0.00    +0.020 C 
ATOM     20  C   UNL     1      13.447  25.660  18.728  0.00  0.00    +0.020 C 
ATOM     21  C   UNL     1      14.208  24.893  17.644  0.00  0.00    +0.059 C 
ATOM     22  N   UNL     1      13.119  24.107  17.062  0.00  0.00    -0.299 NA
ATOM     23  C   UNL     1      13.476  23.217  15.973  0.00  0.00    +0.105 C 
ATOM     24  C   UNL     1      15.319  24.024  18.249  0.00  0.00    +0.045 C 
ENDBRANCH  14  16
ENDBRANCH  10  12
ENDBRANCH   9  10
ENDBRANCH   5   9
ENDBRANCH   4   7
ENDBRANCH   1   4
BRANCH   1  25
ATOM     25  C   UNL     1      11.916  23.453  25.310  0.00  0.00    +0.175 C 
BRANCH  25  26
ATOM     26  C   UNL     1      10.487  24.011  25.236  0.00  0.00    +0.176 C 
ATOM     27  O   UNL     1      10.254  24.465  23.874  0.00  0.00    -0.332 OA
ATOM     28  C   UNL     1       8.895  24.936  23.587  0.00  0.00    +0.277 C 
ATOM     29  C   UNL     1       8.484  26.045  24.586  0.00  0.00    +0.110 C 
ATOM     30  C   UNL     1       8.744  25.620  26.047  0.00  0.00    +0.143 C 
ATOM     31  C   UNL     1      10.185  25.146  26.232  0.00  0.00    +0.133 C 
BRANCH  31  32
ATOM     32  N   UNL     1      10.396  24.662  27.606  0.00  0.00    -0.308 N 
ATOM     33  H   UNL     1       9.926  23.812  27.884  0.00  0.00    +0.149 HD
ATOM     34  C   UNL     1      11.166  25.274  28.510  0.00  0.00    +0.210 C 
ATOM     35  C   UNL     1      11.847  26.581  28.064  0.00  0.00    +0.109 C 
ATOM     36  O   UNL     1      11.336  24.838  29.649  0.00  0.00    -0.276 OA
ENDBRANCH  31  32
BRANCH  28  37
ATOM     37  C   UNL     1       7.885  23.772  23.664  0.00  0.00    +0.414 C 
ATOM     38  O   UNL     1       8.140  22.693  23.130  0.00  0.00    -0.240 OA
ATOM     39  O   UNL     1       6.816  23.912  24.260  0.00  0.00    -0.240 OA
ENDBRANCH  28  37
BRANCH  30  40
ATOM     40  O   UNL     1       8.495  26.722  26.920  0.00  0.00    -0.390 OA
ATOM     41  H   UNL     1       9.305  26.958  27.378  0.00  0.00    +0.210 HD
ENDBRANCH  30  40
BRANCH  28  42
ATOM     42  O   UNL     1       8.890  25.500  22.250  0.00  0.00    -0.343 OA
ATOM     43  C   UNL     1      10.124  26.150  21.854  0.00  0.00    +0.198 C 
ENDBRANCH  28  42
ENDBRANCH  25  26
BRANCH  25  44
ATOM     44  O   UNL     1      12.095  22.707  26.530  0.00  0.00    -0.387 OA
ATOM     45  H   UNL     1      13.030  22.534  26.665  0.00  0.00    +0.210 HD
ENDBRANCH  25  44
ENDBRANCH   1  25
TORSDOF 14
