REMARK VINA RESULT:    -6.181     14.856     17.295
REMARK INTER + INTRA:         -13.031
REMARK INTER:                 -10.551
REMARK INTRA:                  -2.480
REMARK UNBOUND:                -2.334
REMARK  Name = lig_assembled_15.pdb
REMARK  16 active torsions:
REMARK  status: ('A' for Active; 'I' for Inactive)
REMARK    1  A    between atoms: _2  and  _9
REMARK    2  A    between atoms: _4  and  _18
REMARK    3  A    between atoms: _6  and  _7
REMARK    4  A    between atoms: _6  and  _18
REMARK    5  A    between atoms: _14  and  _34
REMARK    6  A    between atoms: _16  and  _22
REMARK    7  A    between atoms: _17  and  _21
REMARK    8  A    between atoms: _21  and  _22
REMARK    9  A    between atoms: _24  and  _25
REMARK   10  A    between atoms: _26  and  _27
REMARK   11  A    between atoms: _28  and  _30
REMARK   12  A    between atoms: _30  and  _31
REMARK   13  A    between atoms: _30  and  _32
REMARK   14  A    between atoms: _32  and  _33
REMARK   15  A    between atoms: _32  and  _34
REMARK   16  A    between atoms: _35  and  _37
REMARK                            x       y       z     vdW  Elec       q    Type
REMARK                         _______ _______ _______ _____ _____    ______ ____
ROOT
ATOM      1  C   UNL     1      18.658   1.997  22.596  0.00  0.00    +0.163 C 
ENDROOT
BRANCH   1   2
ATOM      2  O   UNL     1      19.922   2.607  22.907  0.00  0.00    -0.388 OA
ATOM      3  H   UNL     1      19.893   3.539  22.676  0.00  0.00    +0.210 HD
ENDBRANCH   1   2
BRANCH   1   4
ATOM      4  C   UNL     1      17.518   2.925  23.001  0.00  0.00    +0.141 C 
BRANCH   4   7
ATOM      5  C   UNL     1      17.573   5.394  22.913  0.00  0.00    +0.401 C 
ATOM      6  O   UNL     1      16.724   5.475  22.022  0.00  0.00    -0.226 OA
ATOM      7  N   UNL     1      18.008   4.242  23.425  0.00  0.00    -0.279 N 
ATOM      8  H   UNL     1      18.714   4.278  24.147  0.00  0.00    +0.152 HD
BRANCH   5   9
ATOM      9  O   UNL     1      18.144   6.595  23.440  0.00  0.00    -0.444 OA
BRANCH   9  10
ATOM     10  C   UNL     1      19.464   6.326  23.919  0.00  0.00    +0.292 C 
BRANCH  10  12
ATOM     11  N   UNL     1      20.930   7.426  25.582  0.00  0.00    -0.131 NA
ATOM     12  C   UNL     1      19.687   7.003  25.211  0.00  0.00    +0.121 A 
ATOM     13  C   UNL     1      18.789   7.326  26.204  0.00  0.00    +0.143 A 
ATOM     14  N   UNL     1      19.535   7.979  27.158  0.00  0.00    -0.220 N 
ATOM     15  N   UNL     1      20.832   8.012  26.767  0.00  0.00    -0.060 NA
BRANCH  14  16
ATOM     16  C   UNL     1      19.097   8.580  28.368  0.00  0.00    +0.067 A 
ATOM     17  C   UNL     1      18.955   7.822  29.539  0.00  0.00    +0.029 A 
ATOM     18  C   UNL     1      18.483   8.424  30.710  0.00  0.00    +0.017 A 
ATOM     19  C   UNL     1      18.158   9.779  30.714  0.00  0.00    +0.018 A 
ATOM     20 BR   UNL     1      17.495  10.578  32.294  0.00  0.00    -0.050 Br
ATOM     21  C   UNL     1      18.309  10.545  29.560  0.00  0.00    +0.017 A 
ATOM     22  C   UNL     1      18.781   9.949  28.387  0.00  0.00    +0.029 A 
ENDBRANCH  14  16
ENDBRANCH  10  12
ENDBRANCH   9  10
ENDBRANCH   5   9
ENDBRANCH   4   7
ENDBRANCH   1   4
BRANCH   1  23
ATOM     23  C   UNL     1      18.506   0.649  23.322  0.00  0.00    +0.175 C 
BRANCH  23  24
ATOM     24  C   UNL     1      18.116   0.827  24.796  0.00  0.00    +0.176 C 
ATOM     25  O   UNL     1      19.277   1.336  25.508  0.00  0.00    -0.332 OA
ATOM     26  C   UNL     1      19.061   1.669  26.919  0.00  0.00    +0.277 C 
ATOM     27  C   UNL     1      18.473   0.454  27.678  0.00  0.00    +0.110 C 
ATOM     28  C   UNL     1      17.254  -0.141  26.942  0.00  0.00    +0.143 C 
ATOM     29  C   UNL     1      17.590  -0.448  25.482  0.00  0.00    +0.133 C 
BRANCH  29  30
ATOM     30  N   UNL     1      16.397  -0.933  24.770  0.00  0.00    -0.308 N 
ATOM     31  H   UNL     1      15.603  -0.312  24.703  0.00  0.00    +0.149 HD
ATOM     32  C   UNL     1      16.296  -2.140  24.208  0.00  0.00    +0.210 C 
ATOM     33  C   UNL     1      17.514  -3.072  24.351  0.00  0.00    +0.109 C 
ATOM     34  O   UNL     1      15.289  -2.514  23.605  0.00  0.00    -0.276 OA
ENDBRANCH  29  30
BRANCH  26  35
ATOM     35  C   UNL     1      18.106   2.874  27.056  0.00  0.00    +0.414 C 
ATOM     36  O   UNL     1      17.158   2.827  27.839  0.00  0.00    -0.240 OA
ATOM     37  O   UNL     1      18.284   3.891  26.385  0.00  0.00    -0.240 OA
ENDBRANCH  26  35
BRANCH  28  38
ATOM     38  O   UNL     1      16.840  -1.344  27.592  0.00  0.00    -0.390 OA
ATOM     39  H   UNL     1      16.250  -1.834  27.014  0.00  0.00    +0.210 HD
ENDBRANCH  28  38
BRANCH  26  40
ATOM     40  O   UNL     1      20.347   1.997  27.505  0.00  0.00    -0.343 OA
ATOM     41  C   UNL     1      20.476   1.680  28.914  0.00  0.00    +0.198 C 
ENDBRANCH  26  40
ENDBRANCH  23  24
BRANCH  23  42
ATOM     42  O   UNL     1      19.726  -0.111  23.219  0.00  0.00    -0.387 OA
ATOM     43  H   UNL     1      19.781  -0.512  22.348  0.00  0.00    +0.210 HD
ENDBRANCH  23  42
ENDBRANCH   1  23
TORSDOF 14
