REMARK VINA RESULT:    -6.461      3.981     11.531
REMARK INTER + INTRA:         -13.623
REMARK INTER:                 -11.463
REMARK INTRA:                  -2.160
REMARK UNBOUND:                -1.873
REMARK  Name = lig_assembled_60.pdb
REMARK  18 active torsions:
REMARK  status: ('A' for Active; 'I' for Inactive)
REMARK    1  A    between atoms: _2  and  _10
REMARK    2  A    between atoms: _3  and  _41
REMARK    3  A    between atoms: _5  and  _21
REMARK    4  A    between atoms: _7  and  _8
REMARK    5  A    between atoms: _7  and  _21
REMARK    6  A    between atoms: _13  and  _41
REMARK    7  A    between atoms: _17  and  _37
REMARK    8  A    between atoms: _19  and  _25
REMARK    9  A    between atoms: _20  and  _24
REMARK   10  A    between atoms: _24  and  _25
REMARK   11  A    between atoms: _27  and  _28
REMARK   12  A    between atoms: _29  and  _30
REMARK   13  A    between atoms: _31  and  _33
REMARK   14  A    between atoms: _33  and  _34
REMARK   15  A    between atoms: _33  and  _35
REMARK   16  A    between atoms: _35  and  _36
REMARK   17  A    between atoms: _35  and  _37
REMARK   18  A    between atoms: _38  and  _40
REMARK                            x       y       z     vdW  Elec       q    Type
REMARK                         _______ _______ _______ _____ _____    ______ ____
ROOT
ATOM      1  C   UNL     1      -3.082   3.884  27.075  0.00  0.00    +0.141 C 
ENDROOT
BRANCH   1   4
ATOM      2  C   UNL     1      -3.358   4.310  29.494  0.00  0.00    +0.401 C 
ATOM      3  O   UNL     1      -4.451   3.745  29.564  0.00  0.00    -0.226 OA
ATOM      4  N   UNL     1      -2.650   4.427  28.369  0.00  0.00    -0.279 N 
ATOM      5  H   UNL     1      -1.768   4.917  28.410  0.00  0.00    +0.152 HD
BRANCH   2   6
ATOM      6  O   UNL     1      -2.796   4.886  30.676  0.00  0.00    -0.444 OA
BRANCH   6   7
ATOM      7  C   UNL     1      -2.163   3.864  31.451  0.00  0.00    +0.292 C 
BRANCH   7   9
ATOM      8  N   UNL     1      -0.119   5.100  30.797  0.00  0.00    -0.131 NA
ATOM      9  C   UNL     1      -0.699   4.040  31.433  0.00  0.00    +0.121 A 
ATOM     10  C   UNL     1       0.285   3.267  32.005  0.00  0.00    +0.143 A 
ATOM     11  N   UNL     1       1.463   3.920  31.719  0.00  0.00    -0.220 N 
ATOM     12  N   UNL     1       1.193   5.015  30.966  0.00  0.00    -0.060 NA
BRANCH  11  13
ATOM     13  C   UNL     1       2.779   3.599  32.141  0.00  0.00    +0.067 A 
ATOM     14  C   UNL     1       3.271   4.071  33.368  0.00  0.00    +0.030 A 
ATOM     15  C   UNL     1       4.591   3.807  33.741  0.00  0.00    +0.030 A 
ATOM     16  C   UNL     1       5.415   3.059  32.896  0.00  0.00    +0.105 A 
ATOM     17  C   UNL     1       4.930   2.570  31.680  0.00  0.00    +0.030 A 
ATOM     18  C   UNL     1       3.610   2.834  31.306  0.00  0.00    +0.030 A 
BRANCH  16  19
ATOM     19  S   UNL     1       7.106   2.799  33.345  0.00  0.00    +0.056 S 
ATOM     20  O   UNL     1       7.225   2.810  34.784  0.00  0.00    -0.153 OA
ATOM     21  O   UNL     1       7.653   1.741  32.528  0.00  0.00    -0.153 OA
BRANCH  19  22
ATOM     22  N   UNL     1       7.822   4.217  32.808  0.00  0.00    -0.204 NA
ATOM     23  H   UNL     1       7.339   5.022  33.208  0.00  0.00    +0.144 HD
ATOM     24  H   UNL     1       7.857   4.222  31.788  0.00  0.00    +0.144 HD
ENDBRANCH  19  22
ENDBRANCH  16  19
ENDBRANCH  11  13
ENDBRANCH   7   9
ENDBRANCH   6   7
ENDBRANCH   2   6
ENDBRANCH   1   4
BRANCH   1  25
ATOM     25  C   UNL     1      -1.898   3.448  26.218  0.00  0.00    +0.163 C 
BRANCH  25  26
ATOM     26  O   UNL     1      -2.318   2.453  25.271  0.00  0.00    -0.388 OA
ATOM     27  H   UNL     1      -3.174   2.694  24.909  0.00  0.00    +0.210 HD
ENDBRANCH  25  26
BRANCH  25  28
ATOM     28  C   UNL     1      -1.304   4.673  25.502  0.00  0.00    +0.175 C 
BRANCH  28  29
ATOM     29  C   UNL     1      -0.206   4.281  24.502  0.00  0.00    +0.176 C 
ATOM     30  O   UNL     1      -0.852   3.729  23.322  0.00  0.00    -0.332 OA
ATOM     31  C   UNL     1       0.040   3.394  22.208  0.00  0.00    +0.277 C 
ATOM     32  C   UNL     1       1.164   2.441  22.684  0.00  0.00    +0.110 C 
ATOM     33  C   UNL     1       1.860   2.971  23.955  0.00  0.00    +0.143 C 
ATOM     34  C   UNL     1       0.839   3.290  25.047  0.00  0.00    +0.133 C 
BRANCH  34  35
ATOM     35  N   UNL     1       1.505   3.875  26.221  0.00  0.00    -0.308 N 
ATOM     36  H   UNL     1       1.848   4.823  26.146  0.00  0.00    +0.149 HD
ATOM     37  C   UNL     1       1.688   3.236  27.380  0.00  0.00    +0.210 C 
ATOM     38  C   UNL     1       1.178   1.784  27.454  0.00  0.00    +0.109 C 
ATOM     39  O   UNL     1       2.236   3.756  28.352  0.00  0.00    -0.276 OA
ENDBRANCH  34  35
BRANCH  31  40
ATOM     40  C   UNL     1       0.666   4.669  21.606  0.00  0.00    +0.414 C 
ATOM     41  O   UNL     1       1.712   4.602  20.962  0.00  0.00    -0.240 OA
ATOM     42  O   UNL     1       0.125   5.765  21.764  0.00  0.00    -0.240 OA
ENDBRANCH  31  40
BRANCH  33  43
ATOM     43  O   UNL     1       2.781   1.994  24.443  0.00  0.00    -0.390 OA
ATOM     44  H   UNL     1       2.372   1.126  24.415  0.00  0.00    +0.210 HD
ENDBRANCH  33  43
BRANCH  31  45
ATOM     45  O   UNL     1      -0.742   2.709  21.196  0.00  0.00    -0.343 OA
ATOM     46  C   UNL     1      -0.200   1.438  20.759  0.00  0.00    +0.198 C 
ENDBRANCH  31  45
ENDBRANCH  28  29
BRANCH  28  47
ATOM     47  O   UNL     1      -0.785   5.610  26.467  0.00  0.00    -0.387 OA
ATOM     48  H   UNL     1      -1.511   5.986  26.970  0.00  0.00    +0.210 HD
ENDBRANCH  28  47
ENDBRANCH  25  28
ENDBRANCH   1  25
TORSDOF 16
