REMARK VINA RESULT:    -6.799     13.889     18.272
REMARK INTER + INTRA:         -14.870
REMARK INTER:                 -12.739
REMARK INTRA:                  -2.131
REMARK UNBOUND:                -1.911
REMARK  Name = lig_assembled_26.pdb
REMARK  20 active torsions:
REMARK  status: ('A' for Active; 'I' for Inactive)
REMARK    1  A    between atoms: _2  and  _9
REMARK    2  A    between atoms: _4  and  _23
REMARK    3  A    between atoms: _6  and  _7
REMARK    4  A    between atoms: _6  and  _23
REMARK    5  A    between atoms: _9  and  _10
REMARK    6  A    between atoms: _9  and  _11
REMARK    7  A    between atoms: _11  and  _12
REMARK    8  A    between atoms: _12  and  _13
REMARK    9  A    between atoms: _19  and  _39
REMARK   10  A    between atoms: _21  and  _27
REMARK   11  A    between atoms: _22  and  _26
REMARK   12  A    between atoms: _26  and  _27
REMARK   13  A    between atoms: _29  and  _30
REMARK   14  A    between atoms: _31  and  _32
REMARK   15  A    between atoms: _33  and  _35
REMARK   16  A    between atoms: _35  and  _36
REMARK   17  A    between atoms: _35  and  _37
REMARK   18  A    between atoms: _37  and  _38
REMARK   19  A    between atoms: _37  and  _39
REMARK   20  A    between atoms: _40  and  _42
REMARK                            x       y       z     vdW  Elec       q    Type
REMARK                         _______ _______ _______ _____ _____    ______ ____
ROOT
ATOM      1  C   UNL     1      17.419   1.415  26.384  0.00  0.00    +0.163 C 
ENDROOT
BRANCH   1   2
ATOM      2  O   UNL     1      17.461   0.215  27.174  0.00  0.00    -0.388 OA
ATOM      3  H   UNL     1      17.401   0.442  28.105  0.00  0.00    +0.210 HD
ENDBRANCH   1   2
BRANCH   1   4
ATOM      4  C   UNL     1      16.776   1.147  25.012  0.00  0.00    +0.175 C 
BRANCH   4   5
ATOM      5  C   UNL     1      17.799   0.649  23.981  0.00  0.00    +0.176 C 
ATOM      6  O   UNL     1      17.689   1.489  22.799  0.00  0.00    -0.332 OA
ATOM      7  C   UNL     1      18.669   1.226  21.741  0.00  0.00    +0.277 C 
ATOM      8  C   UNL     1      18.632  -0.266  21.328  0.00  0.00    +0.110 C 
ATOM      9  C   UNL     1      18.715  -1.199  22.555  0.00  0.00    +0.143 C 
ATOM     10  C   UNL     1      17.653  -0.834  23.594  0.00  0.00    +0.133 C 
BRANCH  10  11
ATOM     11  N   UNL     1      17.797  -1.673  24.794  0.00  0.00    -0.308 N 
ATOM     12  H   UNL     1      18.639  -1.568  25.344  0.00  0.00    +0.149 HD
ATOM     13  C   UNL     1      16.890  -2.563  25.205  0.00  0.00    +0.210 C 
ATOM     14  C   UNL     1      15.631  -2.717  24.330  0.00  0.00    +0.109 C 
ATOM     15  O   UNL     1      17.031  -3.241  26.223  0.00  0.00    -0.276 OA
ENDBRANCH  10  11
BRANCH   7  16
ATOM     16  C   UNL     1      20.091   1.596  22.209  0.00  0.00    +0.414 C 
ATOM     17  O   UNL     1      20.252   2.347  23.170  0.00  0.00    -0.240 OA
ATOM     18  O   UNL     1      21.078   1.145  21.625  0.00  0.00    -0.240 OA
ENDBRANCH   7  16
BRANCH   7  19
ATOM     19  O   UNL     1      18.309   2.028  20.587  0.00  0.00    -0.343 OA
ATOM     20  C   UNL     1      17.030   1.701  19.988  0.00  0.00    +0.198 C 
ENDBRANCH   7  19
BRANCH   9  21
ATOM     21  O   UNL     1      18.525  -2.553  22.144  0.00  0.00    -0.390 OA
ATOM     22  H   UNL     1      19.300  -3.070  22.377  0.00  0.00    +0.210 HD
ENDBRANCH   9  21
ENDBRANCH   4   5
BRANCH   4  23
ATOM     23  O   UNL     1      16.124   2.339  24.528  0.00  0.00    -0.387 OA
ATOM     24  H   UNL     1      15.343   2.095  24.025  0.00  0.00    +0.210 HD
ENDBRANCH   4  23
ENDBRANCH   1   4
BRANCH   1  25
ATOM     25  C   UNL     1      16.628   2.494  27.115  0.00  0.00    +0.141 C 
BRANCH  25  28
ATOM     26  C   UNL     1      18.318   3.850  28.304  0.00  0.00    +0.401 C 
ATOM     27  O   UNL     1      18.562   2.981  29.144  0.00  0.00    -0.226 OA
ATOM     28  N   UNL     1      17.425   3.710  27.324  0.00  0.00    -0.279 N 
ATOM     29  H   UNL     1      17.288   4.484  26.688  0.00  0.00    +0.152 HD
BRANCH  26  30
ATOM     30  O   UNL     1      19.021   5.093  28.367  0.00  0.00    -0.444 OA
BRANCH  30  31
ATOM     31  C   UNL     1      19.251   5.581  27.042  0.00  0.00    +0.292 C 
BRANCH  31  33
ATOM     32  N   UNL     1      20.169   7.665  26.057  0.00  0.00    -0.131 NA
ATOM     33  C   UNL     1      19.486   7.035  27.063  0.00  0.00    +0.120 A 
ATOM     34  C   UNL     1      19.100   7.967  27.998  0.00  0.00    +0.137 A 
ATOM     35  N   UNL     1      19.600   9.143  27.524  0.00  0.00    -0.248 N 
ATOM     36  N   UNL     1      20.218   8.960  26.340  0.00  0.00    -0.065 NA
BRANCH  35  37
ATOM     37  C   UNL     1      19.482  10.486  28.072  0.00  0.00    +0.113 C 
ATOM     38  C   UNL     1      19.539  11.606  27.023  0.00  0.00    +0.033 C 
BRANCH  37  39
ATOM     39  C   UNL     1      18.269  10.642  29.007  0.00  0.00    +0.106 C 
BRANCH  39  40
ATOM     40  C   UNL     1      18.628  10.711  30.479  0.00  0.00    +0.165 C 
ATOM     41  O   UNL     1      19.673  11.222  30.878  0.00  0.00    -0.292 OA
BRANCH  40  42
ATOM     42  C   UNL     1      17.698  10.100  31.477  0.00  0.00    +0.017 A 
ATOM     43  C   UNL     1      16.915  10.871  32.344  0.00  0.00    +0.011 A 
ATOM     44  C   UNL     1      16.031  10.248  33.229  0.00  0.00    +0.001 A 
ATOM     45  C   UNL     1      15.931   8.857  33.258  0.00  0.00    +0.000 A 
ATOM     46  C   UNL     1      16.715   8.084  32.407  0.00  0.00    +0.001 A 
ATOM     47  C   UNL     1      17.596   8.702  31.519  0.00  0.00    +0.011 A 
ENDBRANCH  40  42
ENDBRANCH  39  40
ENDBRANCH  37  39
ENDBRANCH  35  37
ENDBRANCH  31  33
ENDBRANCH  30  31
ENDBRANCH  26  30
ENDBRANCH  25  28
ENDBRANCH   1  25
TORSDOF 17
