REMARK VINA RESULT:    -4.712     14.634     17.084
REMARK INTER + INTRA:         -13.158
REMARK INTER:                 -11.057
REMARK INTRA:                  -2.101
REMARK UNBOUND:                -4.177
REMARK  Name = lig_assembled_50.pdb
REMARK  20 active torsions:
REMARK  status: ('A' for Active; 'I' for Inactive)
REMARK    1  A    between atoms: _2  and  _9
REMARK    2  A    between atoms: _4  and  _17
REMARK    3  A    between atoms: _5  and  _10
REMARK    4  A    between atoms: _5  and  _11
REMARK    5  A    between atoms: _6  and  _7
REMARK    6  A    between atoms: _6  and  _17
REMARK    7  A    between atoms: _9  and  _10
REMARK    8  A    between atoms: _10  and  _12
REMARK    9  A    between atoms: _13  and  _33
REMARK   10  A    between atoms: _15  and  _21
REMARK   11  A    between atoms: _16  and  _20
REMARK   12  A    between atoms: _20  and  _21
REMARK   13  A    between atoms: _23  and  _24
REMARK   14  A    between atoms: _25  and  _26
REMARK   15  A    between atoms: _27  and  _29
REMARK   16  A    between atoms: _29  and  _30
REMARK   17  A    between atoms: _29  and  _31
REMARK   18  A    between atoms: _31  and  _32
REMARK   19  A    between atoms: _31  and  _33
REMARK   20  A    between atoms: _34  and  _36
REMARK                            x       y       z     vdW  Elec       q    Type
REMARK                         _______ _______ _______ _____ _____    ______ ____
ROOT
ATOM      1  C   UNL     1       3.091   2.886  32.798  0.00  0.00    +0.163 C 
ENDROOT
BRANCH   1   2
ATOM      2  O   UNL     1       3.805   2.129  31.807  0.00  0.00    -0.388 OA
ATOM      3  H   UNL     1       4.668   1.886  32.149  0.00  0.00    +0.210 HD
ENDBRANCH   1   2
BRANCH   1   4
ATOM      4  C   UNL     1       4.006   3.935  33.454  0.00  0.00    +0.175 C 
BRANCH   4   5
ATOM      5  C   UNL     1       5.433   3.407  33.664  0.00  0.00    +0.176 C 
ATOM      6  O   UNL     1       5.337   2.042  34.157  0.00  0.00    -0.332 OA
ATOM      7  C   UNL     1       6.611   1.335  34.317  0.00  0.00    +0.277 C 
ATOM      8  C   UNL     1       7.573   2.150  35.215  0.00  0.00    +0.110 C 
ATOM      9  C   UNL     1       7.683   3.617  34.748  0.00  0.00    +0.143 C 
ATOM     10  C   UNL     1       6.300   4.254  34.613  0.00  0.00    +0.133 C 
BRANCH  10  11
ATOM     11  N   UNL     1       6.414   5.623  34.084  0.00  0.00    -0.308 N 
ATOM     12  H   UNL     1       6.685   5.734  33.117  0.00  0.00    +0.149 HD
ATOM     13  C   UNL     1       6.182   6.727  34.799  0.00  0.00    +0.210 C 
ATOM     14  C   UNL     1       5.796   6.525  36.276  0.00  0.00    +0.109 C 
ATOM     15  O   UNL     1       6.270   7.861  34.325  0.00  0.00    -0.276 OA
ENDBRANCH  10  11
BRANCH   7  16
ATOM     16  C   UNL     1       7.273   1.084  32.946  0.00  0.00    +0.414 C 
ATOM     17  O   UNL     1       8.497   1.122  32.833  0.00  0.00    -0.240 OA
ATOM     18  O   UNL     1       6.583   0.844  31.954  0.00  0.00    -0.240 OA
ENDBRANCH   7  16
BRANCH   9  19
ATOM     19  O   UNL     1       8.457   4.365  35.687  0.00  0.00    -0.390 OA
ATOM     20  H   UNL     1       8.093   5.249  35.770  0.00  0.00    +0.210 HD
ENDBRANCH   9  19
BRANCH   7  21
ATOM     21  O   UNL     1       6.341   0.067  34.968  0.00  0.00    -0.343 OA
ATOM     22  C   UNL     1       6.038   0.157  36.383  0.00  0.00    +0.198 C 
ENDBRANCH   7  21
ENDBRANCH   4   5
BRANCH   4  23
ATOM     23  O   UNL     1       3.446   4.366  34.710  0.00  0.00    -0.387 OA
ATOM     24  H   UNL     1       3.914   3.940  35.432  0.00  0.00    +0.210 HD
ENDBRANCH   4  23
ENDBRANCH   1   4
BRANCH   1  25
ATOM     25  C   UNL     1       1.893   3.581  32.161  0.00  0.00    +0.141 C 
BRANCH  25  28
ATOM     26  C   UNL     1       1.509   3.419  29.726  0.00  0.00    +0.401 C 
ATOM     27  O   UNL     1       0.637   2.553  29.826  0.00  0.00    -0.226 OA
ATOM     28  N   UNL     1       2.154   3.952  30.765  0.00  0.00    -0.279 N 
ATOM     29  H   UNL     1       2.861   4.649  30.581  0.00  0.00    +0.152 HD
BRANCH  26  30
ATOM     30  O   UNL     1       1.872   3.893  28.426  0.00  0.00    -0.444 OA
BRANCH  30  31
ATOM     31  C   UNL     1       1.215   3.104  27.430  0.00  0.00    +0.292 C 
BRANCH  31  33
ATOM     32  N   UNL     1       0.019   4.718  25.977  0.00  0.00    -0.131 NA
ATOM     33  C   UNL     1       1.080   3.869  26.174  0.00  0.00    +0.120 A 
ATOM     34  C   UNL     1       1.897   3.904  25.063  0.00  0.00    +0.137 A 
ATOM     35  N   UNL     1       1.277   4.780  24.230  0.00  0.00    -0.249 N 
ATOM     36  N   UNL     1       0.158   5.282  24.787  0.00  0.00    -0.065 NA
BRANCH  35  37
ATOM     37  C   UNL     1       1.670   5.187  22.900  0.00  0.00    +0.178 C 
BRANCH  37  38
ATOM     38  C   UNL     1       0.976   4.407  21.777  0.00  0.00    +0.161 C 
BRANCH  38  39
ATOM     39  O   UNL     1       0.468   3.144  22.216  0.00  0.00    -0.388 OA
ATOM     40  H   UNL     1      -0.373   2.966  21.746  0.00  0.00    +0.210 HD
ENDBRANCH  38  39
BRANCH  38  41
ATOM     41  C   UNL     1      -0.137   5.198  21.077  0.00  0.00    +0.189 C 
BRANCH  41  42
ATOM     42  O   UNL     1      -1.032   5.783  22.023  0.00  0.00    -0.392 OA
ATOM     43  H   UNL     1      -0.533   5.965  22.842  0.00  0.00    +0.210 HD
ENDBRANCH  41  42
ENDBRANCH  38  41
ENDBRANCH  37  38
ENDBRANCH  35  37
ENDBRANCH  31  33
ENDBRANCH  30  31
ENDBRANCH  26  30
ENDBRANCH  25  28
ENDBRANCH   1  25
TORSDOF 18
