REMARK VINA RESULT:    -6.397     21.883     24.076
REMARK INTER + INTRA:         -13.321
REMARK INTER:                 -11.616
REMARK INTRA:                  -1.705
REMARK UNBOUND:                -1.875
REMARK  Name = lig_assembled_82.pdb
REMARK  19 active torsions:
REMARK  status: ('A' for Active; 'I' for Inactive)
REMARK    1  A    between atoms: _2  and  _9
REMARK    2  A    between atoms: _4  and  _22
REMARK    3  A    between atoms: _5  and  _16
REMARK    4  A    between atoms: _6  and  _7
REMARK    5  A    between atoms: _6  and  _22
REMARK    6  A    between atoms: _9  and  _10
REMARK    7  A    between atoms: _16  and  _17
REMARK    8  A    between atoms: _18  and  _38
REMARK    9  A    between atoms: _20  and  _26
REMARK   10  A    between atoms: _21  and  _25
REMARK   11  A    between atoms: _25  and  _26
REMARK   12  A    between atoms: _28  and  _29
REMARK   13  A    between atoms: _30  and  _31
REMARK   14  A    between atoms: _32  and  _34
REMARK   15  A    between atoms: _34  and  _35
REMARK   16  A    between atoms: _34  and  _36
REMARK   17  A    between atoms: _36  and  _37
REMARK   18  A    between atoms: _36  and  _38
REMARK   19  A    between atoms: _39  and  _41
REMARK                            x       y       z     vdW  Elec       q    Type
REMARK                         _______ _______ _______ _____ _____    ______ ____
ROOT
ATOM      1  C   UNL     1      11.520  23.429  25.944  0.00  0.00    +0.163 C 
ENDROOT
BRANCH   1   2
ATOM      2  O   UNL     1      10.778  22.214  25.749  0.00  0.00    -0.388 OA
ATOM      3  H   UNL     1      10.459  21.893  26.596  0.00  0.00    +0.210 HD
ENDBRANCH   1   2
BRANCH   1   4
ATOM      4  C   UNL     1      12.742  23.160  26.816  0.00  0.00    +0.141 C 
BRANCH   4   7
ATOM      5  C   UNL     1      14.907  22.752  25.698  0.00  0.00    +0.401 C 
ATOM      6  O   UNL     1      15.293  23.918  25.813  0.00  0.00    -0.226 OA
ATOM      7  N   UNL     1      13.726  22.312  26.132  0.00  0.00    -0.279 N 
ATOM      8  H   UNL     1      13.495  21.339  25.983  0.00  0.00    +0.152 HD
BRANCH   5   9
ATOM      9  O   UNL     1      15.760  21.799  25.058  0.00  0.00    -0.444 OA
BRANCH   9  10
ATOM     10  C   UNL     1      16.725  22.483  24.255  0.00  0.00    +0.292 C 
BRANCH  10  12
ATOM     11  N   UNL     1      15.841  21.308  22.265  0.00  0.00    -0.131 NA
ATOM     12  C   UNL     1      16.345  22.451  22.839  0.00  0.00    +0.120 A 
ATOM     13  C   UNL     1      16.408  23.437  21.871  0.00  0.00    +0.137 A 
ATOM     14  N   UNL     1      16.056  22.794  20.717  0.00  0.00    -0.247 N 
ATOM     15  N   UNL     1      15.632  21.543  20.977  0.00  0.00    -0.065 NA
BRANCH  14  16
ATOM     16  C   UNL     1      16.182  23.266  19.336  0.00  0.00    +0.176 C 
BRANCH  16  17
ATOM     17  C   UNL     1      14.856  23.668  18.738  0.00  0.00    -0.049 C 
ATOM     18  C   UNL     1      14.811  23.949  17.269  0.00  0.00    +0.023 C 
ATOM     19  C   UNL     1      13.505  23.530  16.455  0.00  0.00    -0.025 C 
ATOM     20  C   UNL     1      12.536  22.355  16.637  0.00  0.00    +0.012 C 
ATOM     21  C   UNL     1      12.907  24.826  17.179  0.00  0.00    -0.000 C 
ATOM     22  C   UNL     1      12.561  24.628  18.689  0.00  0.00    +0.031 C 
ATOM     23  C   UNL     1      13.990  23.458  14.986  0.00  0.00    +0.012 C 
ATOM     24  C   UNL     1      14.327  25.437  17.038  0.00  0.00    +0.012 C 
ATOM     25  C   UNL     1      13.731  23.977  19.410  0.00  0.00    -0.025 C 
ENDBRANCH  16  17
ENDBRANCH  14  16
ENDBRANCH  10  12
ENDBRANCH   9  10
ENDBRANCH   5   9
ENDBRANCH   4   7
ENDBRANCH   1   4
BRANCH   1  26
ATOM     26  C   UNL     1      10.644  24.507  26.605  0.00  0.00    +0.175 C 
BRANCH  26  27
ATOM     27  C   UNL     1       9.270  24.630  25.931  0.00  0.00    +0.176 C 
ATOM     28  O   UNL     1       9.487  24.962  24.532  0.00  0.00    -0.332 OA
ATOM     29  C   UNL     1       8.282  25.016  23.699  0.00  0.00    +0.277 C 
ATOM     30  C   UNL     1       7.244  25.988  24.312  0.00  0.00    +0.110 C 
ATOM     31  C   UNL     1       7.004  25.694  25.808  0.00  0.00    +0.143 C 
ATOM     32  C   UNL     1       8.324  25.657  26.579  0.00  0.00    +0.133 C 
BRANCH  32  33
ATOM     33  N   UNL     1       8.089  25.291  27.985  0.00  0.00    -0.308 N 
ATOM     34  H   UNL     1       7.679  24.388  28.174  0.00  0.00    +0.149 HD
ATOM     35  C   UNL     1       8.384  26.074  29.026  0.00  0.00    +0.210 C 
ATOM     36  C   UNL     1       8.984  27.455  28.702  0.00  0.00    +0.109 C 
ATOM     37  O   UNL     1       8.190  25.735  30.194  0.00  0.00    -0.276 OA
ENDBRANCH  32  33
BRANCH  29  38
ATOM     38  C   UNL     1       7.654  23.615  23.553  0.00  0.00    +0.414 C 
ATOM     39  O   UNL     1       8.137  22.654  24.151  0.00  0.00    -0.240 OA
ATOM     40  O   UNL     1       6.665  23.445  22.839  0.00  0.00    -0.240 OA
ENDBRANCH  29  38
BRANCH  29  41
ATOM     41  O   UNL     1       8.662  25.519  22.392  0.00  0.00    -0.343 OA
ATOM     42  C   UNL     1       8.193  26.857  22.090  0.00  0.00    +0.198 C 
ENDBRANCH  29  41
BRANCH  31  43
ATOM     43  O   UNL     1       6.160  26.702  26.367  0.00  0.00    -0.390 OA
ATOM     44  H   UNL     1       5.481  26.288  26.906  0.00  0.00    +0.210 HD
ENDBRANCH  31  43
ENDBRANCH  26  27
BRANCH  26  45
ATOM     45  O   UNL     1      11.323  25.779  26.585  0.00  0.00    -0.387 OA
ATOM     46  H   UNL     1      11.014  26.295  25.837  0.00  0.00    +0.210 HD
ENDBRANCH  26  45
ENDBRANCH   1  26
TORSDOF 15
