REMARK VINA RESULT:    -6.505     13.296     17.604
REMARK INTER + INTRA:         -13.750
REMARK INTER:                 -11.885
REMARK INTRA:                  -1.864
REMARK UNBOUND:                -1.921
REMARK  Name = lig_assembled_23.pdb
REMARK  18 active torsions:
REMARK  status: ('A' for Active; 'I' for Inactive)
REMARK    1  A    between atoms: _2  and  _10
REMARK    2  A    between atoms: _3  and  _41
REMARK    3  A    between atoms: _5  and  _21
REMARK    4  A    between atoms: _7  and  _8
REMARK    5  A    between atoms: _7  and  _21
REMARK    6  A    between atoms: _12  and  _41
REMARK    7  A    between atoms: _17  and  _37
REMARK    8  A    between atoms: _19  and  _25
REMARK    9  A    between atoms: _20  and  _24
REMARK   10  A    between atoms: _24  and  _25
REMARK   11  A    between atoms: _27  and  _28
REMARK   12  A    between atoms: _29  and  _30
REMARK   13  A    between atoms: _31  and  _33
REMARK   14  A    between atoms: _33  and  _34
REMARK   15  A    between atoms: _33  and  _35
REMARK   16  A    between atoms: _35  and  _36
REMARK   17  A    between atoms: _35  and  _37
REMARK   18  A    between atoms: _38  and  _40
REMARK                            x       y       z     vdW  Elec       q    Type
REMARK                         _______ _______ _______ _____ _____    ______ ____
ROOT
ATOM      1  C   UNL     1       5.537   2.648  32.424  0.00  0.00    +0.141 C 
ENDROOT
BRANCH   1   4
ATOM      2  C   UNL     1       3.180   3.392  32.424  0.00  0.00    +0.401 C 
ATOM      3  O   UNL     1       2.778   2.428  33.078  0.00  0.00    -0.226 OA
ATOM      4  N   UNL     1       4.453   3.572  32.068  0.00  0.00    -0.279 N 
ATOM      5  H   UNL     1       4.684   4.391  31.522  0.00  0.00    +0.152 HD
BRANCH   2   6
ATOM      6  O   UNL     1       2.243   4.388  32.006  0.00  0.00    -0.444 OA
BRANCH   6   7
ATOM      7  C   UNL     1       1.014   3.761  31.630  0.00  0.00    +0.292 C 
BRANCH   7   9
ATOM      8  N   UNL     1      -0.104   4.281  29.487  0.00  0.00    -0.131 NA
ATOM      9  C   UNL     1       0.914   3.671  30.163  0.00  0.00    +0.121 A 
ATOM     10  C   UNL     1       1.729   3.028  29.259  0.00  0.00    +0.143 A 
ATOM     11  N   UNL     1       1.170   3.285  28.029  0.00  0.00    -0.220 N 
ATOM     12  N   UNL     1       0.056   4.040  28.194  0.00  0.00    -0.060 NA
BRANCH  11  13
ATOM     13  C   UNL     1       1.604   2.863  26.746  0.00  0.00    +0.069 A 
ATOM     14  C   UNL     1       1.819   1.499  26.505  0.00  0.00    +0.056 A 
ATOM     15  C   UNL     1       2.282   1.083  25.251  0.00  0.00    +0.107 A 
ATOM     16  C   UNL     1       2.507   2.005  24.228  0.00  0.00    +0.028 A 
ATOM     17  C   UNL     1       2.279   3.360  24.465  0.00  0.00    +0.004 A 
ATOM     18  C   UNL     1       1.833   3.792  25.720  0.00  0.00    +0.028 A 
BRANCH  15  19
ATOM     19  S   UNL     1       2.603  -0.634  24.982  0.00  0.00    +0.056 S 
ATOM     20  O   UNL     1       3.995  -0.896  25.260  0.00  0.00    -0.153 OA
ATOM     21  O   UNL     1       1.532  -1.415  25.557  0.00  0.00    -0.153 OA
BRANCH  19  22
ATOM     22  N   UNL     1       2.411  -0.769  23.320  0.00  0.00    -0.204 NA
ATOM     23  H   UNL     1       1.787  -0.037  22.980  0.00  0.00    +0.144 HD
ATOM     24  H   UNL     1       2.112  -1.715  23.078  0.00  0.00    +0.144 HD
ENDBRANCH  19  22
ENDBRANCH  15  19
ENDBRANCH  11  13
ENDBRANCH   7   9
ENDBRANCH   6   7
ENDBRANCH   2   6
ENDBRANCH   1   4
BRANCH   1  25
ATOM     25  C   UNL     1       6.246   3.071  33.707  0.00  0.00    +0.163 C 
BRANCH  25  26
ATOM     26  O   UNL     1       6.247   1.986  34.648  0.00  0.00    -0.388 OA
ATOM     27  H   UNL     1       6.929   1.353  34.407  0.00  0.00    +0.210 HD
ENDBRANCH  25  26
BRANCH  25  28
ATOM     28  C   UNL     1       7.681   3.516  33.378  0.00  0.00    +0.175 C 
BRANCH  28  29
ATOM     29  C   UNL     1       8.499   3.813  34.643  0.00  0.00    +0.176 C 
ATOM     30  O   UNL     1       8.840   2.543  35.263  0.00  0.00    -0.332 OA
ATOM     31  C   UNL     1       9.716   2.625  36.436  0.00  0.00    +0.277 C 
ATOM     32  C   UNL     1       9.113   3.579  37.496  0.00  0.00    +0.110 C 
ATOM     33  C   UNL     1       8.705   4.932  36.877  0.00  0.00    +0.143 C 
ATOM     34  C   UNL     1       7.797   4.729  35.663  0.00  0.00    +0.133 C 
BRANCH  34  35
ATOM     35  N   UNL     1       7.486   6.021  35.031  0.00  0.00    -0.308 N 
ATOM     36  H   UNL     1       8.227   6.492  34.531  0.00  0.00    +0.149 HD
ATOM     37  C   UNL     1       6.288   6.611  35.075  0.00  0.00    +0.210 C 
ATOM     38  C   UNL     1       5.188   5.880  35.866  0.00  0.00    +0.109 C 
ATOM     39  O   UNL     1       6.052   7.686  34.523  0.00  0.00    -0.276 OA
ENDBRANCH  34  35
BRANCH  31  40
ATOM     40  C   UNL     1      11.121   3.121  36.035  0.00  0.00    +0.414 C 
ATOM     41  O   UNL     1      11.768   3.835  36.800  0.00  0.00    -0.240 OA
ATOM     42  O   UNL     1      11.608   2.806  34.949  0.00  0.00    -0.240 OA
ENDBRANCH  31  40
BRANCH  33  43
ATOM     43  O   UNL     1       8.019   5.720  37.851  0.00  0.00    -0.390 OA
ATOM     44  H   UNL     1       7.317   5.198  38.249  0.00  0.00    +0.210 HD
ENDBRANCH  33  43
BRANCH  31  45
ATOM     45  O   UNL     1       9.814   1.299  37.016  0.00  0.00    -0.343 OA
ATOM     46  C   UNL     1       8.805   0.358  36.569  0.00  0.00    +0.198 C 
ENDBRANCH  31  45
ENDBRANCH  28  29
BRANCH  28  47
ATOM     47  O   UNL     1       7.657   4.674  32.519  0.00  0.00    -0.387 OA
ATOM     48  H   UNL     1       8.542   4.846  32.189  0.00  0.00    +0.210 HD
ENDBRANCH  28  47
ENDBRANCH  25  28
ENDBRANCH   1  25
TORSDOF 16
