REMARK VINA RESULT:    -6.730      1.351      1.663
REMARK INTER + INTRA:         -13.765
REMARK INTER:                 -11.759
REMARK INTRA:                  -2.006
REMARK UNBOUND:                -2.118
REMARK  Name = lig_assembled_7.pdb
REMARK  19 active torsions:
REMARK  status: ('A' for Active; 'I' for Inactive)
REMARK    1  A    between atoms: _2  and  _9
REMARK    2  A    between atoms: _4  and  _21
REMARK    3  A    between atoms: _5  and  _16
REMARK    4  A    between atoms: _6  and  _7
REMARK    5  A    between atoms: _6  and  _21
REMARK    6  A    between atoms: _10  and  _11
REMARK    7  A    between atoms: _13  and  _14
REMARK    8  A    between atoms: _17  and  _37
REMARK    9  A    between atoms: _19  and  _25
REMARK   10  A    between atoms: _20  and  _24
REMARK   11  A    between atoms: _24  and  _25
REMARK   12  A    between atoms: _27  and  _28
REMARK   13  A    between atoms: _29  and  _30
REMARK   14  A    between atoms: _31  and  _33
REMARK   15  A    between atoms: _33  and  _34
REMARK   16  A    between atoms: _33  and  _35
REMARK   17  A    between atoms: _35  and  _36
REMARK   18  A    between atoms: _35  and  _37
REMARK   19  A    between atoms: _38  and  _40
REMARK                            x       y       z     vdW  Elec       q    Type
REMARK                         _______ _______ _______ _____ _____    ______ ____
ROOT
ATOM      1  C   UNL     1       5.052   2.915  32.167  0.00  0.00    +0.163 C 
ENDROOT
BRANCH   1   2
ATOM      2  O   UNL     1       4.284   4.010  32.691  0.00  0.00    -0.388 OA
ATOM      3  H   UNL     1       4.790   4.461  33.371  0.00  0.00    +0.210 HD
ENDBRANCH   1   2
BRANCH   1   4
ATOM      4  C   UNL     1       4.330   1.598  32.429  0.00  0.00    +0.141 C 
BRANCH   4   7
ATOM      5  C   UNL     1       2.260   1.693  31.083  0.00  0.00    +0.401 C 
ATOM      6  O   UNL     1       1.709   2.517  31.816  0.00  0.00    -0.226 OA
ATOM      7  N   UNL     1       3.482   1.204  31.297  0.00  0.00    -0.279 N 
ATOM      8  H   UNL     1       3.845   0.524  30.644  0.00  0.00    +0.152 HD
BRANCH   5   9
ATOM      9  O   UNL     1       1.564   1.215  29.929  0.00  0.00    -0.444 OA
BRANCH   9  10
ATOM     10  C   UNL     1       0.705   2.244  29.429  0.00  0.00    +0.292 C 
BRANCH  10  12
ATOM     11  N   UNL     1       2.107   3.710  28.029  0.00  0.00    -0.131 NA
ATOM     12  C   UNL     1       1.183   2.716  28.116  0.00  0.00    +0.121 A 
ATOM     13  C   UNL     1       0.852   2.303  26.841  0.00  0.00    +0.143 A 
ATOM     14  N   UNL     1       1.573   3.118  25.993  0.00  0.00    -0.219 N 
ATOM     15  N   UNL     1       2.358   3.927  26.748  0.00  0.00    -0.060 NA
BRANCH  14  16
ATOM     16  C   UNL     1       1.576   3.173  24.561  0.00  0.00    +0.073 A 
ATOM     17  C   UNL     1       0.840   4.201  23.898  0.00  0.00    -0.024 A 
ATOM     18  C   UNL     1       0.838   4.263  22.488  0.00  0.00    +0.008 A 
ATOM     19  C   UNL     1       1.550   3.346  21.718  0.00  0.00    -0.050 A 
ATOM     20  C   UNL     1       1.528   3.442  20.222  0.00  0.00    +0.044 C 
ATOM     21  C   UNL     1       2.268   2.347  22.369  0.00  0.00    +0.008 A 
ATOM     22  C   UNL     1       0.073   5.298  24.604  0.00  0.00    +0.046 C 
ATOM     23  C   UNL     1       2.282   2.223  23.778  0.00  0.00    -0.024 A 
ATOM     24  C   UNL     1       3.016   1.002  24.271  0.00  0.00    +0.046 C 
ENDBRANCH  14  16
ENDBRANCH  10  12
ENDBRANCH   9  10
ENDBRANCH   5   9
ENDBRANCH   4   7
ENDBRANCH   1   4
BRANCH   1  25
ATOM     25  C   UNL     1       6.451   2.870  32.805  0.00  0.00    +0.175 C 
BRANCH  25  26
ATOM     26  C   UNL     1       6.486   3.568  34.173  0.00  0.00    +0.176 C 
ATOM     27  O   UNL     1       6.910   4.942  33.963  0.00  0.00    -0.332 OA
ATOM     28  C   UNL     1       6.901   5.798  35.153  0.00  0.00    +0.277 C 
ATOM     29  C   UNL     1       7.740   5.158  36.287  0.00  0.00    +0.110 C 
ATOM     30  C   UNL     1       7.346   3.685  36.525  0.00  0.00    +0.143 C 
ATOM     31  C   UNL     1       7.387   2.888  35.221  0.00  0.00    +0.133 C 
BRANCH  31  32
ATOM     32  N   UNL     1       6.926   1.509  35.445  0.00  0.00    -0.308 N 
ATOM     33  H   UNL     1       5.967   1.373  35.731  0.00  0.00    +0.149 HD
ATOM     34  C   UNL     1       7.693   0.425  35.295  0.00  0.00    +0.210 C 
ATOM     35  C   UNL     1       9.157   0.668  34.884  0.00  0.00    +0.109 C 
ATOM     36  O   UNL     1       7.275  -0.719  35.476  0.00  0.00    -0.276 OA
ENDBRANCH  31  32
BRANCH  28  37
ATOM     37  C   UNL     1       5.458   6.030  35.648  0.00  0.00    +0.414 C 
ATOM     38  O   UNL     1       4.513   5.954  34.864  0.00  0.00    -0.240 OA
ATOM     39  O   UNL     1       5.238   6.292  36.832  0.00  0.00    -0.240 OA
ENDBRANCH  28  37
BRANCH  30  40
ATOM     40  O   UNL     1       8.241   3.093  37.467  0.00  0.00    -0.390 OA
ATOM     41  H   UNL     1       7.739   2.606  38.124  0.00  0.00    +0.210 HD
ENDBRANCH  30  40
BRANCH  28  42
ATOM     42  O   UNL     1       7.505   7.068  34.798  0.00  0.00    -0.343 OA
ATOM     43  C   UNL     1       8.222   7.727  35.873  0.00  0.00    +0.198 C 
ENDBRANCH  28  42
ENDBRANCH  25  26
BRANCH  25  44
ATOM     44  O   UNL     1       7.421   3.465  31.920  0.00  0.00    -0.387 OA
ATOM     45  H   UNL     1       7.400   3.013  31.072  0.00  0.00    +0.210 HD
ENDBRANCH  25  44
ENDBRANCH   1  25
TORSDOF 14
