REMARK VINA RESULT:    -5.498      2.973      5.441
REMARK INTER + INTRA:         -12.468
REMARK INTER:                 -10.548
REMARK INTRA:                  -1.920
REMARK UNBOUND:                -1.667
REMARK  Name = lig_assembled_43.pdb
REMARK  20 active torsions:
REMARK  status: ('A' for Active; 'I' for Inactive)
REMARK    1  A    between atoms: _2  and  _9
REMARK    2  A    between atoms: _4  and  _18
REMARK    3  A    between atoms: _6  and  _7
REMARK    4  A    between atoms: _6  and  _18
REMARK    5  A    between atoms: _9  and  _10
REMARK    6  A    between atoms: _10  and  _11
REMARK    7  A    between atoms: _11  and  _12
REMARK    8  A    between atoms: _12  and  _13
REMARK    9  A    between atoms: _14  and  _34
REMARK   10  A    between atoms: _16  and  _22
REMARK   11  A    between atoms: _17  and  _21
REMARK   12  A    between atoms: _21  and  _22
REMARK   13  A    between atoms: _24  and  _25
REMARK   14  A    between atoms: _26  and  _27
REMARK   15  A    between atoms: _28  and  _30
REMARK   16  A    between atoms: _30  and  _31
REMARK   17  A    between atoms: _30  and  _32
REMARK   18  A    between atoms: _32  and  _33
REMARK   19  A    between atoms: _32  and  _34
REMARK   20  A    between atoms: _35  and  _37
REMARK                            x       y       z     vdW  Elec       q    Type
REMARK                         _______ _______ _______ _____ _____    ______ ____
ROOT
ATOM      1  C   UNL     1       2.634   2.175  32.223  0.00  0.00    +0.163 C 
ENDROOT
BRANCH   1   2
ATOM      2  O   UNL     1       1.923   1.034  31.715  0.00  0.00    -0.388 OA
ATOM      3  H   UNL     1       2.546   0.415  31.326  0.00  0.00    +0.210 HD
ENDBRANCH   1   2
BRANCH   1   4
ATOM      4  C   UNL     1       4.066   2.225  31.664  0.00  0.00    +0.175 C 
BRANCH   4   5
ATOM      5  C   UNL     1       5.068   1.504  32.577  0.00  0.00    +0.176 C 
ATOM      6  O   UNL     1       4.827   0.074  32.465  0.00  0.00    -0.332 OA
ATOM      7  C   UNL     1       5.766  -0.786  33.191  0.00  0.00    +0.277 C 
ATOM      8  C   UNL     1       5.826  -0.381  34.685  0.00  0.00    +0.110 C 
ATOM      9  C   UNL     1       6.050   1.136  34.855  0.00  0.00    +0.143 C 
ATOM     10  C   UNL     1       5.020   1.935  34.054  0.00  0.00    +0.133 C 
BRANCH  10  11
ATOM     11  N   UNL     1       5.297   3.377  34.154  0.00  0.00    -0.308 N 
ATOM     12  H   UNL     1       6.140   3.727  33.721  0.00  0.00    +0.149 HD
ATOM     13  C   UNL     1       4.506   4.254  34.780  0.00  0.00    +0.210 C 
ATOM     14  C   UNL     1       3.242   3.685  35.452  0.00  0.00    +0.109 C 
ATOM     15  O   UNL     1       4.755   5.458  34.835  0.00  0.00    -0.276 OA
ENDBRANCH  10  11
BRANCH   7  16
ATOM     16  C   UNL     1       7.178  -0.697  32.576  0.00  0.00    +0.414 C 
ATOM     17  O   UNL     1       8.153  -0.472  33.291  0.00  0.00    -0.240 OA
ATOM     18  O   UNL     1       7.341  -0.851  31.364  0.00  0.00    -0.240 OA
ENDBRANCH   7  16
BRANCH   9  19
ATOM     19  O   UNL     1       5.948   1.487  36.235  0.00  0.00    -0.390 OA
ATOM     20  H   UNL     1       5.052   1.775  36.427  0.00  0.00    +0.210 HD
ENDBRANCH   9  19
BRANCH   7  21
ATOM     21  O   UNL     1       5.281  -2.151  33.107  0.00  0.00    -0.343 OA
ATOM     22  C   UNL     1       5.879  -3.073  34.053  0.00  0.00    +0.198 C 
ENDBRANCH   7  21
ENDBRANCH   4   5
BRANCH   4  23
ATOM     23  O   UNL     1       4.473   3.593  31.462  0.00  0.00    -0.387 OA
ATOM     24  H   UNL     1       4.999   3.884  32.211  0.00  0.00    +0.210 HD
ENDBRANCH   4  23
ENDBRANCH   1   4
BRANCH   1  25
ATOM     25  C   UNL     1       1.896   3.457  31.851  0.00  0.00    +0.141 C 
BRANCH  25  28
ATOM     26  C   UNL     1       1.046   3.272  29.538  0.00  0.00    +0.401 C 
ATOM     27  O   UNL     1       0.075   2.579  29.850  0.00  0.00    -0.226 OA
ATOM     28  N   UNL     1       1.952   3.722  30.408  0.00  0.00    -0.279 N 
ATOM     29  H   UNL     1       2.719   4.275  30.055  0.00  0.00    +0.152 HD
BRANCH  26  30
ATOM     30  O   UNL     1       1.236   3.624  28.166  0.00  0.00    -0.444 OA
BRANCH  30  31
ATOM     31  C   UNL     1       0.082   3.244  27.411  0.00  0.00    +0.292 C 
BRANCH  31  33
ATOM     32  N   UNL     1      -0.698   5.245  26.180  0.00  0.00    -0.131 NA
ATOM     33  C   UNL     1      -0.019   4.054  26.184  0.00  0.00    +0.120 A 
ATOM     34  C   UNL     1       0.482   3.818  24.923  0.00  0.00    +0.137 A 
ATOM     35  N   UNL     1       0.069   4.897  24.201  0.00  0.00    -0.251 N 
ATOM     36  N   UNL     1      -0.637   5.753  24.956  0.00  0.00    -0.065 NA
BRANCH  35  37
ATOM     37  C   UNL     1       0.278   5.161  22.793  0.00  0.00    +0.145 C 
BRANCH  37  38
ATOM     38  C   UNL     1       1.709   4.841  22.371  0.00  0.00    +0.024 C 
BRANCH  38  39
ATOM     39  C   UNL     1       1.791   3.558  21.540  0.00  0.00    +0.006 C 
BRANCH  39  40
ATOM     40  C   UNL     1       1.134   3.762  20.173  0.00  0.00    +0.026 C 
BRANCH  40  41
ATOM     41  C   UNL     1       2.132   3.692  19.054  0.00  0.00    -0.034 C 
ATOM     42  C   UNL     1       2.604   2.547  18.546  0.00  0.00    +0.004 C 
ENDBRANCH  40  41
ENDBRANCH  39  40
ENDBRANCH  38  39
ENDBRANCH  37  38
ENDBRANCH  35  37
ENDBRANCH  31  33
ENDBRANCH  30  31
ENDBRANCH  26  30
ENDBRANCH  25  28
ENDBRANCH   1  25
TORSDOF 18
