REMARK VINA RESULT:    -5.521      2.595      4.401
REMARK INTER + INTRA:         -13.279
REMARK INTER:                 -11.148
REMARK INTRA:                  -2.131
REMARK UNBOUND:                -3.239
REMARK  Name = lig_assembled_88.pdb
REMARK  18 active torsions:
REMARK  status: ('A' for Active; 'I' for Inactive)
REMARK    1  A    between atoms: _2  and  _9
REMARK    2  A    between atoms: _4  and  _20
REMARK    3  A    between atoms: _5  and  _15
REMARK    4  A    between atoms: _6  and  _7
REMARK    5  A    between atoms: _6  and  _20
REMARK    6  A    between atoms: _9  and  _10
REMARK    7  A    between atoms: _16  and  _36
REMARK    8  A    between atoms: _18  and  _24
REMARK    9  A    between atoms: _19  and  _23
REMARK   10  A    between atoms: _23  and  _24
REMARK   11  A    between atoms: _26  and  _27
REMARK   12  A    between atoms: _28  and  _29
REMARK   13  A    between atoms: _30  and  _32
REMARK   14  A    between atoms: _32  and  _33
REMARK   15  A    between atoms: _32  and  _34
REMARK   16  A    between atoms: _34  and  _35
REMARK   17  A    between atoms: _34  and  _36
REMARK   18  A    between atoms: _37  and  _39
REMARK                            x       y       z     vdW  Elec       q    Type
REMARK                         _______ _______ _______ _____ _____    ______ ____
ROOT
ATOM      1  C   UNL     1       7.012   3.882  33.548  0.00  0.00    +0.163 C 
ENDROOT
BRANCH   1   2
ATOM      2  O   UNL     1       7.650   5.013  32.933  0.00  0.00    -0.388 OA
ATOM      3  H   UNL     1       7.081   5.783  33.010  0.00  0.00    +0.210 HD
ENDBRANCH   1   2
BRANCH   1   4
ATOM      4  C   UNL     1       5.778   4.319  34.358  0.00  0.00    +0.175 C 
BRANCH   4   5
ATOM      5  C   UNL     1       6.119   5.403  35.390  0.00  0.00    +0.176 C 
ATOM      6  O   UNL     1       7.515   5.241  35.765  0.00  0.00    -0.332 OA
ATOM      7  C   UNL     1       8.051   6.261  36.671  0.00  0.00    +0.277 C 
ATOM      8  C   UNL     1       7.176   6.368  37.944  0.00  0.00    +0.110 C 
ATOM      9  C   UNL     1       5.679   6.510  37.596  0.00  0.00    +0.143 C 
ATOM     10  C   UNL     1       5.229   5.399  36.647  0.00  0.00    +0.133 C 
BRANCH  10  11
ATOM     11  N   UNL     1       3.824   5.595  36.254  0.00  0.00    -0.308 N 
ATOM     12  H   UNL     1       3.614   6.348  35.614  0.00  0.00    +0.149 HD
ATOM     13  C   UNL     1       2.809   4.843  36.689  0.00  0.00    +0.210 C 
ATOM     14  C   UNL     1       3.159   3.721  37.684  0.00  0.00    +0.109 C 
ATOM     15  O   UNL     1       1.644   5.021  36.332  0.00  0.00    -0.276 OA
ENDBRANCH  10  11
BRANCH   7  16
ATOM     16  C   UNL     1       8.113   7.635  35.972  0.00  0.00    +0.414 C 
ATOM     17  O   UNL     1       8.080   7.708  34.744  0.00  0.00    -0.240 OA
ATOM     18  O   UNL     1       8.195   8.670  36.635  0.00  0.00    -0.240 OA
ENDBRANCH   7  16
BRANCH   7  19
ATOM     19  O   UNL     1       9.386   5.854  37.066  0.00  0.00    -0.343 OA
ATOM     20  C   UNL     1       9.620   5.828  38.497  0.00  0.00    +0.198 C 
ENDBRANCH   7  19
BRANCH   9  21
ATOM     21  O   UNL     1       4.899   6.452  38.791  0.00  0.00    -0.390 OA
ATOM     22  H   UNL     1       5.423   6.768  39.531  0.00  0.00    +0.210 HD
ENDBRANCH   9  21
ENDBRANCH   4   5
BRANCH   4  23
ATOM     23  O   UNL     1       5.184   3.180  35.011  0.00  0.00    -0.387 OA
ATOM     24  H   UNL     1       4.473   2.833  34.467  0.00  0.00    +0.210 HD
ENDBRANCH   4  23
ENDBRANCH   1   4
BRANCH   1  25
ATOM     25  C   UNL     1       6.591   2.877  32.481  0.00  0.00    +0.141 C 
BRANCH  25  28
ATOM     26  C   UNL     1       4.340   2.391  31.585  0.00  0.00    +0.401 C 
ATOM     27  O   UNL     1       4.394   1.187  31.843  0.00  0.00    -0.226 OA
ATOM     28  N   UNL     1       5.324   3.254  31.843  0.00  0.00    -0.279 N 
ATOM     29  H   UNL     1       5.189   4.221  31.585  0.00  0.00    +0.152 HD
BRANCH  26  30
ATOM     30  O   UNL     1       3.162   2.917  30.967  0.00  0.00    -0.444 OA
BRANCH  30  31
ATOM     31  C   UNL     1       2.592   1.927  30.106  0.00  0.00    +0.292 C 
BRANCH  31  33
ATOM     32  N   UNL     1       2.519   3.585  28.268  0.00  0.00    -0.131 NA
ATOM     33  C   UNL     1       1.919   2.566  28.960  0.00  0.00    +0.120 A 
ATOM     34  C   UNL     1       0.679   2.319  28.413  0.00  0.00    +0.137 A 
ATOM     35  N   UNL     1       0.556   3.272  27.443  0.00  0.00    -0.247 N 
ATOM     36  N   UNL     1       1.683   3.997  27.325  0.00  0.00    -0.065 NA
BRANCH  35  37
ATOM     37  C   UNL     1      -0.618   3.594  26.646  0.00  0.00    +0.184 C 
BRANCH  37  38
ATOM     38  C   UNL     1      -0.462   3.238  25.181  0.00  0.00    +0.017 A 
ATOM     39  C   UNL     1      -0.576   1.916  24.708  0.00  0.00    +0.024 A 
ATOM     40  C   UNL     1      -0.424   1.625  23.350  0.00  0.00    +0.019 A 
ATOM     41 BR   UNL     1      -0.535  -0.169  22.760  0.00  0.00    -0.050 Br
ATOM     42  C   UNL     1      -0.191   2.638  22.426  0.00  0.00    +0.034 A 
ATOM     43  C   UNL     1      -0.122   3.955  22.871  0.00  0.00    +0.061 A 
ATOM     44 BR   UNL     1       0.160   5.336  21.604  0.00  0.00    -0.046 Br
ATOM     45  C   UNL     1      -0.261   4.252  24.235  0.00  0.00    +0.136 A 
BRANCH  45  46
ATOM     46  O   UNL     1      -0.211   5.546  24.682  0.00  0.00    -0.505 OA
ATOM     47  H   UNL     1      -0.838   5.625  25.425  0.00  0.00    +0.292 HD
ENDBRANCH  45  46
ENDBRANCH  37  38
ENDBRANCH  35  37
ENDBRANCH  31  33
ENDBRANCH  30  31
ENDBRANCH  26  30
ENDBRANCH  25  28
ENDBRANCH   1  25
TORSDOF 16
