REMARK VINA RESULT:    -6.504     10.021     13.795
REMARK INTER + INTRA:         -13.747
REMARK INTER:                 -11.234
REMARK INTRA:                  -2.513
REMARK UNBOUND:                -1.921
REMARK  Name = lig_assembled_23.pdb
REMARK  18 active torsions:
REMARK  status: ('A' for Active; 'I' for Inactive)
REMARK    1  A    between atoms: _2  and  _10
REMARK    2  A    between atoms: _3  and  _41
REMARK    3  A    between atoms: _5  and  _21
REMARK    4  A    between atoms: _7  and  _8
REMARK    5  A    between atoms: _7  and  _21
REMARK    6  A    between atoms: _12  and  _41
REMARK    7  A    between atoms: _17  and  _37
REMARK    8  A    between atoms: _19  and  _25
REMARK    9  A    between atoms: _20  and  _24
REMARK   10  A    between atoms: _24  and  _25
REMARK   11  A    between atoms: _27  and  _28
REMARK   12  A    between atoms: _29  and  _30
REMARK   13  A    between atoms: _31  and  _33
REMARK   14  A    between atoms: _33  and  _34
REMARK   15  A    between atoms: _33  and  _35
REMARK   16  A    between atoms: _35  and  _36
REMARK   17  A    between atoms: _35  and  _37
REMARK   18  A    between atoms: _38  and  _40
REMARK                            x       y       z     vdW  Elec       q    Type
REMARK                         _______ _______ _______ _____ _____    ______ ____
ROOT
ATOM      1  C   UNL     1       9.059   4.147  39.771  0.00  0.00    +0.141 C 
ENDROOT
BRANCH   1   4
ATOM      2  C   UNL     1      11.192   5.298  39.292  0.00  0.00    +0.401 C 
ATOM      3  O   UNL     1      10.853   6.353  39.835  0.00  0.00    -0.226 OA
ATOM      4  N   UNL     1      10.414   4.218  39.211  0.00  0.00    -0.279 N 
ATOM      5  H   UNL     1      10.777   3.403  38.738  0.00  0.00    +0.152 HD
BRANCH   2   6
ATOM      6  O   UNL     1      12.492   5.206  38.704  0.00  0.00    -0.444 OA
BRANCH   6   7
ATOM      7  C   UNL     1      12.416   4.452  37.492  0.00  0.00    +0.292 C 
BRANCH   7   9
ATOM      8  N   UNL     1      13.552   4.350  35.298  0.00  0.00    -0.131 NA
ATOM      9  C   UNL     1      13.420   4.933  36.526  0.00  0.00    +0.121 A 
ATOM     10  C   UNL     1      14.335   5.955  36.638  0.00  0.00    +0.143 A 
ATOM     11  N   UNL     1      15.005   5.967  35.437  0.00  0.00    -0.220 N 
ATOM     12  N   UNL     1      14.518   4.981  34.644  0.00  0.00    -0.060 NA
BRANCH  11  13
ATOM     13  C   UNL     1      16.054   6.821  35.009  0.00  0.00    +0.069 A 
ATOM     14  C   UNL     1      15.741   8.040  34.391  0.00  0.00    +0.056 A 
ATOM     15  C   UNL     1      16.773   8.868  33.935  0.00  0.00    +0.107 A 
ATOM     16  C   UNL     1      18.111   8.511  34.112  0.00  0.00    +0.028 A 
ATOM     17  C   UNL     1      18.420   7.305  34.740  0.00  0.00    +0.004 A 
ATOM     18  C   UNL     1      17.398   6.459  35.184  0.00  0.00    +0.028 A 
BRANCH  15  19
ATOM     19  S   UNL     1      16.360  10.374  33.107  0.00  0.00    +0.056 S 
ATOM     20  O   UNL     1      16.836  11.485  33.896  0.00  0.00    -0.153 OA
ATOM     21  O   UNL     1      16.649  10.237  31.698  0.00  0.00    -0.153 OA
BRANCH  19  22
ATOM     22  N   UNL     1      14.685  10.386  33.219  0.00  0.00    -0.204 NA
ATOM     23  H   UNL     1      14.365   9.576  33.749  0.00  0.00    +0.144 HD
ATOM     24  H   UNL     1      14.273  10.462  32.288  0.00  0.00    +0.144 HD
ENDBRANCH  19  22
ENDBRANCH  15  19
ENDBRANCH  11  13
ENDBRANCH   7   9
ENDBRANCH   6   7
ENDBRANCH   2   6
ENDBRANCH   1   4
BRANCH   1  25
ATOM     25  C   UNL     1       7.996   4.494  38.734  0.00  0.00    +0.163 C 
BRANCH  25  26
ATOM     26  O   UNL     1       7.990   5.911  38.491  0.00  0.00    -0.388 OA
ATOM     27  H   UNL     1       7.188   6.152  38.023  0.00  0.00    +0.210 HD
ENDBRANCH  25  26
BRANCH  25  28
ATOM     28  C   UNL     1       8.270   3.715  37.436  0.00  0.00    +0.175 C 
BRANCH  28  29
ATOM     29  C   UNL     1       7.753   4.458  36.196  0.00  0.00    +0.176 C 
ATOM     30  O   UNL     1       6.352   4.777  36.417  0.00  0.00    -0.332 OA
ATOM     31  C   UNL     1       5.713   5.585  35.375  0.00  0.00    +0.277 C 
ATOM     32  C   UNL     1       5.884   4.915  33.989  0.00  0.00    +0.110 C 
ATOM     33  C   UNL     1       7.354   4.529  33.721  0.00  0.00    +0.143 C 
ATOM     34  C   UNL     1       7.920   3.693  34.870  0.00  0.00    +0.133 C 
BRANCH  34  35
ATOM     35  N   UNL     1       9.345   3.404  34.644  0.00  0.00    -0.308 N 
ATOM     36  H   UNL     1       9.976   4.188  34.558  0.00  0.00    +0.149 HD
ATOM     37  C   UNL     1       9.858   2.175  34.546  0.00  0.00    +0.210 C 
ATOM     38  C   UNL     1       8.865   1.003  34.655  0.00  0.00    +0.109 C 
ATOM     39  O   UNL     1      11.058   1.964  34.371  0.00  0.00    -0.276 OA
ENDBRANCH  34  35
BRANCH  31  40
ATOM     40  C   UNL     1       6.314   7.006  35.338  0.00  0.00    +0.414 C 
ATOM     41  O   UNL     1       7.016   7.406  36.266  0.00  0.00    -0.240 OA
ATOM     42  O   UNL     1       6.098   7.751  34.382  0.00  0.00    -0.240 OA
ENDBRANCH  31  40
BRANCH  33  43
ATOM     43  O   UNL     1       7.442   3.782  32.507  0.00  0.00    -0.390 OA
ATOM     44  H   UNL     1       7.017   2.929  32.624  0.00  0.00    +0.210 HD
ENDBRANCH  33  43
BRANCH  31  45
ATOM     45  O   UNL     1       4.295   5.663  35.673  0.00  0.00    -0.343 OA
ATOM     46  C   UNL     1       3.967   5.693  37.085  0.00  0.00    +0.198 C 
ENDBRANCH  31  45
ENDBRANCH  28  29
BRANCH  28  47
ATOM     47  O   UNL     1       7.680   2.402  37.511  0.00  0.00    -0.387 OA
ATOM     48  H   UNL     1       8.358   1.758  37.729  0.00  0.00    +0.210 HD
ENDBRANCH  28  47
ENDBRANCH  25  28
ENDBRANCH   1  25
TORSDOF 16
