REMARK VINA RESULT:    -6.573     15.548     17.277
REMARK INTER + INTRA:         -13.946
REMARK INTER:                 -11.793
REMARK INTRA:                  -2.153
REMARK UNBOUND:                -1.802
REMARK  Name = lig_assembled_36.pdb
REMARK  18 active torsions:
REMARK  status: ('A' for Active; 'I' for Inactive)
REMARK    1  A    between atoms: _2  and  _10
REMARK    2  A    between atoms: _5  and  _21
REMARK    3  A    between atoms: _7  and  _8
REMARK    4  A    between atoms: _7  and  _21
REMARK    5  A    between atoms: _10  and  _11
REMARK    6  A    between atoms: _14  and  _15
REMARK    7  A    between atoms: _17  and  _37
REMARK    8  A    between atoms: _19  and  _25
REMARK    9  A    between atoms: _20  and  _24
REMARK   10  A    between atoms: _24  and  _25
REMARK   11  A    between atoms: _27  and  _28
REMARK   12  A    between atoms: _29  and  _30
REMARK   13  A    between atoms: _31  and  _33
REMARK   14  A    between atoms: _33  and  _34
REMARK   15  A    between atoms: _33  and  _35
REMARK   16  A    between atoms: _35  and  _36
REMARK   17  A    between atoms: _35  and  _37
REMARK   18  A    between atoms: _38  and  _40
REMARK                            x       y       z     vdW  Elec       q    Type
REMARK                         _______ _______ _______ _____ _____    ______ ____
ROOT
ATOM      1  C   UNL     1       2.746   2.477  32.591  0.00  0.00    +0.163 C 
ENDROOT
BRANCH   1   2
ATOM      2  O   UNL     1       2.579   1.309  33.411  0.00  0.00    -0.388 OA
ATOM      3  H   UNL     1       2.044   0.663  32.943  0.00  0.00    +0.210 HD
ENDBRANCH   1   2
BRANCH   1   4
ATOM      4  C   UNL     1       3.743   3.459  33.230  0.00  0.00    +0.175 C 
BRANCH   4   5
ATOM      5  C   UNL     1       3.434   3.715  34.713  0.00  0.00    +0.176 C 
ATOM      6  O   UNL     1       1.992   3.843  34.853  0.00  0.00    -0.332 OA
ATOM      7  C   UNL     1       1.499   3.987  36.226  0.00  0.00    +0.277 C 
ATOM      8  C   UNL     1       2.202   5.173  36.932  0.00  0.00    +0.110 C 
ATOM      9  C   UNL     1       3.736   5.096  36.783  0.00  0.00    +0.143 C 
ATOM     10  C   UNL     1       4.137   4.945  35.315  0.00  0.00    +0.133 C 
BRANCH  10  11
ATOM     11  N   UNL     1       5.595   4.786  35.194  0.00  0.00    -0.308 N 
ATOM     12  H   UNL     1       6.002   3.916  35.506  0.00  0.00    +0.149 HD
ATOM     13  C   UNL     1       6.415   5.717  34.698  0.00  0.00    +0.210 C 
ATOM     14  C   UNL     1       5.767   7.042  34.255  0.00  0.00    +0.109 C 
ATOM     15  O   UNL     1       7.631   5.550  34.594  0.00  0.00    -0.276 OA
ENDBRANCH  10  11
BRANCH   7  16
ATOM     16  C   UNL     1       1.738   2.693  37.031  0.00  0.00    +0.414 C 
ATOM     17  O   UNL     1       1.837   2.734  38.257  0.00  0.00    -0.240 OA
ATOM     18  O   UNL     1       1.832   1.608  36.456  0.00  0.00    -0.240 OA
ENDBRANCH   7  16
BRANCH   7  19
ATOM     19  O   UNL     1       0.077   4.269  36.165  0.00  0.00    -0.343 OA
ATOM     20  C   UNL     1      -0.553   3.967  34.894  0.00  0.00    +0.198 C 
ENDBRANCH   7  19
BRANCH   9  21
ATOM     21  O   UNL     1       4.331   6.281  37.314  0.00  0.00    -0.390 OA
ATOM     22  H   UNL     1       3.777   7.038  37.108  0.00  0.00    +0.210 HD
ENDBRANCH   9  21
ENDBRANCH   4   5
BRANCH   4  23
ATOM     23  O   UNL     1       3.750   4.704  32.503  0.00  0.00    -0.387 OA
ATOM     24  H   UNL     1       4.145   4.567  31.638  0.00  0.00    +0.210 HD
ENDBRANCH   4  23
ENDBRANCH   1   4
BRANCH   1  25
ATOM     25  C   UNL     1       3.243   2.076  31.206  0.00  0.00    +0.141 C 
BRANCH  25  28
ATOM     26  C   UNL     1       1.649   2.833  29.477  0.00  0.00    +0.401 C 
ATOM     27  O   UNL     1       0.885   1.876  29.628  0.00  0.00    -0.226 OA
ATOM     28  N   UNL     1       2.777   3.003  30.168  0.00  0.00    -0.279 N 
ATOM     29  H   UNL     1       3.342   3.815  29.966  0.00  0.00    +0.152 HD
BRANCH  26  30
ATOM     30  O   UNL     1       1.328   3.831  28.504  0.00  0.00    -0.444 OA
BRANCH  30  31
ATOM     31  C   UNL     1       0.425   3.285  27.539  0.00  0.00    +0.292 C 
BRANCH  31  33
ATOM     32  N   UNL     1      -0.430   5.000  25.969  0.00  0.00    -0.131 NA
ATOM     33  C   UNL     1       0.503   4.046  26.278  0.00  0.00    +0.120 A 
ATOM     34  C   UNL     1       1.438   3.985  25.268  0.00  0.00    +0.137 A 
ATOM     35  N   UNL     1       1.069   4.992  24.425  0.00  0.00    -0.247 N 
ATOM     36  N   UNL     1      -0.083   5.562  24.820  0.00  0.00    -0.065 NA
BRANCH  35  37
ATOM     37  C   UNL     1       1.768   5.472  23.249  0.00  0.00    +0.180 C 
BRANCH  37  38
ATOM     38  C   UNL     1       1.301   4.753  22.004  0.00  0.00    -0.026 A 
ATOM     39  C   UNL     1       0.174   5.197  21.296  0.00  0.00    +0.007 A 
ATOM     40  C   UNL     1      -0.248   4.529  20.142  0.00  0.00    +0.019 A 
ATOM     41  C   UNL     1       0.448   3.407  19.683  0.00  0.00    +0.052 A 
ATOM     42  C   UNL     1       1.558   2.944  20.395  0.00  0.00    +0.019 A 
ATOM     43  C   UNL     1       1.979   3.611  21.550  0.00  0.00    +0.007 A 
BRANCH  41  44
ATOM     44  C   UNL     1       0.026   2.736  18.486  0.00  0.00    +0.099 C 
ATOM     45  N   UNL     1      -0.311   2.184  17.523  0.00  0.00    -0.191 NA
ENDBRANCH  41  44
ENDBRANCH  37  38
ENDBRANCH  35  37
ENDBRANCH  31  33
ENDBRANCH  30  31
ENDBRANCH  26  30
ENDBRANCH  25  28
ENDBRANCH   1  25
TORSDOF 16
