REMARK VINA RESULT:    -5.438      2.255      8.826
REMARK INTER + INTRA:         -13.855
REMARK INTER:                 -11.528
REMARK INTRA:                  -2.327
REMARK UNBOUND:                -2.852
REMARK  Name = lig_assembled_11.pdb
REMARK  22 active torsions:
REMARK  status: ('A' for Active; 'I' for Inactive)
REMARK    1  A    between atoms: _2  and  _9
REMARK    2  A    between atoms: _4  and  _21
REMARK    3  A    between atoms: _5  and  _9
REMARK    4  A    between atoms: _5  and  _13
REMARK    5  A    between atoms: _6  and  _7
REMARK    6  A    between atoms: _6  and  _21
REMARK    7  A    between atoms: _9  and  _10
REMARK    8  A    between atoms: _10  and  _11
REMARK    9  A    between atoms: _11  and  _12
REMARK   10  A    between atoms: _12  and  _15
REMARK   11  A    between atoms: _17  and  _37
REMARK   12  A    between atoms: _19  and  _25
REMARK   13  A    between atoms: _20  and  _24
REMARK   14  A    between atoms: _24  and  _25
REMARK   15  A    between atoms: _27  and  _28
REMARK   16  A    between atoms: _29  and  _30
REMARK   17  A    between atoms: _31  and  _33
REMARK   18  A    between atoms: _33  and  _34
REMARK   19  A    between atoms: _33  and  _35
REMARK   20  A    between atoms: _35  and  _36
REMARK   21  A    between atoms: _35  and  _37
REMARK   22  A    between atoms: _38  and  _40
REMARK                            x       y       z     vdW  Elec       q    Type
REMARK                         _______ _______ _______ _____ _____    ______ ____
ROOT
ATOM      1  C   UNL     1      16.616   0.374  26.490  0.00  0.00    +0.163 C 
ENDROOT
BRANCH   1   2
ATOM      2  O   UNL     1      15.341   1.037  26.510  0.00  0.00    -0.388 OA
ATOM      3  H   UNL     1      15.241   1.513  27.338  0.00  0.00    +0.210 HD
ENDBRANCH   1   2
BRANCH   1   4
ATOM      4  C   UNL     1      16.648  -0.722  25.411  0.00  0.00    +0.175 C 
BRANCH   4   5
ATOM      5  C   UNL     1      17.634  -0.392  24.281  0.00  0.00    +0.176 C 
ATOM      6  O   UNL     1      17.012   0.603  23.421  0.00  0.00    -0.332 OA
ATOM      7  C   UNL     1      17.854   1.121  22.339  0.00  0.00    +0.277 C 
ATOM      8  C   UNL     1      18.406  -0.042  21.479  0.00  0.00    +0.110 C 
ATOM      9  C   UNL     1      19.049  -1.140  22.351  0.00  0.00    +0.143 C 
ATOM     10  C   UNL     1      18.088  -1.604  23.446  0.00  0.00    +0.133 C 
BRANCH  10  11
ATOM     11  N   UNL     1      18.742  -2.587  24.324  0.00  0.00    -0.308 N 
ATOM     12  H   UNL     1      19.596  -2.310  24.789  0.00  0.00    +0.149 HD
ATOM     13  C   UNL     1      18.283  -3.821  24.546  0.00  0.00    +0.210 C 
ATOM     14  C   UNL     1      16.994  -4.222  23.803  0.00  0.00    +0.109 C 
ATOM     15  O   UNL     1      18.844  -4.619  25.298  0.00  0.00    -0.276 OA
ENDBRANCH  10  11
BRANCH   7  16
ATOM     16  C   UNL     1      19.029   1.945  22.906  0.00  0.00    +0.414 C 
ATOM     17  O   UNL     1      18.875   2.628  23.918  0.00  0.00    -0.240 OA
ATOM     18  O   UNL     1      20.129   1.927  22.353  0.00  0.00    -0.240 OA
ENDBRANCH   7  16
BRANCH   7  19
ATOM     19  O   UNL     1      17.030   1.964  21.493  0.00  0.00    -0.343 OA
ATOM     20  C   UNL     1      17.082   1.650  20.079  0.00  0.00    +0.198 C 
ENDBRANCH   7  19
BRANCH   9  21
ATOM     21  O   UNL     1      19.406  -2.257  21.535  0.00  0.00    -0.390 OA
ATOM     22  H   UNL     1      19.900  -2.892  22.059  0.00  0.00    +0.210 HD
ENDBRANCH   9  21
ENDBRANCH   4   5
BRANCH   4  23
ATOM     23  O   UNL     1      15.327  -0.929  24.873  0.00  0.00    -0.387 OA
ATOM     24  H   UNL     1      14.967  -0.089  24.576  0.00  0.00    +0.210 HD
ENDBRANCH   4  23
ENDBRANCH   1   4
BRANCH   1  25
ATOM     25  C   UNL     1      17.726   1.385  26.222  0.00  0.00    +0.141 C 
BRANCH  25  28
ATOM     26  C   UNL     1      18.432   2.525  28.298  0.00  0.00    +0.401 C 
ATOM     27  O   UNL     1      19.200   1.624  28.643  0.00  0.00    -0.226 OA
ATOM     28  N   UNL     1      17.699   2.494  27.184  0.00  0.00    -0.279 N 
ATOM     29  H   UNL     1      17.091   3.277  26.991  0.00  0.00    +0.152 HD
BRANCH  26  30
ATOM     30  O   UNL     1      18.301   3.682  29.128  0.00  0.00    -0.444 OA
BRANCH  30  31
ATOM     31  C   UNL     1      19.576   4.314  29.272  0.00  0.00    +0.292 C 
BRANCH  31  33
ATOM     32  N   UNL     1      18.683   6.303  28.100  0.00  0.00    -0.131 NA
ATOM     33  C   UNL     1      19.711   5.426  28.313  0.00  0.00    +0.120 A 
ATOM     34  C   UNL     1      20.779   5.787  27.524  0.00  0.00    +0.138 A 
ATOM     35  N   UNL     1      20.328   6.865  26.818  0.00  0.00    -0.238 N 
ATOM     36  N   UNL     1      19.075   7.188  27.193  0.00  0.00    -0.065 NA
BRANCH  35  37
ATOM     37  C   UNL     1      21.025   7.742  25.884  0.00  0.00    +0.217 C 
BRANCH  37  38
ATOM     38  C   UNL     1      21.060   9.200  26.319  0.00  0.00    +0.330 C 
ATOM     39  O   UNL     1      21.943   9.730  26.975  0.00  0.00    -0.249 OA
BRANCH  38  40
ATOM     40  O   UNL     1      19.982   9.921  25.919  0.00  0.00    -0.479 OA
ATOM     41  H   UNL     1      20.151  10.816  25.565  0.00  0.00    +0.295 HD
ENDBRANCH  38  40
ENDBRANCH  37  38
BRANCH  37  42
ATOM     42  C   UNL     1      20.514   7.567  24.442  0.00  0.00    +0.049 C 
BRANCH  42  43
ATOM     43  C   UNL     1      20.168   6.124  24.051  0.00  0.00    +0.123 C 
BRANCH  43  44
ATOM     44  C   UNL     1      18.671   5.914  24.029  0.00  0.00    +0.305 C 
ATOM     45  O   UNL     1      17.911   6.404  23.211  0.00  0.00    -0.251 OA
BRANCH  44  46
ATOM     46  O   UNL     1      18.242   5.128  25.042  0.00  0.00    -0.481 OA
ATOM     47  H   UNL     1      17.520   5.513  25.575  0.00  0.00    +0.295 HD
ENDBRANCH  44  46
ENDBRANCH  43  44
ENDBRANCH  42  43
ENDBRANCH  37  42
ENDBRANCH  35  37
ENDBRANCH  31  33
ENDBRANCH  30  31
ENDBRANCH  26  30
ENDBRANCH  25  28
ENDBRANCH   1  25
TORSDOF 20
