REMARK VINA RESULT:    -6.630     12.261     14.622
REMARK INTER + INTRA:         -13.110
REMARK INTER:                 -10.697
REMARK INTRA:                  -2.413
REMARK UNBOUND:                -1.636
REMARK  Name = lig_assembled_52.pdb
REMARK  16 active torsions:
REMARK  status: ('A' for Active; 'I' for Inactive)
REMARK    1  A    between atoms: _2  and  _10
REMARK    2  A    between atoms: _5  and  _18
REMARK    3  A    between atoms: _7  and  _8
REMARK    4  A    between atoms: _7  and  _18
REMARK    5  A    between atoms: _14  and  _34
REMARK    6  A    between atoms: _16  and  _22
REMARK    7  A    between atoms: _17  and  _21
REMARK    8  A    between atoms: _21  and  _22
REMARK    9  A    between atoms: _24  and  _25
REMARK   10  A    between atoms: _26  and  _27
REMARK   11  A    between atoms: _28  and  _30
REMARK   12  A    between atoms: _30  and  _31
REMARK   13  A    between atoms: _30  and  _32
REMARK   14  A    between atoms: _32  and  _33
REMARK   15  A    between atoms: _32  and  _34
REMARK   16  A    between atoms: _35  and  _37
REMARK                            x       y       z     vdW  Elec       q    Type
REMARK                         _______ _______ _______ _____ _____    ______ ____
ROOT
ATOM      1  C   UNL     1      17.562   4.058  22.414  0.00  0.00    +0.163 C 
ENDROOT
BRANCH   1   2
ATOM      2  O   UNL     1      16.837   5.200  22.900  0.00  0.00    -0.388 OA
ATOM      3  H   UNL     1      15.898   5.000  22.915  0.00  0.00    +0.210 HD
ENDBRANCH   1   2
BRANCH   1   4
ATOM      4  C   UNL     1      16.626   3.138  21.637  0.00  0.00    +0.141 C 
BRANCH   4   7
ATOM      5  C   UNL     1      17.565   1.213  20.404  0.00  0.00    +0.401 C 
ATOM      6  O   UNL     1      17.533   1.778  19.309  0.00  0.00    -0.226 OA
ATOM      7  N   UNL     1      17.155   1.771  21.544  0.00  0.00    -0.279 N 
ATOM      8  H   UNL     1      17.211   1.224  22.391  0.00  0.00    +0.152 HD
BRANCH   5   9
ATOM      9  O   UNL     1      18.063  -0.125  20.481  0.00  0.00    -0.444 OA
BRANCH   9  10
ATOM     10  C   UNL     1      18.887  -0.263  21.641  0.00  0.00    +0.292 C 
BRANCH  10  12
ATOM     11  N   UNL     1      19.078  -2.644  22.282  0.00  0.00    -0.131 NA
ATOM     12  C   UNL     1      18.466  -1.433  22.433  0.00  0.00    +0.121 A 
ATOM     13  C   UNL     1      17.483  -1.544  23.389  0.00  0.00    +0.143 A 
ATOM     14  N   UNL     1      17.544  -2.852  23.814  0.00  0.00    -0.218 N 
ATOM     15  N   UNL     1      18.511  -3.501  23.121  0.00  0.00    -0.060 NA
BRANCH  14  16
ATOM     16  C   UNL     1      16.781  -3.492  24.812  0.00  0.00    +0.085 A 
ATOM     17  C   UNL     1      15.942  -2.780  25.674  0.00  0.00    +0.031 A 
ATOM     18  C   UNL     1      15.229  -3.468  26.654  0.00  0.00    +0.022 A 
ATOM     19  C   UNL     1      15.377  -4.843  26.736  0.00  0.00    +0.111 A 
ATOM     20  N   UNL     1      16.172  -5.560  25.913  0.00  0.00    -0.261 NA
ATOM     21  C   UNL     1      16.858  -4.872  24.968  0.00  0.00    +0.138 A 
ENDBRANCH  14  16
ENDBRANCH  10  12
ENDBRANCH   9  10
ENDBRANCH   5   9
ENDBRANCH   4   7
ENDBRANCH   1   4
BRANCH   1  22
ATOM     22  C   UNL     1      18.201   3.277  23.576  0.00  0.00    +0.175 C 
BRANCH  22  23
ATOM     23  C   UNL     1      18.304   4.124  24.853  0.00  0.00    +0.176 C 
ATOM     24  O   UNL     1      19.559   4.856  24.805  0.00  0.00    -0.332 OA
ATOM     25  C   UNL     1      19.783   5.804  25.900  0.00  0.00    +0.277 C 
ATOM     26  C   UNL     1      19.644   5.093  27.269  0.00  0.00    +0.110 C 
ATOM     27  C   UNL     1      18.338   4.276  27.356  0.00  0.00    +0.143 C 
ATOM     28  C   UNL     1      18.206   3.324  26.166  0.00  0.00    +0.133 C 
BRANCH  28  29
ATOM     29  N   UNL     1      16.918   2.614  26.214  0.00  0.00    -0.308 N 
ATOM     30  H   UNL     1      16.074   3.163  26.130  0.00  0.00    +0.149 HD
ATOM     31  C   UNL     1      16.792   1.293  26.362  0.00  0.00    +0.210 C 
ATOM     32  C   UNL     1      18.097   0.488  26.515  0.00  0.00    +0.109 C 
ATOM     33  O   UNL     1      15.701   0.723  26.385  0.00  0.00    -0.276 OA
ENDBRANCH  28  29
BRANCH  25  34
ATOM     34  C   UNL     1      18.780   6.975  25.823  0.00  0.00    +0.414 C 
ATOM     35  O   UNL     1      18.741   7.817  26.719  0.00  0.00    -0.240 OA
ATOM     36  O   UNL     1      18.012   7.077  24.866  0.00  0.00    -0.240 OA
ENDBRANCH  25  34
BRANCH  27  37
ATOM     37  O   UNL     1      18.323   3.520  28.567  0.00  0.00    -0.390 OA
ATOM     38  H   UNL     1      18.274   4.117  29.317  0.00  0.00    +0.210 HD
ENDBRANCH  27  37
BRANCH  25  39
ATOM     39  O   UNL     1      21.137   6.313  25.784  0.00  0.00    -0.343 OA
ATOM     40  C   UNL     1      21.724   6.197  24.463  0.00  0.00    +0.198 C 
ENDBRANCH  25  39
ENDBRANCH  22  23
BRANCH  22  41
ATOM     41  O   UNL     1      19.505   2.796  23.193  0.00  0.00    -0.387 OA
ATOM     42  H   UNL     1      19.427   2.253  22.405  0.00  0.00    +0.210 HD
ENDBRANCH  22  41
ENDBRANCH   1  22
TORSDOF 14
