REMARK VINA RESULT:    -5.749     10.125     13.897
REMARK INTER + INTRA:         -13.115
REMARK INTER:                 -11.527
REMARK INTRA:                  -1.588
REMARK UNBOUND:                -2.326
REMARK  Name = lig_assembled_32.pdb
REMARK  19 active torsions:
REMARK  status: ('A' for Active; 'I' for Inactive)
REMARK    1  A    between atoms: _2  and  _9
REMARK    2  A    between atoms: _4  and  _17
REMARK    3  A    between atoms: _5  and  _10
REMARK    4  A    between atoms: _5  and  _11
REMARK    5  A    between atoms: _6  and  _7
REMARK    6  A    between atoms: _6  and  _17
REMARK    7  A    between atoms: _9  and  _10
REMARK    8  A    between atoms: _13  and  _33
REMARK    9  A    between atoms: _15  and  _21
REMARK   10  A    between atoms: _16  and  _20
REMARK   11  A    between atoms: _20  and  _21
REMARK   12  A    between atoms: _23  and  _24
REMARK   13  A    between atoms: _25  and  _26
REMARK   14  A    between atoms: _27  and  _29
REMARK   15  A    between atoms: _29  and  _30
REMARK   16  A    between atoms: _29  and  _31
REMARK   17  A    between atoms: _31  and  _32
REMARK   18  A    between atoms: _31  and  _33
REMARK   19  A    between atoms: _34  and  _36
REMARK                            x       y       z     vdW  Elec       q    Type
REMARK                         _______ _______ _______ _____ _____    ______ ____
ROOT
ATOM      1  C   UNL     1      18.673   5.829  24.015  0.00  0.00    +0.163 C 
ENDROOT
BRANCH   1   2
ATOM      2  O   UNL     1      17.581   6.108  23.123  0.00  0.00    -0.388 OA
ATOM      3  H   UNL     1      17.820   6.832  22.539  0.00  0.00    +0.210 HD
ENDBRANCH   1   2
BRANCH   1   4
ATOM      4  C   UNL     1      19.186   4.391  23.824  0.00  0.00    +0.175 C 
BRANCH   4   5
ATOM      5  C   UNL     1      18.410   3.382  24.684  0.00  0.00    +0.176 C 
ATOM      6  O   UNL     1      19.274   2.971  25.779  0.00  0.00    -0.332 OA
ATOM      7  C   UNL     1      18.661   2.082  26.771  0.00  0.00    +0.277 C 
ATOM      8  C   UNL     1      18.061   0.833  26.080  0.00  0.00    +0.110 C 
ATOM      9  C   UNL     1      17.160   1.219  24.888  0.00  0.00    +0.143 C 
ATOM     10  C   UNL     1      17.896   2.147  23.921  0.00  0.00    +0.133 C 
BRANCH  10  11
ATOM     11  N   UNL     1      17.000   2.577  22.836  0.00  0.00    -0.308 N 
ATOM     12  H   UNL     1      16.221   3.174  23.077  0.00  0.00    +0.149 HD
ATOM     13  C   UNL     1      17.149   2.231  21.555  0.00  0.00    +0.210 C 
ATOM     14  C   UNL     1      18.331   1.300  21.225  0.00  0.00    +0.109 C 
ATOM     15  O   UNL     1      16.391   2.619  20.665  0.00  0.00    -0.276 OA
ENDBRANCH  10  11
BRANCH   7  16
ATOM     16  C   UNL     1      17.555   2.819  27.555  0.00  0.00    +0.414 C 
ATOM     17  O   UNL     1      17.850   3.587  28.469  0.00  0.00    -0.240 OA
ATOM     18  O   UNL     1      16.369   2.644  27.274  0.00  0.00    -0.240 OA
ENDBRANCH   7  16
BRANCH   7  19
ATOM     19  O   UNL     1      19.699   1.645  27.684  0.00  0.00    -0.343 OA
ATOM     20  C   UNL     1      19.503   0.323  28.247  0.00  0.00    +0.198 C 
ENDBRANCH   7  19
BRANCH   9  21
ATOM     21  O   UNL     1      16.752   0.041  24.191  0.00  0.00    -0.390 OA
ATOM     22  H   UNL     1      17.287  -0.702  24.477  0.00  0.00    +0.210 HD
ENDBRANCH   9  21
ENDBRANCH   4   5
BRANCH   4  23
ATOM     23  O   UNL     1      20.594   4.322  24.126  0.00  0.00    -0.387 OA
ATOM     24  H   UNL     1      21.074   4.925  23.554  0.00  0.00    +0.210 HD
ENDBRANCH   4  23
ENDBRANCH   1   4
BRANCH   1  25
ATOM     25  C   UNL     1      19.812   6.813  23.768  0.00  0.00    +0.141 C 
BRANCH  25  28
ATOM     26  C   UNL     1      20.474   7.507  26.046  0.00  0.00    +0.401 C 
ATOM     27  O   UNL     1      20.910   6.397  26.359  0.00  0.00    -0.226 OA
ATOM     28  N   UNL     1      19.937   7.789  24.858  0.00  0.00    -0.279 N 
ATOM     29  H   UNL     1      19.598   8.728  24.698  0.00  0.00    +0.152 HD
BRANCH  26  30
ATOM     30  O   UNL     1      20.532   8.571  27.000  0.00  0.00    -0.444 OA
BRANCH  30  31
ATOM     31  C   UNL     1      19.412   9.440  26.815  0.00  0.00    +0.292 C 
BRANCH  31  33
ATOM     32  N   UNL     1      17.962  10.836  28.256  0.00  0.00    -0.131 NA
ATOM     33  C   UNL     1      18.780   9.746  28.112  0.00  0.00    +0.120 A 
ATOM     34  C   UNL     1      18.868   9.087  29.319  0.00  0.00    +0.137 A 
ATOM     35  N   UNL     1      18.092   9.832  30.153  0.00  0.00    -0.251 N 
ATOM     36  N   UNL     1      17.548  10.880  29.514  0.00  0.00    -0.065 NA
BRANCH  35  37
ATOM     37  C   UNL     1      17.817   9.611  31.555  0.00  0.00    +0.156 C 
BRANCH  37  38
ATOM     38  C   UNL     1      17.486  10.907  32.283  0.00  0.00    +0.143 C 
BRANCH  38  39
ATOM     39  C   UNL     1      16.009  10.996  32.536  0.00  0.00    +0.306 C 
ATOM     40  O   UNL     1      15.422  10.431  33.445  0.00  0.00    -0.251 OA
BRANCH  39  41
ATOM     41  O   UNL     1      15.369  11.769  31.631  0.00  0.00    -0.481 OA
ATOM     42  H   UNL     1      15.610  12.716  31.670  0.00  0.00    +0.295 HD
ENDBRANCH  39  41
ENDBRANCH  38  39
ENDBRANCH  37  38
ENDBRANCH  35  37
ENDBRANCH  31  33
ENDBRANCH  30  31
ENDBRANCH  26  30
ENDBRANCH  25  28
ENDBRANCH   1  25
TORSDOF 17
