REMARK VINA RESULT:    -5.398     20.742     23.279
REMARK INTER + INTRA:         -12.458
REMARK INTER:                 -10.422
REMARK INTRA:                  -2.036
REMARK UNBOUND:                -2.326
REMARK  Name = lig_assembled_32.pdb
REMARK  19 active torsions:
REMARK  status: ('A' for Active; 'I' for Inactive)
REMARK    1  A    between atoms: _2  and  _9
REMARK    2  A    between atoms: _4  and  _17
REMARK    3  A    between atoms: _5  and  _10
REMARK    4  A    between atoms: _5  and  _11
REMARK    5  A    between atoms: _6  and  _7
REMARK    6  A    between atoms: _6  and  _17
REMARK    7  A    between atoms: _9  and  _10
REMARK    8  A    between atoms: _13  and  _33
REMARK    9  A    between atoms: _15  and  _21
REMARK   10  A    between atoms: _16  and  _20
REMARK   11  A    between atoms: _20  and  _21
REMARK   12  A    between atoms: _23  and  _24
REMARK   13  A    between atoms: _25  and  _26
REMARK   14  A    between atoms: _27  and  _29
REMARK   15  A    between atoms: _29  and  _30
REMARK   16  A    between atoms: _29  and  _31
REMARK   17  A    between atoms: _31  and  _32
REMARK   18  A    between atoms: _31  and  _33
REMARK   19  A    between atoms: _34  and  _36
REMARK                            x       y       z     vdW  Elec       q    Type
REMARK                         _______ _______ _______ _____ _____    ______ ____
ROOT
ATOM      1  C   UNL     1       8.706  23.983  25.436  0.00  0.00    +0.163 C 
ENDROOT
BRANCH   1   2
ATOM      2  O   UNL     1       8.889  25.322  25.924  0.00  0.00    -0.388 OA
ATOM      3  H   UNL     1       9.637  25.726  25.478  0.00  0.00    +0.210 HD
ENDBRANCH   1   2
BRANCH   1   4
ATOM      4  C   UNL     1       8.419  23.982  23.925  0.00  0.00    +0.175 C 
BRANCH   4   5
ATOM      5  C   UNL     1       7.803  25.308  23.453  0.00  0.00    +0.176 C 
ATOM      6  O   UNL     1       6.531  25.007  22.816  0.00  0.00    -0.332 OA
ATOM      7  C   UNL     1       5.743  26.170  22.394  0.00  0.00    +0.277 C 
ATOM      8  C   UNL     1       6.585  27.088  21.474  0.00  0.00    +0.110 C 
ATOM      9  C   UNL     1       7.961  27.409  22.096  0.00  0.00    +0.143 C 
ATOM     10  C   UNL     1       8.692  26.129  22.501  0.00  0.00    +0.133 C 
BRANCH  10  11
ATOM     11  N   UNL     1       9.962  26.451  23.170  0.00  0.00    -0.308 N 
ATOM     12  H   UNL     1       9.922  26.984  24.028  0.00  0.00    +0.149 HD
ATOM     13  C   UNL     1      11.165  26.086  22.719  0.00  0.00    +0.210 C 
ATOM     14  C   UNL     1      11.194  25.297  21.396  0.00  0.00    +0.109 C 
ATOM     15  O   UNL     1      12.211  26.357  23.308  0.00  0.00    -0.276 OA
ENDBRANCH  10  11
BRANCH   7  16
ATOM     16  C   UNL     1       5.254  26.973  23.617  0.00  0.00    +0.414 C 
ATOM     17  O   UNL     1       4.756  26.393  24.581  0.00  0.00    -0.240 OA
ATOM     18  O   UNL     1       5.358  28.200  23.640  0.00  0.00    -0.240 OA
ENDBRANCH   7  16
BRANCH   7  19
ATOM     19  O   UNL     1       4.602  25.688  21.638  0.00  0.00    -0.343 OA
ATOM     20  C   UNL     1       3.936  26.690  20.830  0.00  0.00    +0.198 C 
ENDBRANCH   7  19
BRANCH   9  21
ATOM     21  O   UNL     1       8.758  28.129  21.154  0.00  0.00    -0.390 OA
ATOM     22  H   UNL     1       9.688  27.975  21.338  0.00  0.00    +0.210 HD
ENDBRANCH   9  21
ENDBRANCH   4   5
BRANCH   4  23
ATOM     23  O   UNL     1       7.553  22.882  23.584  0.00  0.00    -0.387 OA
ATOM     24  H   UNL     1       6.663  23.210  23.430  0.00  0.00    +0.210 HD
ENDBRANCH   4  23
ENDBRANCH   1   4
BRANCH   1  25
ATOM     25  C   UNL     1       9.952  23.149  25.719  0.00  0.00    +0.141 C 
BRANCH  25  28
ATOM     26  C   UNL     1      12.319  23.788  26.026  0.00  0.00    +0.401 C 
ATOM     27  O   UNL     1      12.456  23.139  27.066  0.00  0.00    -0.226 OA
ATOM     28  N   UNL     1      11.181  23.854  25.334  0.00  0.00    -0.279 N 
ATOM     29  H   UNL     1      11.163  24.420  24.498  0.00  0.00    +0.152 HD
BRANCH  26  30
ATOM     30  O   UNL     1      13.432  24.525  25.515  0.00  0.00    -0.444 OA
BRANCH  30  31
ATOM     31  C   UNL     1      14.650  23.898  25.926  0.00  0.00    +0.292 C 
BRANCH  31  33
ATOM     32  N   UNL     1      14.934  21.836  24.587  0.00  0.00    -0.131 NA
ATOM     33  C   UNL     1      15.248  23.153  24.803  0.00  0.00    +0.120 A 
ATOM     34  C   UNL     1      16.147  23.565  23.844  0.00  0.00    +0.137 A 
ATOM     35  N   UNL     1      16.347  22.452  23.086  0.00  0.00    -0.251 N 
ATOM     36  N   UNL     1      15.617  21.415  23.532  0.00  0.00    -0.065 NA
BRANCH  35  37
ATOM     37  C   UNL     1      17.203  22.296  21.931  0.00  0.00    +0.156 C 
BRANCH  37  38
ATOM     38  C   UNL     1      16.499  22.698  20.642  0.00  0.00    +0.143 C 
BRANCH  38  39
ATOM     39  C   UNL     1      15.526  21.632  20.229  0.00  0.00    +0.306 C 
ATOM     40  O   UNL     1      14.435  21.842  19.723  0.00  0.00    -0.251 OA
BRANCH  39  41
ATOM     41  O   UNL     1      15.977  20.385  20.488  0.00  0.00    -0.481 OA
ATOM     42  H   UNL     1      16.162  19.851  19.691  0.00  0.00    +0.295 HD
ENDBRANCH  39  41
ENDBRANCH  38  39
ENDBRANCH  37  38
ENDBRANCH  35  37
ENDBRANCH  31  33
ENDBRANCH  30  31
ENDBRANCH  26  30
ENDBRANCH  25  28
ENDBRANCH   1  25
TORSDOF 17
