REMARK VINA RESULT:    -6.162     19.089     21.869
REMARK INTER + INTRA:         -13.341
REMARK INTER:                  -8.962
REMARK INTRA:                  -4.379
REMARK UNBOUND:                -1.955
REMARK  Name = lig_assembled_78.pdb
REMARK  18 active torsions:
REMARK  status: ('A' for Active; 'I' for Inactive)
REMARK    1  A    between atoms: _2  and  _9
REMARK    2  A    between atoms: _4  and  _21
REMARK    3  A    between atoms: _6  and  _7
REMARK    4  A    between atoms: _6  and  _21
REMARK    5  A    between atoms: _9  and  _41
REMARK    6  A    between atoms: _10  and  _41
REMARK    7  A    between atoms: _17  and  _37
REMARK    8  A    between atoms: _19  and  _25
REMARK    9  A    between atoms: _20  and  _24
REMARK   10  A    between atoms: _24  and  _25
REMARK   11  A    between atoms: _27  and  _28
REMARK   12  A    between atoms: _29  and  _30
REMARK   13  A    between atoms: _31  and  _33
REMARK   14  A    between atoms: _33  and  _34
REMARK   15  A    between atoms: _33  and  _35
REMARK   16  A    between atoms: _35  and  _36
REMARK   17  A    between atoms: _35  and  _37
REMARK   18  A    between atoms: _38  and  _40
REMARK                            x       y       z     vdW  Elec       q    Type
REMARK                         _______ _______ _______ _____ _____    ______ ____
ROOT
ATOM      1  C   UNL     1      -3.396  21.571  24.759  0.00  0.00    +0.163 C 
ENDROOT
BRANCH   1   2
ATOM      2  O   UNL     1      -2.592  22.754  24.623  0.00  0.00    -0.388 OA
ATOM      3  H   UNL     1      -3.158  23.529  24.632  0.00  0.00    +0.210 HD
ENDBRANCH   1   2
BRANCH   1   4
ATOM      4  C   UNL     1      -3.155  20.604  23.587  0.00  0.00    +0.175 C 
BRANCH   4   5
ATOM      5  C   UNL     1      -2.702  21.338  22.317  0.00  0.00    +0.176 C 
ATOM      6  O   UNL     1      -3.857  22.021  21.759  0.00  0.00    -0.332 OA
ATOM      7  C   UNL     1      -3.591  22.867  20.591  0.00  0.00    +0.277 C 
ATOM      8  C   UNL     1      -2.880  22.052  19.483  0.00  0.00    +0.110 C 
ATOM      9  C   UNL     1      -1.662  21.281  20.036  0.00  0.00    +0.143 C 
ATOM     10  C   UNL     1      -2.052  20.437  21.250  0.00  0.00    +0.133 C 
BRANCH  10  11
ATOM     11  N   UNL     1      -0.867  19.776  21.819  0.00  0.00    -0.308 N 
ATOM     12  H   UNL     1      -0.128  20.363  22.181  0.00  0.00    +0.149 HD
ATOM     13  C   UNL     1      -0.704  18.452  21.890  0.00  0.00    +0.210 C 
ATOM     14  C   UNL     1      -1.837  17.586  21.306  0.00  0.00    +0.109 C 
ATOM     15  O   UNL     1       0.292  17.927  22.386  0.00  0.00    -0.276 OA
ENDBRANCH  10  11
BRANCH   7  16
ATOM     16  C   UNL     1      -2.718  24.078  20.981  0.00  0.00    +0.414 C 
ATOM     17  O   UNL     1      -2.743  24.516  22.130  0.00  0.00    -0.240 OA
ATOM     18  O   UNL     1      -1.989  24.617  20.147  0.00  0.00    -0.240 OA
ENDBRANCH   7  16
BRANCH   7  19
ATOM     19  O   UNL     1      -4.864  23.330  20.072  0.00  0.00    -0.343 OA
ATOM     20  C   UNL     1      -5.005  23.248  18.631  0.00  0.00    +0.198 C 
ENDBRANCH   7  19
BRANCH   9  21
ATOM     21  O   UNL     1      -1.130  20.429  19.021  0.00  0.00    -0.390 OA
ATOM     22  H   UNL     1      -1.342  20.789  18.156  0.00  0.00    +0.210 HD
ENDBRANCH   9  21
ENDBRANCH   4   5
BRANCH   4  23
ATOM     23  O   UNL     1      -4.348  19.840  23.321  0.00  0.00    -0.387 OA
ATOM     24  H   UNL     1      -4.106  18.970  22.995  0.00  0.00    +0.210 HD
ENDBRANCH   4  23
ENDBRANCH   1   4
BRANCH   1  25
ATOM     25  C   UNL     1      -3.072  20.869  26.074  0.00  0.00    +0.141 C 
BRANCH  25  28
ATOM     26  C   UNL     1      -4.655  19.784  27.630  0.00  0.00    +0.401 C 
ATOM     27  O   UNL     1      -4.378  20.525  28.577  0.00  0.00    -0.226 OA
ATOM     28  N   UNL     1      -4.088  19.870  26.426  0.00  0.00    -0.279 N 
ATOM     29  H   UNL     1      -4.375  19.211  25.716  0.00  0.00    +0.152 HD
BRANCH  26  30
ATOM     30  O   UNL     1      -5.637  18.761  27.814  0.00  0.00    -0.444 OA
BRANCH  30  31
ATOM     31  C   UNL     1      -6.914  19.243  27.387  0.00  0.00    +0.292 C 
BRANCH  31  33
ATOM     32  N   UNL     1      -6.996  19.917  25.003  0.00  0.00    -0.131 NA
ATOM     33  C   UNL     1      -7.124  18.944  25.958  0.00  0.00    +0.120 A 
ATOM     34  C   UNL     1      -7.455  17.755  25.346  0.00  0.00    +0.139 A 
ATOM     35  N   UNL     1      -7.452  18.059  24.017  0.00  0.00    -0.230 N 
ATOM     36  N   UNL     1      -7.222  19.368  23.818  0.00  0.00    -0.064 NA
BRANCH  35  37
ATOM     37  C   UNL     1      -7.735  17.198  22.895  0.00  0.00    +0.316 C 
BRANCH  37  38
ATOM     38  S   UNL     1      -6.291  16.739  21.972  0.00  0.00    +0.017 S 
ATOM     39  O   UNL     1      -5.097  17.086  22.716  0.00  0.00    -0.168 OA
ATOM     40  O   UNL     1      -6.492  15.391  21.470  0.00  0.00    -0.168 OA
BRANCH  38  41
ATOM     41  C   UNL     1      -6.315  17.826  20.561  0.00  0.00    +0.090 A 
ATOM     42  C   UNL     1      -5.168  18.561  20.245  0.00  0.00    +0.027 A 
ATOM     43  C   UNL     1      -5.175  19.394  19.127  0.00  0.00    +0.002 A 
ATOM     44  C   UNL     1      -6.312  19.474  18.322  0.00  0.00    +0.000 A 
ATOM     45  C   UNL     1      -7.447  18.723  18.630  0.00  0.00    +0.002 A 
ATOM     46  C   UNL     1      -7.454  17.894  19.753  0.00  0.00    +0.027 A 
ENDBRANCH  38  41
ENDBRANCH  37  38
ENDBRANCH  35  37
ENDBRANCH  31  33
ENDBRANCH  30  31
ENDBRANCH  26  30
ENDBRANCH  25  28
ENDBRANCH   1  25
TORSDOF 16
