REMARK VINA RESULT:    -6.070     15.016     16.674
REMARK INTER + INTRA:         -13.017
REMARK INTER:                 -11.179
REMARK INTRA:                  -1.838
REMARK UNBOUND:                -1.802
REMARK  Name = lig_assembled_36.pdb
REMARK  18 active torsions:
REMARK  status: ('A' for Active; 'I' for Inactive)
REMARK    1  A    between atoms: _2  and  _10
REMARK    2  A    between atoms: _5  and  _21
REMARK    3  A    between atoms: _7  and  _8
REMARK    4  A    between atoms: _7  and  _21
REMARK    5  A    between atoms: _10  and  _11
REMARK    6  A    between atoms: _14  and  _15
REMARK    7  A    between atoms: _17  and  _37
REMARK    8  A    between atoms: _19  and  _25
REMARK    9  A    between atoms: _20  and  _24
REMARK   10  A    between atoms: _24  and  _25
REMARK   11  A    between atoms: _27  and  _28
REMARK   12  A    between atoms: _29  and  _30
REMARK   13  A    between atoms: _31  and  _33
REMARK   14  A    between atoms: _33  and  _34
REMARK   15  A    between atoms: _33  and  _35
REMARK   16  A    between atoms: _35  and  _36
REMARK   17  A    between atoms: _35  and  _37
REMARK   18  A    between atoms: _38  and  _40
REMARK                            x       y       z     vdW  Elec       q    Type
REMARK                         _______ _______ _______ _____ _____    ______ ____
ROOT
ATOM      1  C   UNL     1       4.431  -0.593  30.776  0.00  0.00    +0.163 C 
ENDROOT
BRANCH   1   2
ATOM      2  O   UNL     1       5.846  -0.351  30.845  0.00  0.00    -0.388 OA
ATOM      3  H   UNL     1       6.275  -1.088  31.286  0.00  0.00    +0.210 HD
ENDBRANCH   1   2
BRANCH   1   4
ATOM      4  C   UNL     1       3.641   0.614  31.310  0.00  0.00    +0.175 C 
BRANCH   4   5
ATOM      5  C   UNL     1       4.518   1.552  32.152  0.00  0.00    +0.176 C 
ATOM      6  O   UNL     1       5.126   0.764  33.212  0.00  0.00    -0.332 OA
ATOM      7  C   UNL     1       6.088   1.477  34.059  0.00  0.00    +0.277 C 
ATOM      8  C   UNL     1       5.441   2.750  34.659  0.00  0.00    +0.110 C 
ATOM      9  C   UNL     1       4.753   3.604  33.573  0.00  0.00    +0.143 C 
ATOM     10  C   UNL     1       3.777   2.763  32.750  0.00  0.00    +0.133 C 
BRANCH  10  11
ATOM     11  N   UNL     1       3.194   3.567  31.664  0.00  0.00    -0.308 N 
ATOM     12  H   UNL     1       3.817   3.922  30.953  0.00  0.00    +0.149 HD
ATOM     13  C   UNL     1       1.894   3.857  31.558  0.00  0.00    +0.210 C 
ATOM     14  C   UNL     1       0.974   3.323  32.672  0.00  0.00    +0.109 C 
ATOM     15  O   UNL     1       1.431   4.521  30.629  0.00  0.00    -0.276 OA
ENDBRANCH  10  11
BRANCH   7  16
ATOM     16  C   UNL     1       7.343   1.867  33.253  0.00  0.00    +0.414 C 
ATOM     17  O   UNL     1       7.896   1.041  32.527  0.00  0.00    -0.240 OA
ATOM     18  O   UNL     1       7.804   3.007  33.328  0.00  0.00    -0.240 OA
ENDBRANCH   7  16
BRANCH   7  19
ATOM     19  O   UNL     1       6.462   0.597  35.150  0.00  0.00    -0.343 OA
ATOM     20  C   UNL     1       6.100  -0.795  34.966  0.00  0.00    +0.198 C 
ENDBRANCH   7  19
BRANCH   9  21
ATOM     21  O   UNL     1       4.045   4.682  34.186  0.00  0.00    -0.390 OA
ATOM     22  H   UNL     1       3.120   4.643  33.932  0.00  0.00    +0.210 HD
ENDBRANCH   9  21
ENDBRANCH   4   5
BRANCH   4  23
ATOM     23  O   UNL     1       2.510   0.164  32.084  0.00  0.00    -0.387 OA
ATOM     24  H   UNL     1       2.732   0.186  33.018  0.00  0.00    +0.210 HD
ENDBRANCH   4  23
ENDBRANCH   1   4
BRANCH   1  25
ATOM     25  C   UNL     1       4.019  -0.873  29.334  0.00  0.00    +0.141 C 
BRANCH  25  28
ATOM     26  C   UNL     1       2.478   0.088  27.658  0.00  0.00    +0.401 C 
ATOM     27  O   UNL     1       3.046  -0.437  26.697  0.00  0.00    -0.226 OA
ATOM     28  N   UNL     1       2.869  -0.057  28.925  0.00  0.00    -0.279 N 
ATOM     29  H   UNL     1       2.345   0.422  29.643  0.00  0.00    +0.152 HD
BRANCH  26  30
ATOM     30  O   UNL     1       1.332   0.910  27.423  0.00  0.00    -0.444 OA
BRANCH  30  31
ATOM     31  C   UNL     1       1.635   2.263  27.770  0.00  0.00    +0.292 C 
BRANCH  31  33
ATOM     32  N   UNL     1       0.232   3.943  26.609  0.00  0.00    -0.131 NA
ATOM     33  C   UNL     1       1.355   3.158  26.632  0.00  0.00    +0.120 A 
ATOM     34  C   UNL     1       2.090   3.389  25.490  0.00  0.00    +0.137 A 
ATOM     35  N   UNL     1       1.410   4.393  24.865  0.00  0.00    -0.247 N 
ATOM     36  N   UNL     1       0.266   4.684  25.511  0.00  0.00    -0.065 NA
BRANCH  35  37
ATOM     37  C   UNL     1       1.794   5.124  23.673  0.00  0.00    +0.180 C 
BRANCH  37  38
ATOM     38  C   UNL     1       1.783   4.229  22.455  0.00  0.00    -0.026 A 
ATOM     39  C   UNL     1       1.802   2.833  22.586  0.00  0.00    +0.007 A 
ATOM     40  C   UNL     1       1.787   2.013  21.452  0.00  0.00    +0.019 A 
ATOM     41  C   UNL     1       1.758   2.579  20.174  0.00  0.00    +0.052 A 
ATOM     42  C   UNL     1       1.763   3.969  20.034  0.00  0.00    +0.019 A 
ATOM     43  C   UNL     1       1.780   4.788  21.167  0.00  0.00    +0.007 A 
BRANCH  41  44
ATOM     44  C   UNL     1       1.721   1.735  19.013  0.00  0.00    +0.099 C 
ATOM     45  N   UNL     1       1.700   1.061  18.070  0.00  0.00    -0.191 NA
ENDBRANCH  41  44
ENDBRANCH  37  38
ENDBRANCH  35  37
ENDBRANCH  31  33
ENDBRANCH  30  31
ENDBRANCH  26  30
ENDBRANCH  25  28
ENDBRANCH   1  25
TORSDOF 16
