REMARK VINA RESULT:    -6.714      1.867      3.893
REMARK INTER + INTRA:         -14.709
REMARK INTER:                 -12.503
REMARK INTRA:                  -2.206
REMARK UNBOUND:                -3.089
REMARK  Name = lig_assembled_91.pdb
REMARK  16 active torsions:
REMARK  status: ('A' for Active; 'I' for Inactive)
REMARK    1  A    between atoms: _2  and  _10
REMARK    2  A    between atoms: _5  and  _26
REMARK    3  A    between atoms: _7  and  _8
REMARK    4  A    between atoms: _7  and  _26
REMARK    5  A    between atoms: _22  and  _42
REMARK    6  A    between atoms: _24  and  _30
REMARK    7  A    between atoms: _25  and  _29
REMARK    8  A    between atoms: _29  and  _30
REMARK    9  A    between atoms: _32  and  _33
REMARK   10  A    between atoms: _34  and  _35
REMARK   11  A    between atoms: _36  and  _38
REMARK   12  A    between atoms: _38  and  _39
REMARK   13  A    between atoms: _38  and  _40
REMARK   14  A    between atoms: _40  and  _41
REMARK   15  A    between atoms: _40  and  _42
REMARK   16  A    between atoms: _43  and  _45
REMARK                            x       y       z     vdW  Elec       q    Type
REMARK                         _______ _______ _______ _____ _____    ______ ____
ROOT
ATOM      1  C   UNL     1       0.113   2.090  31.869  0.00  0.00    +0.401 C 
ATOM      2  O   UNL     1       0.256   0.997  32.421  0.00  0.00    -0.226 OA
ATOM      3  N   UNL     1       0.804   3.184  32.191  0.00  0.00    -0.279 N 
ATOM      4  H   UNL     1       0.622   4.033  31.673  0.00  0.00    +0.152 HD
ENDROOT
BRANCH   3   5
ATOM      5  C   UNL     1       1.814   3.226  33.256  0.00  0.00    +0.141 C 
BRANCH   5   6
ATOM      6  C   UNL     1       3.230   3.113  32.701  0.00  0.00    +0.163 C 
BRANCH   6   7
ATOM      7  O   UNL     1       3.230   3.395  31.292  0.00  0.00    -0.388 OA
ATOM      8  H   UNL     1       3.668   4.234  31.133  0.00  0.00    +0.210 HD
ENDBRANCH   6   7
BRANCH   6   9
ATOM      9  C   UNL     1       4.156   4.081  33.456  0.00  0.00    +0.175 C 
BRANCH   9  10
ATOM     10  C   UNL     1       5.556   3.489  33.675  0.00  0.00    +0.176 C 
ATOM     11  O   UNL     1       5.395   2.128  34.161  0.00  0.00    -0.332 OA
ATOM     12  C   UNL     1       6.635   1.363  34.328  0.00  0.00    +0.277 C 
ATOM     13  C   UNL     1       7.625   2.130  35.238  0.00  0.00    +0.110 C 
ATOM     14  C   UNL     1       7.805   3.593  34.779  0.00  0.00    +0.143 C 
ATOM     15  C   UNL     1       6.453   4.293  34.635  0.00  0.00    +0.133 C 
BRANCH  15  16
ATOM     16  N   UNL     1       6.632   5.657  34.114  0.00  0.00    -0.308 N 
ATOM     17  H   UNL     1       6.943   5.760  33.158  0.00  0.00    +0.149 HD
ATOM     18  C   UNL     1       6.411   6.768  34.821  0.00  0.00    +0.210 C 
ATOM     19  C   UNL     1       5.963   6.577  36.283  0.00  0.00    +0.109 C 
ATOM     20  O   UNL     1       6.555   7.898  34.354  0.00  0.00    -0.276 OA
ENDBRANCH  15  16
BRANCH  12  21
ATOM     21  C   UNL     1       7.296   1.089  32.961  0.00  0.00    +0.414 C 
ATOM     22  O   UNL     1       6.613   0.732  32.002  0.00  0.00    -0.240 OA
ATOM     23  O   UNL     1       8.512   1.225  32.818  0.00  0.00    -0.240 OA
ENDBRANCH  12  21
BRANCH  14  24
ATOM     24  O   UNL     1       8.603   4.301  35.728  0.00  0.00    -0.390 OA
ATOM     25  H   UNL     1       9.360   3.765  35.974  0.00  0.00    +0.210 HD
ENDBRANCH  14  24
BRANCH  12  26
ATOM     26  O   UNL     1       6.303   0.106  34.971  0.00  0.00    -0.343 OA
ATOM     27  C   UNL     1       6.743  -0.013  36.348  0.00  0.00    +0.198 C 
ENDBRANCH  12  26
ENDBRANCH   9  10
BRANCH   9  28
ATOM     28  O   UNL     1       3.568   4.447  34.720  0.00  0.00    -0.387 OA
ATOM     29  H   UNL     1       3.484   5.402  34.770  0.00  0.00    +0.210 HD
ENDBRANCH   9  28
ENDBRANCH   6   9
ENDBRANCH   5   6
ENDBRANCH   3   5
BRANCH   1  30
ATOM     30  O   UNL     1      -0.843   2.215  30.813  0.00  0.00    -0.444 OA
BRANCH  30  31
ATOM     31  C   UNL     1      -0.650   3.460  30.138  0.00  0.00    +0.292 C 
BRANCH  31  33
ATOM     32  N   UNL     1       1.516   3.923  29.048  0.00  0.00    -0.131 NA
ATOM     33  C   UNL     1       0.305   3.303  29.023  0.00  0.00    +0.121 A 
ATOM     34  C   UNL     1       0.204   2.569  27.863  0.00  0.00    +0.143 A 
ATOM     35  N   UNL     1       1.375   2.806  27.172  0.00  0.00    -0.218 N 
ATOM     36  N   UNL     1       2.158   3.616  27.930  0.00  0.00    -0.060 NA
BRANCH  35  37
ATOM     37  C   UNL     1       1.783   2.341  25.885  0.00  0.00    +0.085 A 
ATOM     38  C   UNL     1       1.632   3.185  24.727  0.00  0.00    +0.026 A 
ATOM     39  C   UNL     1       2.042   2.620  23.503  0.00  0.00    +0.074 A 
ATOM     40  C   UNL     1       1.943   3.336  22.320  0.00  0.00    +0.028 A 
ATOM     41  C   UNL     1       1.447   4.634  22.277  0.00  0.00    +0.002 A 
ATOM     42  C   UNL     1       1.066   5.242  23.457  0.00  0.00    +0.001 A 
ATOM     43  N   UNL     1       2.563   1.401  23.388  0.00  0.00    -0.247 NA
ATOM     44  C   UNL     1       2.729   0.634  24.464  0.00  0.00    +0.074 A 
ATOM     45  C   UNL     1       3.279  -0.622  24.228  0.00  0.00    +0.028 A 
ATOM     46  C   UNL     1       3.479  -1.549  25.246  0.00  0.00    +0.002 A 
ATOM     47  C   UNL     1       3.107  -1.219  26.533  0.00  0.00    +0.001 A 
ATOM     48  C   UNL     1       2.546   0.037  26.787  0.00  0.00    +0.012 A 
ATOM     49  C   UNL     1       1.176   4.540  24.662  0.00  0.00    +0.012 A 
ATOM     50  C   UNL     1       2.355   1.020  25.762  0.00  0.00    +0.026 A 
ENDBRANCH  35  37
ENDBRANCH  31  33
ENDBRANCH  30  31
ENDBRANCH   1  30
TORSDOF 14
