REMARK VINA RESULT:    -6.154     14.685     18.740
REMARK INTER + INTRA:         -14.487
REMARK INTER:                 -12.457
REMARK INTRA:                  -2.030
REMARK UNBOUND:                -2.036
REMARK  Name = lig_assembled_45.pdb
REMARK  24 active torsions:
REMARK  status: ('A' for Active; 'I' for Inactive)
REMARK    1  A    between atoms: _2  and  _10
REMARK    2  A    between atoms: _3  and  _12
REMARK    3  A    between atoms: _3  and  _13
REMARK    4  A    between atoms: _3  and  _14
REMARK    5  A    between atoms: _3  and  _16
REMARK    6  A    between atoms: _5  and  _21
REMARK    7  A    between atoms: _6  and  _16
REMARK    8  A    between atoms: _7  and  _8
REMARK    9  A    between atoms: _7  and  _21
REMARK   10  A    between atoms: _10  and  _11
REMARK   11  A    between atoms: _11  and  _12
REMARK   12  A    between atoms: _14  and  _15
REMARK   13  A    between atoms: _17  and  _37
REMARK   14  A    between atoms: _19  and  _25
REMARK   15  A    between atoms: _20  and  _24
REMARK   16  A    between atoms: _24  and  _25
REMARK   17  A    between atoms: _27  and  _28
REMARK   18  A    between atoms: _29  and  _30
REMARK   19  A    between atoms: _31  and  _33
REMARK   20  A    between atoms: _33  and  _34
REMARK   21  A    between atoms: _33  and  _35
REMARK   22  A    between atoms: _35  and  _36
REMARK   23  A    between atoms: _35  and  _37
REMARK   24  A    between atoms: _38  and  _40
REMARK                            x       y       z     vdW  Elec       q    Type
REMARK                         _______ _______ _______ _____ _____    ______ ____
ROOT
ATOM      1  C   UNL     1      16.950   1.807  26.206  0.00  0.00    +0.163 C 
ENDROOT
BRANCH   1   2
ATOM      2  O   UNL     1      16.060   2.723  26.864  0.00  0.00    -0.388 OA
ATOM      3  H   UNL     1      16.065   2.551  27.809  0.00  0.00    +0.210 HD
ENDBRANCH   1   2
BRANCH   1   4
ATOM      4  C   UNL     1      16.463   1.495  24.780  0.00  0.00    +0.175 C 
BRANCH   4   5
ATOM      5  C   UNL     1      17.568   0.871  23.915  0.00  0.00    +0.176 C 
ATOM      6  O   UNL     1      17.569   1.553  22.631  0.00  0.00    -0.332 OA
ATOM      7  C   UNL     1      18.635   1.159  21.705  0.00  0.00    +0.277 C 
ATOM      8  C   UNL     1      18.621  -0.373  21.484  0.00  0.00    +0.110 C 
ATOM      9  C   UNL     1      18.588  -1.141  22.822  0.00  0.00    +0.143 C 
ATOM     10  C   UNL     1      17.443  -0.650  23.709  0.00  0.00    +0.133 C 
BRANCH  10  11
ATOM     11  N   UNL     1      17.475  -1.328  25.014  0.00  0.00    -0.308 N 
ATOM     12  H   UNL     1      18.224  -1.092  25.650  0.00  0.00    +0.149 HD
ATOM     13  C   UNL     1      16.579  -2.234  25.414  0.00  0.00    +0.210 C 
ATOM     14  C   UNL     1      15.464  -2.590  24.412  0.00  0.00    +0.109 C 
ATOM     15  O   UNL     1      16.622  -2.775  26.520  0.00  0.00    -0.276 OA
ENDBRANCH  10  11
BRANCH   7  16
ATOM     16  C   UNL     1      20.015   1.590  22.245  0.00  0.00    +0.414 C 
ATOM     17  O   UNL     1      21.044   1.128  21.754  0.00  0.00    -0.240 OA
ATOM     18  O   UNL     1      20.098   2.399  23.170  0.00  0.00    -0.240 OA
ENDBRANCH   7  16
BRANCH   9  19
ATOM     19  O   UNL     1      18.424  -2.538  22.572  0.00  0.00    -0.390 OA
ATOM     20  H   UNL     1      17.494  -2.768  22.639  0.00  0.00    +0.210 HD
ENDBRANCH   9  19
BRANCH   7  21
ATOM     21  O   UNL     1      18.385   1.807  20.431  0.00  0.00    -0.343 OA
ATOM     22  C   UNL     1      16.995   1.830  20.018  0.00  0.00    +0.198 C 
ENDBRANCH   7  21
ENDBRANCH   4   5
BRANCH   4  23
ATOM     23  O   UNL     1      15.959   2.692  24.155  0.00  0.00    -0.387 OA
ATOM     24  H   UNL     1      15.169   2.482  23.651  0.00  0.00    +0.210 HD
ENDBRANCH   4  23
ENDBRANCH   1   4
BRANCH   1  25
ATOM     25  C   UNL     1      18.355   2.396  26.147  0.00  0.00    +0.141 C 
BRANCH  25  28
ATOM     26  C   UNL     1      18.779   4.827  26.281  0.00  0.00    +0.401 C 
ATOM     27  O   UNL     1      19.204   4.784  27.437  0.00  0.00    -0.226 OA
ATOM     28  N   UNL     1      18.355   3.759  25.602  0.00  0.00    -0.279 N 
ATOM     29  H   UNL     1      18.014   3.897  24.661  0.00  0.00    +0.152 HD
BRANCH  26  30
ATOM     30  O   UNL     1      18.723   6.087  25.607  0.00  0.00    -0.444 OA
BRANCH  30  31
ATOM     31  C   UNL     1      20.015   6.699  25.631  0.00  0.00    +0.292 C 
BRANCH  31  33
ATOM     32  N   UNL     1      20.788   9.055  25.587  0.00  0.00    -0.131 NA
ATOM     33  C   UNL     1      19.904   8.112  26.038  0.00  0.00    +0.120 A 
ATOM     34  C   UNL     1      18.989   8.716  26.870  0.00  0.00    +0.137 A 
ATOM     35  N   UNL     1      19.378  10.020  26.875  0.00  0.00    -0.251 N 
ATOM     36  N   UNL     1      20.456  10.226  26.115  0.00  0.00    -0.065 NA
BRANCH  35  37
ATOM     37  C   UNL     1      18.774  11.114  27.608  0.00  0.00    +0.150 C 
BRANCH  37  38
ATOM     38  C   UNL     1      18.243  10.691  28.972  0.00  0.00    +0.074 C 
BRANCH  38  39
ATOM     39  C   UNL     1      19.229  10.748  30.146  0.00  0.00    +0.134 C 
BRANCH  39  40
ATOM     40  N   UNL     1      18.683  10.436  31.578  0.00  0.00    +0.241 N 
ATOM     41  C   UNL     1      19.543  11.184  32.611  0.00  0.00    +0.192 C 
BRANCH  40  42
ATOM     42  C   UNL     1      18.881   8.898  31.791  0.00  0.00    +0.129 C 
ATOM     43  C   UNL     1      17.604   8.080  31.634  0.00  0.00    +0.060 C 
ENDBRANCH  40  42
BRANCH  40  44
ATOM     44  C   UNL     1      17.204  10.803  31.800  0.00  0.00    +0.129 C 
ATOM     45  C   UNL     1      16.926  11.499  33.122  0.00  0.00    +0.060 C 
ENDBRANCH  40  44
ENDBRANCH  39  40
ENDBRANCH  38  39
ENDBRANCH  37  38
ENDBRANCH  35  37
ENDBRANCH  31  33
ENDBRANCH  30  31
ENDBRANCH  26  30
ENDBRANCH  25  28
ENDBRANCH   1  25
TORSDOF 19
