REMARK VINA RESULT:    -5.769      1.829      2.648
REMARK INTER + INTRA:         -13.707
REMARK INTER:                 -11.739
REMARK INTRA:                  -1.968
REMARK UNBOUND:                -2.036
REMARK  Name = lig_assembled_45.pdb
REMARK  24 active torsions:
REMARK  status: ('A' for Active; 'I' for Inactive)
REMARK    1  A    between atoms: _2  and  _10
REMARK    2  A    between atoms: _3  and  _12
REMARK    3  A    between atoms: _3  and  _13
REMARK    4  A    between atoms: _3  and  _14
REMARK    5  A    between atoms: _3  and  _16
REMARK    6  A    between atoms: _5  and  _21
REMARK    7  A    between atoms: _6  and  _16
REMARK    8  A    between atoms: _7  and  _8
REMARK    9  A    between atoms: _7  and  _21
REMARK   10  A    between atoms: _10  and  _11
REMARK   11  A    between atoms: _11  and  _12
REMARK   12  A    between atoms: _14  and  _15
REMARK   13  A    between atoms: _17  and  _37
REMARK   14  A    between atoms: _19  and  _25
REMARK   15  A    between atoms: _20  and  _24
REMARK   16  A    between atoms: _24  and  _25
REMARK   17  A    between atoms: _27  and  _28
REMARK   18  A    between atoms: _29  and  _30
REMARK   19  A    between atoms: _31  and  _33
REMARK   20  A    between atoms: _33  and  _34
REMARK   21  A    between atoms: _33  and  _35
REMARK   22  A    between atoms: _35  and  _36
REMARK   23  A    between atoms: _35  and  _37
REMARK   24  A    between atoms: _38  and  _40
REMARK                            x       y       z     vdW  Elec       q    Type
REMARK                         _______ _______ _______ _____ _____    ______ ____
ROOT
ATOM      1  C   UNL     1       3.493   3.434  32.514  0.00  0.00    +0.163 C 
ENDROOT
BRANCH   1   2
ATOM      2  O   UNL     1       3.612   4.844  32.263  0.00  0.00    -0.388 OA
ATOM      3  H   UNL     1       2.759   5.195  31.997  0.00  0.00    +0.210 HD
ENDBRANCH   1   2
BRANCH   1   4
ATOM      4  C   UNL     1       3.286   3.157  34.013  0.00  0.00    +0.175 C 
BRANCH   4   5
ATOM      5  C   UNL     1       4.172   4.051  34.894  0.00  0.00    +0.176 C 
ATOM      6  O   UNL     1       5.486   4.127  34.275  0.00  0.00    -0.332 OA
ATOM      7  C   UNL     1       6.442   5.029  34.924  0.00  0.00    +0.277 C 
ATOM      8  C   UNL     1       6.589   4.672  36.424  0.00  0.00    +0.110 C 
ATOM      9  C   UNL     1       5.217   4.549  37.118  0.00  0.00    +0.143 C 
ATOM     10  C   UNL     1       4.301   3.589  36.357  0.00  0.00    +0.133 C 
BRANCH  10  11
ATOM     11  N   UNL     1       2.968   3.547  36.978  0.00  0.00    -0.308 N 
ATOM     12  H   UNL     1       2.390   4.373  36.910  0.00  0.00    +0.149 HD
ATOM     13  C   UNL     1       2.473   2.490  37.627  0.00  0.00    +0.210 C 
ATOM     14  C   UNL     1       3.389   1.256  37.736  0.00  0.00    +0.109 C 
ATOM     15  O   UNL     1       1.346   2.478  38.125  0.00  0.00    -0.276 OA
ENDBRANCH  10  11
BRANCH   7  16
ATOM     16  C   UNL     1       5.989   6.497  34.786  0.00  0.00    +0.414 C 
ATOM     17  O   UNL     1       5.128   6.806  33.962  0.00  0.00    -0.240 OA
ATOM     18  O   UNL     1       6.483   7.373  35.497  0.00  0.00    -0.240 OA
ENDBRANCH   7  16
BRANCH   9  19
ATOM     19  O   UNL     1       5.393   4.074  38.453  0.00  0.00    -0.390 OA
ATOM     20  H   UNL     1       4.574   4.182  38.942  0.00  0.00    +0.210 HD
ENDBRANCH   9  19
BRANCH   7  21
ATOM     21  O   UNL     1       7.731   4.853  34.283  0.00  0.00    -0.343 OA
ATOM     22  C   UNL     1       8.455   3.661  34.680  0.00  0.00    +0.198 C 
ENDBRANCH   7  21
ENDBRANCH   4   5
BRANCH   4  23
ATOM     23  O   UNL     1       3.540   1.768  34.302  0.00  0.00    -0.387 OA
ATOM     24  H   UNL     1       2.812   1.409  34.815  0.00  0.00    +0.210 HD
ENDBRANCH   4  23
ENDBRANCH   1   4
BRANCH   1  25
ATOM     25  C   UNL     1       2.322   2.860  31.724  0.00  0.00    +0.141 C 
BRANCH  25  28
ATOM     26  C   UNL     1       2.045   2.994  29.272  0.00  0.00    +0.401 C 
ATOM     27  O   UNL     1       2.181   1.781  29.096  0.00  0.00    -0.226 OA
ATOM     28  N   UNL     1       2.102   3.585  30.466  0.00  0.00    -0.279 N 
ATOM     29  H   UNL     1       1.988   4.588  30.509  0.00  0.00    +0.152 HD
BRANCH  26  30
ATOM     30  O   UNL     1       1.815   3.839  28.142  0.00  0.00    -0.444 OA
BRANCH  30  31
ATOM     31  C   UNL     1       1.742   3.042  26.957  0.00  0.00    +0.292 C 
BRANCH  31  33
ATOM     32  N   UNL     1       0.383   4.752  25.782  0.00  0.00    -0.131 NA
ATOM     33  C   UNL     1       1.448   3.891  25.787  0.00  0.00    +0.120 A 
ATOM     34  C   UNL     1       2.106   3.983  24.582  0.00  0.00    +0.137 A 
ATOM     35  N   UNL     1       1.388   4.918  23.901  0.00  0.00    -0.251 N 
ATOM     36  N   UNL     1       0.355   5.376  24.612  0.00  0.00    -0.065 NA
BRANCH  35  37
ATOM     37  C   UNL     1       1.627   5.398  22.555  0.00  0.00    +0.150 C 
BRANCH  37  38
ATOM     38  C   UNL     1       1.854   4.272  21.556  0.00  0.00    +0.074 C 
BRANCH  38  39
ATOM     39  C   UNL     1       0.604   3.565  21.015  0.00  0.00    +0.134 C 
BRANCH  39  40
ATOM     40  N   UNL     1       0.788   2.544  19.844  0.00  0.00    +0.241 N 
ATOM     41  C   UNL     1       2.274   2.511  19.444  0.00  0.00    +0.192 C 
BRANCH  40  42
ATOM     42  C   UNL     1      -0.035   3.112  18.640  0.00  0.00    +0.129 C 
ATOM     43  C   UNL     1      -0.700   4.455  18.923  0.00  0.00    +0.060 C 
ENDBRANCH  40  42
BRANCH  40  44
ATOM     44  C   UNL     1       0.325   1.109  20.158  0.00  0.00    +0.129 C 
ATOM     45  C   UNL     1      -0.138   0.323  18.943  0.00  0.00    +0.060 C 
ENDBRANCH  40  44
ENDBRANCH  39  40
ENDBRANCH  38  39
ENDBRANCH  37  38
ENDBRANCH  35  37
ENDBRANCH  31  33
ENDBRANCH  30  31
ENDBRANCH  26  30
ENDBRANCH  25  28
ENDBRANCH   1  25
TORSDOF 19
