REMARK VINA RESULT:    -7.111     11.882     19.414
REMARK INTER + INTRA:         -14.095
REMARK INTER:                 -11.939
REMARK INTRA:                  -2.155
REMARK UNBOUND:                -1.788
REMARK  Name = lig_assembled_20.pdb
REMARK  16 active torsions:
REMARK  status: ('A' for Active; 'I' for Inactive)
REMARK    1  A    between atoms: _2  and  _11
REMARK    2  A    between atoms: _6  and  _21
REMARK    3  A    between atoms: _8  and  _9
REMARK    4  A    between atoms: _8  and  _21
REMARK    5  A    between atoms: _17  and  _37
REMARK    6  A    between atoms: _19  and  _25
REMARK    7  A    between atoms: _20  and  _24
REMARK    8  A    between atoms: _24  and  _25
REMARK    9  A    between atoms: _27  and  _28
REMARK   10  A    between atoms: _29  and  _30
REMARK   11  A    between atoms: _31  and  _33
REMARK   12  A    between atoms: _33  and  _34
REMARK   13  A    between atoms: _33  and  _35
REMARK   14  A    between atoms: _35  and  _36
REMARK   15  A    between atoms: _35  and  _37
REMARK   16  A    between atoms: _38  and  _40
REMARK                            x       y       z     vdW  Elec       q    Type
REMARK                         _______ _______ _______ _____ _____    ______ ____
ROOT
ATOM      1  C   UNL     1      -2.083   8.355  13.338  0.00  0.00    +0.163 C 
ENDROOT
BRANCH   1   2
ATOM      2  O   UNL     1      -2.330   8.331  11.923  0.00  0.00    -0.388 OA
ATOM      3  H   UNL     1      -2.971   9.010  11.698  0.00  0.00    +0.210 HD
ENDBRANCH   1   2
BRANCH   1   4
ATOM      4  C   UNL     1      -2.392   6.990  13.945  0.00  0.00    +0.141 C 
BRANCH   4   7
ATOM      5  C   UNL     1      -1.830   6.637  16.325  0.00  0.00    +0.401 C 
ATOM      6  O   UNL     1      -2.963   6.907  16.730  0.00  0.00    -0.226 OA
ATOM      7  N   UNL     1      -1.474   6.656  15.040  0.00  0.00    -0.279 N 
ATOM      8  H   UNL     1      -0.517   6.428  14.807  0.00  0.00    +0.152 HD
BRANCH   5   9
ATOM      9  O   UNL     1      -0.820   6.282  17.273  0.00  0.00    -0.444 OA
BRANCH   9  10
ATOM     10  C   UNL     1      -0.581   4.874  17.212  0.00  0.00    +0.292 C 
BRANCH  10  12
ATOM     11  N   UNL     1       1.356   3.678  18.194  0.00  0.00    -0.131 NA
ATOM     12  C   UNL     1       0.235   4.437  18.361  0.00  0.00    +0.121 A 
ATOM     13  C   UNL     1       0.052   4.679  19.701  0.00  0.00    +0.143 A 
ATOM     14  N   UNL     1       1.099   4.043  20.328  0.00  0.00    -0.220 N 
ATOM     15  N   UNL     1       1.877   3.442  19.393  0.00  0.00    -0.060 NA
BRANCH  14  16
ATOM     16  C   UNL     1       1.390   3.979  21.715  0.00  0.00    +0.068 A 
ATOM     17  C   UNL     1       1.531   5.165  22.455  0.00  0.00    +0.030 A 
ATOM     18  C   UNL     1       1.813   5.137  23.828  0.00  0.00    +0.030 A 
ATOM     19  C   UNL     1       1.946   3.881  24.427  0.00  0.00    +0.066 A 
ATOM     20  C   UNL     1       1.815   2.691  23.723  0.00  0.00    +0.021 A 
ATOM     21  C   UNL     1       2.022   1.681  24.687  0.00  0.00    +0.142 A 
ATOM     22  N   UNL     1       2.264   2.173  25.904  0.00  0.00    -0.181 NA
ATOM     23  N   UNL     1       2.211   3.504  25.719  0.00  0.00    -0.277 N 
ATOM     24  H   UNL     1       2.368   4.108  26.517  0.00  0.00    +0.189 HD
ATOM     25  C   UNL     1       1.532   2.729  22.346  0.00  0.00    +0.039 A 
ENDBRANCH  14  16
ENDBRANCH  10  12
ENDBRANCH   9  10
ENDBRANCH   5   9
ENDBRANCH   4   7
ENDBRANCH   1   4
BRANCH   1  26
ATOM     26  C   UNL     1      -2.939   9.430  14.028  0.00  0.00    +0.175 C 
BRANCH  26  27
ATOM     27  C   UNL     1      -3.190  10.641  13.118  0.00  0.00    +0.176 C 
ATOM     28  O   UNL     1      -1.911  11.056  12.563  0.00  0.00    -0.332 OA
ATOM     29  C   UNL     1      -1.969  12.142  11.580  0.00  0.00    +0.277 C 
ATOM     30  C   UNL     1      -2.705  13.369  12.171  0.00  0.00    +0.110 C 
ATOM     31  C   UNL     1      -4.057  12.973  12.802  0.00  0.00    +0.143 C 
ATOM     32  C   UNL     1      -3.880  11.833  13.807  0.00  0.00    +0.133 C 
BRANCH  32  33
ATOM     33  N   UNL     1      -5.185  11.406  14.336  0.00  0.00    -0.308 N 
ATOM     34  H   UNL     1      -5.832  10.967  13.697  0.00  0.00    +0.149 HD
ATOM     35  C   UNL     1      -5.570  11.562  15.605  0.00  0.00    +0.210 C 
ATOM     36  C   UNL     1      -4.571  12.259  16.548  0.00  0.00    +0.109 C 
ATOM     37  O   UNL     1      -6.664  11.181  16.024  0.00  0.00    -0.276 OA
ENDBRANCH  32  33
BRANCH  29  38
ATOM     38  C   UNL     1      -2.688  11.679  10.295  0.00  0.00    +0.414 C 
ATOM     39  O   UNL     1      -3.312  12.487   9.608  0.00  0.00    -0.240 OA
ATOM     40  O   UNL     1      -2.645  10.499   9.946  0.00  0.00    -0.240 OA
ENDBRANCH  29  38
BRANCH  31  41
ATOM     41  O   UNL     1      -4.628  14.101  13.466  0.00  0.00    -0.390 OA
ATOM     42  H   UNL     1      -4.510  14.885  12.924  0.00  0.00    +0.210 HD
ENDBRANCH  31  41
BRANCH  29  43
ATOM     43  O   UNL     1      -0.608  12.533  11.263  0.00  0.00    -0.343 OA
ATOM     44  C   UNL     1      -0.336  13.953  11.382  0.00  0.00    +0.198 C 
ENDBRANCH  29  43
ENDBRANCH  26  27
BRANCH  26  45
ATOM     45  O   UNL     1      -2.312   9.853  15.256  0.00  0.00    -0.387 OA
ATOM     46  H   UNL     1      -2.570  10.756  15.453  0.00  0.00    +0.210 HD
ENDBRANCH  26  45
ENDBRANCH   1  26
TORSDOF 14
