REMARK VINA RESULT:    -6.302     14.364     18.419
REMARK INTER + INTRA:         -13.025
REMARK INTER:                 -10.777
REMARK INTRA:                  -2.248
REMARK UNBOUND:                -2.118
REMARK  Name = lig_assembled_7.pdb
REMARK  19 active torsions:
REMARK  status: ('A' for Active; 'I' for Inactive)
REMARK    1  A    between atoms: _2  and  _9
REMARK    2  A    between atoms: _4  and  _21
REMARK    3  A    between atoms: _5  and  _16
REMARK    4  A    between atoms: _6  and  _7
REMARK    5  A    between atoms: _6  and  _21
REMARK    6  A    between atoms: _10  and  _11
REMARK    7  A    between atoms: _13  and  _14
REMARK    8  A    between atoms: _17  and  _37
REMARK    9  A    between atoms: _19  and  _25
REMARK   10  A    between atoms: _20  and  _24
REMARK   11  A    between atoms: _24  and  _25
REMARK   12  A    between atoms: _27  and  _28
REMARK   13  A    between atoms: _29  and  _30
REMARK   14  A    between atoms: _31  and  _33
REMARK   15  A    between atoms: _33  and  _34
REMARK   16  A    between atoms: _33  and  _35
REMARK   17  A    between atoms: _35  and  _36
REMARK   18  A    between atoms: _35  and  _37
REMARK   19  A    between atoms: _38  and  _40
REMARK                            x       y       z     vdW  Elec       q    Type
REMARK                         _______ _______ _______ _____ _____    ______ ____
ROOT
ATOM      1  C   UNL     1      19.224   6.569  24.809  0.00  0.00    +0.163 C 
ENDROOT
BRANCH   1   2
ATOM      2  O   UNL     1      18.320   7.005  23.780  0.00  0.00    -0.388 OA
ATOM      3  H   UNL     1      17.503   6.504  23.839  0.00  0.00    +0.210 HD
ENDBRANCH   1   2
BRANCH   1   4
ATOM      4  C   UNL     1      20.054   7.747  25.308  0.00  0.00    +0.141 C 
BRANCH   4   7
ATOM      5  C   UNL     1      19.621   9.978  26.279  0.00  0.00    +0.401 C 
ATOM      6  O   UNL     1      20.709  10.444  25.932  0.00  0.00    -0.226 OA
ATOM      7  N   UNL     1      19.235   8.725  26.034  0.00  0.00    -0.279 N 
ATOM      8  H   UNL     1      18.327   8.432  26.368  0.00  0.00    +0.152 HD
BRANCH   5   9
ATOM      9  O   UNL     1      18.704  10.811  26.992  0.00  0.00    -0.444 OA
BRANCH   9  10
ATOM     10  C   UNL     1      19.413  11.568  27.977  0.00  0.00    +0.292 C 
BRANCH  10  12
ATOM     11  N   UNL     1      19.850  11.429  30.399  0.00  0.00    -0.131 NA
ATOM     12  C   UNL     1      19.083  11.083  29.329  0.00  0.00    +0.121 A 
ATOM     13  C   UNL     1      18.049  10.278  29.765  0.00  0.00    +0.143 A 
ATOM     14  N   UNL     1      18.256  10.118  31.120  0.00  0.00    -0.219 N 
ATOM     15  N   UNL     1      19.329  10.868  31.477  0.00  0.00    -0.060 NA
BRANCH  14  16
ATOM     16  C   UNL     1      17.521   9.337  32.070  0.00  0.00    +0.073 A 
ATOM     17  C   UNL     1      17.835   7.953  32.230  0.00  0.00    -0.024 A 
ATOM     18  C   UNL     1      17.117   7.176  33.165  0.00  0.00    +0.008 A 
ATOM     19  C   UNL     1      16.108   7.728  33.949  0.00  0.00    -0.050 A 
ATOM     20  C   UNL     1      15.366   6.874  34.934  0.00  0.00    +0.044 C 
ATOM     21  C   UNL     1      15.806   9.078  33.791  0.00  0.00    +0.008 A 
ATOM     22  C   UNL     1      18.945   7.234  31.494  0.00  0.00    +0.046 C 
ATOM     23  C   UNL     1      16.476   9.896  32.850  0.00  0.00    -0.024 A 
ATOM     24  C   UNL     1      15.912  11.290  32.751  0.00  0.00    +0.046 C 
ENDBRANCH  14  16
ENDBRANCH  10  12
ENDBRANCH   9  10
ENDBRANCH   5   9
ENDBRANCH   4   7
ENDBRANCH   1   4
BRANCH   1  25
ATOM     25  C   UNL     1      20.160   5.465  24.287  0.00  0.00    +0.175 C 
BRANCH  25  26
ATOM     26  C   UNL     1      19.583   4.061  24.518  0.00  0.00    +0.176 C 
ATOM     27  O   UNL     1      18.494   3.864  23.574  0.00  0.00    -0.332 OA
ATOM     28  C   UNL     1      17.887   2.530  23.577  0.00  0.00    +0.277 C 
ATOM     29  C   UNL     1      17.418   2.151  25.003  0.00  0.00    +0.110 C 
ATOM     30  C   UNL     1      18.533   2.374  26.047  0.00  0.00    +0.143 C 
ATOM     31  C   UNL     1      19.096   3.793  25.954  0.00  0.00    +0.133 C 
BRANCH  31  32
ATOM     32  N   UNL     1      20.215   3.966  26.893  0.00  0.00    -0.308 N 
ATOM     33  H   UNL     1      21.068   3.457  26.709  0.00  0.00    +0.149 HD
ATOM     34  C   UNL     1      20.177   4.751  27.973  0.00  0.00    +0.210 C 
ATOM     35  C   UNL     1      18.854   5.492  28.241  0.00  0.00    +0.109 C 
ATOM     36  O   UNL     1      21.135   4.888  28.735  0.00  0.00    -0.276 OA
ENDBRANCH  31  32
BRANCH  28  37
ATOM     37  C   UNL     1      18.887   1.472  23.065  0.00  0.00    +0.414 C 
ATOM     38  O   UNL     1      18.886   0.337  23.539  0.00  0.00    -0.240 OA
ATOM     39  O   UNL     1      19.695   1.754  22.179  0.00  0.00    -0.240 OA
ENDBRANCH  28  37
BRANCH  30  40
ATOM     40  O   UNL     1      18.014   2.159  27.360  0.00  0.00    -0.390 OA
ATOM     41  H   UNL     1      17.088   2.413  27.384  0.00  0.00    +0.210 HD
ENDBRANCH  30  40
BRANCH  28  42
ATOM     42  O   UNL     1      16.726   2.564  22.708  0.00  0.00    -0.343 OA
ATOM     43  C   UNL     1      16.740   3.613  21.707  0.00  0.00    +0.198 C 
ENDBRANCH  28  42
ENDBRANCH  25  26
BRANCH  25  44
ATOM     44  O   UNL     1      21.456   5.578  24.908  0.00  0.00    -0.387 OA
ATOM     45  H   UNL     1      21.987   4.811  24.683  0.00  0.00    +0.210 HD
ENDBRANCH  25  44
ENDBRANCH   1  25
TORSDOF 14
