REMARK VINA RESULT:    -7.172     21.276     24.457
REMARK INTER + INTRA:         -15.318
REMARK INTER:                 -12.210
REMARK INTRA:                  -3.107
REMARK UNBOUND:                -2.067
REMARK  Name = lig_assembled_79.pdb
REMARK  20 active torsions:
REMARK  status: ('A' for Active; 'I' for Inactive)
REMARK    1  A    between atoms: _2  and  _10
REMARK    2  A    between atoms: _5  and  _26
REMARK    3  A    between atoms: _7  and  _8
REMARK    4  A    between atoms: _7  and  _26
REMARK    5  A    between atoms: _10  and  _11
REMARK    6  A    between atoms: _10  and  _12
REMARK    7  A    between atoms: _10  and  _13
REMARK    8  A    between atoms: _13  and  _14
REMARK    9  A    between atoms: _22  and  _42
REMARK   10  A    between atoms: _24  and  _30
REMARK   11  A    between atoms: _25  and  _29
REMARK   12  A    between atoms: _29  and  _30
REMARK   13  A    between atoms: _32  and  _33
REMARK   14  A    between atoms: _34  and  _35
REMARK   15  A    between atoms: _36  and  _38
REMARK   16  A    between atoms: _38  and  _39
REMARK   17  A    between atoms: _38  and  _40
REMARK   18  A    between atoms: _40  and  _41
REMARK   19  A    between atoms: _40  and  _42
REMARK   20  A    between atoms: _43  and  _45
REMARK                            x       y       z     vdW  Elec       q    Type
REMARK                         _______ _______ _______ _____ _____    ______ ____
ROOT
ATOM      1  C   UNL     1      20.162   8.831  26.362  0.00  0.00    +0.401 C 
ATOM      2  O   UNL     1      20.613   9.803  25.751  0.00  0.00    -0.226 OA
ATOM      3  N   UNL     1      19.167   8.902  27.247  0.00  0.00    -0.279 N 
ATOM      4  H   UNL     1      18.860   8.048  27.690  0.00  0.00    +0.152 HD
ENDROOT
BRANCH   3   5
ATOM      5  C   UNL     1      18.492  10.153  27.614  0.00  0.00    +0.141 C 
BRANCH   5   6
ATOM      6  C   UNL     1      18.493  10.378  29.122  0.00  0.00    +0.163 C 
BRANCH   6   7
ATOM      7  O   UNL     1      17.256  10.987  29.529  0.00  0.00    -0.388 OA
ATOM      8  H   UNL     1      17.441  11.783  30.033  0.00  0.00    +0.210 HD
ENDBRANCH   6   7
BRANCH   6   9
ATOM      9  C   UNL     1      18.708   9.036  29.842  0.00  0.00    +0.175 C 
BRANCH   9  10
ATOM     10  C   UNL     1      18.003   8.991  31.205  0.00  0.00    +0.176 C 
ATOM     11  O   UNL     1      18.289  10.238  31.898  0.00  0.00    -0.332 OA
ATOM     12  C   UNL     1      17.607  10.420  33.183  0.00  0.00    +0.277 C 
ATOM     13  C   UNL     1      17.893   9.223  34.122  0.00  0.00    +0.110 C 
ATOM     14  C   UNL     1      17.633   7.874  33.419  0.00  0.00    +0.143 C 
ATOM     15  C   UNL     1      18.388   7.792  32.091  0.00  0.00    +0.133 C 
BRANCH  15  16
ATOM     16  N   UNL     1      18.064   6.540  31.391  0.00  0.00    -0.308 N 
ATOM     17  H   UNL     1      17.130   6.434  31.021  0.00  0.00    +0.149 HD
ATOM     18  C   UNL     1      18.924   5.533  31.212  0.00  0.00    +0.210 C 
ATOM     19  C   UNL     1      20.332   5.715  31.810  0.00  0.00    +0.109 C 
ATOM     20  O   UNL     1      18.630   4.501  30.608  0.00  0.00    -0.276 OA
ENDBRANCH  15  16
BRANCH  12  21
ATOM     21  C   UNL     1      16.084  10.564  32.979  0.00  0.00    +0.414 C 
ATOM     22  O   UNL     1      15.302   9.905  33.663  0.00  0.00    -0.240 OA
ATOM     23  O   UNL     1      15.638  11.337  32.130  0.00  0.00    -0.240 OA
ENDBRANCH  12  21
BRANCH  14  24
ATOM     24  O   UNL     1      18.052   6.802  34.265  0.00  0.00    -0.390 OA
ATOM     25  H   UNL     1      17.784   6.983  35.169  0.00  0.00    +0.210 HD
ENDBRANCH  14  24
BRANCH  12  26
ATOM     26  O   UNL     1      18.132  11.623  33.802  0.00  0.00    -0.343 OA
ATOM     27  C   UNL     1      19.218  12.258  33.083  0.00  0.00    +0.198 C 
ENDBRANCH  12  26
ENDBRANCH   9  10
BRANCH   9  28
ATOM     28  O   UNL     1      20.117   8.779  30.003  0.00  0.00    -0.387 OA
ATOM     29  H   UNL     1      20.248   7.869  30.279  0.00  0.00    +0.210 HD
ENDBRANCH   9  28
ENDBRANCH   6   9
ENDBRANCH   5   6
ENDBRANCH   3   5
BRANCH   1  30
ATOM     30  O   UNL     1      20.723   7.538  26.120  0.00  0.00    -0.444 OA
BRANCH  30  31
ATOM     31  C   UNL     1      19.866   6.803  25.242  0.00  0.00    +0.292 C 
BRANCH  31  33
ATOM     32  N   UNL     1      18.551   5.617  26.959  0.00  0.00    -0.131 NA
ATOM     33  C   UNL     1      19.407   5.565  25.898  0.00  0.00    +0.120 A 
ATOM     34  C   UNL     1      19.711   4.250  25.627  0.00  0.00    +0.138 A 
ATOM     35  N   UNL     1      18.938   3.532  26.497  0.00  0.00    -0.238 N 
ATOM     36  N   UNL     1      18.304   4.377  27.348  0.00  0.00    -0.064 NA
BRANCH  35  37
ATOM     37  C   UNL     1      18.863   2.064  26.754  0.00  0.00    +0.122 C 
ATOM     38  C   UNL     1      18.648   1.896  28.277  0.00  0.00    +0.044 C 
ATOM     39  C   UNL     1      20.195   1.499  26.224  0.00  0.00    +0.044 C 
BRANCH  37  40
ATOM     40  C   UNL     1      17.680   1.375  26.044  0.00  0.00    +0.192 C 
ATOM     41  O   UNL     1      16.646   1.111  26.667  0.00  0.00    -0.289 OA
BRANCH  40  42
ATOM     42  C   UNL     1      17.726   0.977  24.607  0.00  0.00    +0.045 A 
ATOM     43  C   UNL     1      18.142  -0.302  24.255  0.00  0.00    +0.095 A 
ATOM     44  N   UNL     1      18.132  -0.433  22.900  0.00  0.00    -0.360 N 
ATOM     45  H   UNL     1      18.401  -1.264  22.390  0.00  0.00    +0.165 HD
ATOM     46  C   UNL     1      17.712   0.736  22.320  0.00  0.00    +0.047 A 
ATOM     47  C   UNL     1      17.567   1.037  20.958  0.00  0.00    +0.026 A 
ATOM     48  C   UNL     1      17.125   2.313  20.608  0.00  0.00    +0.002 A 
ATOM     49  C   UNL     1      16.836   3.249  21.588  0.00  0.00    +0.001 A 
ATOM     50  C   UNL     1      16.987   2.928  22.942  0.00  0.00    +0.011 A 
ATOM     51  C   UNL     1      17.439   1.647  23.350  0.00  0.00    +0.010 A 
ENDBRANCH  40  42
ENDBRANCH  37  40
ENDBRANCH  35  37
ENDBRANCH  31  33
ENDBRANCH  30  31
ENDBRANCH   1  30
TORSDOF 16
