REMARK VINA RESULT:    -6.535      3.324      5.716
REMARK INTER + INTRA:         -13.757
REMARK INTER:                 -11.606
REMARK INTRA:                  -2.151
REMARK UNBOUND:                -1.873
REMARK  Name = lig_assembled_60.pdb
REMARK  18 active torsions:
REMARK  status: ('A' for Active; 'I' for Inactive)
REMARK    1  A    between atoms: _2  and  _10
REMARK    2  A    between atoms: _3  and  _41
REMARK    3  A    between atoms: _5  and  _21
REMARK    4  A    between atoms: _7  and  _8
REMARK    5  A    between atoms: _7  and  _21
REMARK    6  A    between atoms: _13  and  _41
REMARK    7  A    between atoms: _17  and  _37
REMARK    8  A    between atoms: _19  and  _25
REMARK    9  A    between atoms: _20  and  _24
REMARK   10  A    between atoms: _24  and  _25
REMARK   11  A    between atoms: _27  and  _28
REMARK   12  A    between atoms: _29  and  _30
REMARK   13  A    between atoms: _31  and  _33
REMARK   14  A    between atoms: _33  and  _34
REMARK   15  A    between atoms: _33  and  _35
REMARK   16  A    between atoms: _35  and  _36
REMARK   17  A    between atoms: _35  and  _37
REMARK   18  A    between atoms: _38  and  _40
REMARK                            x       y       z     vdW  Elec       q    Type
REMARK                         _______ _______ _______ _____ _____    ______ ____
ROOT
ATOM      1  C   UNL     1       7.894   1.319  33.301  0.00  0.00    +0.141 C 
ENDROOT
BRANCH   1   4
ATOM      2  C   UNL     1       6.808  -0.586  32.160  0.00  0.00    +0.401 C 
ATOM      3  O   UNL     1       7.858  -1.015  31.676  0.00  0.00    -0.226 OA
ATOM      4  N   UNL     1       6.732   0.503  32.927  0.00  0.00    -0.279 N 
ATOM      5  H   UNL     1       5.823   0.782  33.270  0.00  0.00    +0.152 HD
BRANCH   2   6
ATOM      6  O   UNL     1       5.586  -1.278  31.894  0.00  0.00    -0.444 OA
BRANCH   6   7
ATOM      7  C   UNL     1       4.518  -0.656  32.613  0.00  0.00    +0.292 C 
BRANCH   7   9
ATOM      8  N   UNL     1       2.272   0.228  32.060  0.00  0.00    -0.131 NA
ATOM      9  C   UNL     1       3.552  -0.053  31.676  0.00  0.00    +0.121 A 
ATOM     10  C   UNL     1       3.720   0.327  30.365  0.00  0.00    +0.143 A 
ATOM     11  N   UNL     1       2.513   0.875  29.994  0.00  0.00    -0.220 N 
ATOM     12  N   UNL     1       1.645   0.782  31.031  0.00  0.00    -0.060 NA
BRANCH  11  13
ATOM     13  C   UNL     1       2.162   1.498  28.769  0.00  0.00    +0.067 A 
ATOM     14  C   UNL     1       2.009   0.738  27.599  0.00  0.00    +0.030 A 
ATOM     15  C   UNL     1       1.734   1.369  26.384  0.00  0.00    +0.030 A 
ATOM     16  C   UNL     1       1.596   2.759  26.340  0.00  0.00    +0.105 A 
ATOM     17  C   UNL     1       1.730   3.525  27.502  0.00  0.00    +0.030 A 
ATOM     18  C   UNL     1       2.007   2.893  28.717  0.00  0.00    +0.030 A 
BRANCH  16  19
ATOM     19  S   UNL     1       1.324   3.552  24.783  0.00  0.00    +0.056 S 
ATOM     20  O   UNL     1       1.295   4.983  24.975  0.00  0.00    -0.153 OA
ATOM     21  O   UNL     1       2.151   2.920  23.780  0.00  0.00    -0.153 OA
BRANCH  19  22
ATOM     22  N   UNL     1      -0.253   3.097  24.439  0.00  0.00    -0.204 NA
ATOM     23  H   UNL     1      -0.281   2.590  23.554  0.00  0.00    +0.144 HD
ATOM     24  H   UNL     1      -0.862   3.916  24.464  0.00  0.00    +0.144 HD
ENDBRANCH  19  22
ENDBRANCH  16  19
ENDBRANCH  11  13
ENDBRANCH   7   9
ENDBRANCH   6   7
ENDBRANCH   2   6
ENDBRANCH   1   4
BRANCH   1  25
ATOM     25  C   UNL     1       7.511   2.454  34.245  0.00  0.00    +0.163 C 
BRANCH  25  26
ATOM     26  O   UNL     1       8.262   2.351  35.466  0.00  0.00    -0.388 OA
ATOM     27  H   UNL     1       9.043   2.907  35.410  0.00  0.00    +0.210 HD
ENDBRANCH  25  26
BRANCH  25  28
ATOM     28  C   UNL     1       7.765   3.805  33.555  0.00  0.00    +0.175 C 
BRANCH  28  29
ATOM     29  C   UNL     1       7.135   4.975  34.325  0.00  0.00    +0.176 C 
ATOM     30  O   UNL     1       7.885   5.155  35.558  0.00  0.00    -0.332 OA
ATOM     31  C   UNL     1       7.490   6.303  36.378  0.00  0.00    +0.277 C 
ATOM     32  C   UNL     1       5.974   6.248  36.691  0.00  0.00    +0.110 C 
ATOM     33  C   UNL     1       5.137   6.026  35.414  0.00  0.00    +0.143 C 
ATOM     34  C   UNL     1       5.636   4.808  34.636  0.00  0.00    +0.133 C 
BRANCH  34  35
ATOM     35  N   UNL     1       4.887   4.658  33.378  0.00  0.00    -0.308 N 
ATOM     36  H   UNL     1       5.051   5.337  32.647  0.00  0.00    +0.149 HD
ATOM     37  C   UNL     1       4.005   3.685  33.139  0.00  0.00    +0.210 C 
ATOM     38  C   UNL     1       3.757   2.682  34.282  0.00  0.00    +0.109 C 
ATOM     39  O   UNL     1       3.403   3.575  32.070  0.00  0.00    -0.276 OA
ENDBRANCH  34  35
BRANCH  31  40
ATOM     40  C   UNL     1       7.820   7.628  35.661  0.00  0.00    +0.414 C 
ATOM     41  O   UNL     1       7.807   7.688  34.432  0.00  0.00    -0.240 OA
ATOM     42  O   UNL     1       8.101   8.637  36.310  0.00  0.00    -0.240 OA
ENDBRANCH  31  40
BRANCH  33  43
ATOM     43  O   UNL     1       3.766   5.831  35.765  0.00  0.00    -0.390 OA
ATOM     44  H   UNL     1       3.669   5.879  36.718  0.00  0.00    +0.210 HD
ENDBRANCH  33  43
BRANCH  31  45
ATOM     45  O   UNL     1       8.218   6.231  37.631  0.00  0.00    -0.343 OA
ATOM     46  C   UNL     1       9.569   5.714  37.526  0.00  0.00    +0.198 C 
ENDBRANCH  31  45
ENDBRANCH  28  29
BRANCH  28  47
ATOM     47  O   UNL     1       7.266   3.773  32.203  0.00  0.00    -0.387 OA
ATOM     48  H   UNL     1       6.357   4.082  32.190  0.00  0.00    +0.210 HD
ENDBRANCH  28  47
ENDBRANCH  25  28
ENDBRANCH   1  25
TORSDOF 16
