REMARK VINA RESULT:    -5.247      2.542      8.514
REMARK INTER + INTRA:         -13.381
REMARK INTER:                 -10.947
REMARK INTRA:                  -2.435
REMARK UNBOUND:                -3.380
REMARK  Name = lig_assembled_62.pdb
REMARK  20 active torsions:
REMARK  status: ('A' for Active; 'I' for Inactive)
REMARK    1  A    between atoms: _2  and  _10
REMARK    2  A    between atoms: _5  and  _19
REMARK    3  A    between atoms: _6  and  _10
REMARK    4  A    between atoms: _7  and  _8
REMARK    5  A    between atoms: _7  and  _19
REMARK    6  A    between atoms: _10  and  _11
REMARK    7  A    between atoms: _11  and  _14
REMARK    8  A    between atoms: _12  and  _14
REMARK    9  A    between atoms: _15  and  _35
REMARK   10  A    between atoms: _17  and  _23
REMARK   11  A    between atoms: _18  and  _22
REMARK   12  A    between atoms: _22  and  _23
REMARK   13  A    between atoms: _25  and  _26
REMARK   14  A    between atoms: _27  and  _28
REMARK   15  A    between atoms: _29  and  _31
REMARK   16  A    between atoms: _31  and  _32
REMARK   17  A    between atoms: _31  and  _33
REMARK   18  A    between atoms: _33  and  _34
REMARK   19  A    between atoms: _33  and  _35
REMARK   20  A    between atoms: _36  and  _38
REMARK                            x       y       z     vdW  Elec       q    Type
REMARK                         _______ _______ _______ _____ _____    ______ ____
ROOT
ATOM      1  C   UNL     1      17.529  -1.896  22.720  0.00  0.00    +0.163 C 
ENDROOT
BRANCH   1   2
ATOM      2  O   UNL     1      18.268  -3.126  22.789  0.00  0.00    -0.388 OA
ATOM      3  H   UNL     1      18.941  -3.059  23.471  0.00  0.00    +0.210 HD
ENDBRANCH   1   2
BRANCH   1   4
ATOM      4  C   UNL     1      16.717  -1.669  24.007  0.00  0.00    +0.175 C 
BRANCH   4   5
ATOM      5  C   UNL     1      17.282  -2.462  25.194  0.00  0.00    +0.176 C 
ATOM      6  O   UNL     1      16.523  -3.697  25.309  0.00  0.00    -0.332 OA
ATOM      7  C   UNL     1      16.993  -4.638  26.330  0.00  0.00    +0.277 C 
ATOM      8  C   UNL     1      17.071  -3.942  27.711  0.00  0.00    +0.110 C 
ATOM      9  C   UNL     1      17.842  -2.608  27.634  0.00  0.00    +0.143 C 
ATOM     10  C   UNL     1      17.272  -1.708  26.537  0.00  0.00    +0.133 C 
BRANCH  10  11
ATOM     11  N   UNL     1      18.069  -0.477  26.414  0.00  0.00    -0.308 N 
ATOM     12  H   UNL     1      19.074  -0.569  26.359  0.00  0.00    +0.149 HD
ATOM     13  C   UNL     1      17.552   0.754  26.372  0.00  0.00    +0.210 C 
ATOM     14  C   UNL     1      16.020   0.862  26.485  0.00  0.00    +0.109 C 
ATOM     15  O   UNL     1      18.243   1.766  26.254  0.00  0.00    -0.276 OA
ENDBRANCH  10  11
BRANCH   7  16
ATOM     16  C   UNL     1      18.380  -5.202  25.958  0.00  0.00    +0.414 C 
ATOM     17  O   UNL     1      18.712  -5.301  24.777  0.00  0.00    -0.240 OA
ATOM     18  O   UNL     1      19.165  -5.558  26.837  0.00  0.00    -0.240 OA
ENDBRANCH   7  16
BRANCH   7  19
ATOM     19  O   UNL     1      16.032  -5.722  26.418  0.00  0.00    -0.343 OA
ATOM     20  C   UNL     1      15.095  -5.800  25.314  0.00  0.00    +0.198 C 
ENDBRANCH   7  19
BRANCH   9  21
ATOM     21  O   UNL     1      17.760  -1.930  28.888  0.00  0.00    -0.390 OA
ATOM     22  H   UNL     1      18.511  -1.339  28.983  0.00  0.00    +0.210 HD
ENDBRANCH   9  21
ENDBRANCH   4   5
BRANCH   4  23
ATOM     23  O   UNL     1      15.335  -2.017  23.790  0.00  0.00    -0.387 OA
ATOM     24  H   UNL     1      15.249  -2.972  23.740  0.00  0.00    +0.210 HD
ENDBRANCH   4  23
ENDBRANCH   1   4
BRANCH   1  25
ATOM     25  C   UNL     1      18.484  -0.725  22.507  0.00  0.00    +0.141 C 
BRANCH  25  28
ATOM     26  C   UNL     1      18.102   1.360  21.238  0.00  0.00    +0.401 C 
ATOM     27  O   UNL     1      19.058   1.184  20.479  0.00  0.00    -0.226 OA
ATOM     28  N   UNL     1      17.765   0.522  22.219  0.00  0.00    -0.279 N 
ATOM     29  H   UNL     1      16.970   0.758  22.796  0.00  0.00    +0.152 HD
BRANCH  26  30
ATOM     30  O   UNL     1      17.296   2.530  21.079  0.00  0.00    -0.444 OA
BRANCH  30  31
ATOM     31  C   UNL     1      16.764   2.920  22.348  0.00  0.00    +0.292 C 
BRANCH  31  33
ATOM     32  N   UNL     1      17.057   5.377  22.438  0.00  0.00    -0.131 NA
ATOM     33  C   UNL     1      17.450   4.129  22.841  0.00  0.00    +0.120 A 
ATOM     34  C   UNL     1      18.508   4.252  23.714  0.00  0.00    +0.138 A 
ATOM     35  N   UNL     1      18.723   5.598  23.791  0.00  0.00    -0.237 N 
ATOM     36  N   UNL     1      17.841   6.270  23.027  0.00  0.00    -0.065 NA
BRANCH  35  37
ATOM     37  C   UNL     1      19.700   6.336  24.574  0.00  0.00    +0.219 C 
BRANCH  37  38
ATOM     38  C   UNL     1      20.769   6.922  23.666  0.00  0.00    +0.237 C 
ATOM     39  O   UNL     1      21.838   6.373  23.411  0.00  0.00    -0.274 OA
ATOM     40  N   UNL     1      20.460   8.112  23.064  0.00  0.00    -0.328 N 
ATOM     41  H   UNL     1      19.565   8.574  23.158  0.00  0.00    +0.145 HD
ATOM     42  H   UNL     1      21.151   8.521  22.447  0.00  0.00    +0.145 HD
ENDBRANCH  37  38
BRANCH  37  43
ATOM     43  C   UNL     1      20.321   5.442  25.645  0.00  0.00    +0.195 C 
BRANCH  43  44
ATOM     44  O   UNL     1      20.300   6.127  26.905  0.00  0.00    -0.380 OA
ATOM     45  C   UNL     1      18.982   6.516  27.272  0.00  0.00    +0.194 C 
ENDBRANCH  43  44
ENDBRANCH  37  43
ENDBRANCH  35  37
ENDBRANCH  31  33
ENDBRANCH  30  31
ENDBRANCH  26  30
ENDBRANCH  25  28
ENDBRANCH   1  25
TORSDOF 17
