REMARK VINA RESULT:    -6.914      2.261      4.322
REMARK INTER + INTRA:         -13.820
REMARK INTER:                 -11.748
REMARK INTRA:                  -2.071
REMARK UNBOUND:                -1.853
REMARK  Name = lig_assembled_86.pdb
REMARK  17 active torsions:
REMARK  status: ('A' for Active; 'I' for Inactive)
REMARK    1  A    between atoms: _2  and  _10
REMARK    2  A    between atoms: _3  and  _13
REMARK    3  A    between atoms: _5  and  _21
REMARK    4  A    between atoms: _7  and  _8
REMARK    5  A    between atoms: _7  and  _21
REMARK    6  A    between atoms: _17  and  _37
REMARK    7  A    between atoms: _19  and  _25
REMARK    8  A    between atoms: _20  and  _24
REMARK    9  A    between atoms: _24  and  _25
REMARK   10  A    between atoms: _27  and  _28
REMARK   11  A    between atoms: _29  and  _30
REMARK   12  A    between atoms: _31  and  _33
REMARK   13  A    between atoms: _33  and  _34
REMARK   14  A    between atoms: _33  and  _35
REMARK   15  A    between atoms: _35  and  _36
REMARK   16  A    between atoms: _35  and  _37
REMARK   17  A    between atoms: _38  and  _40
REMARK                            x       y       z     vdW  Elec       q    Type
REMARK                         _______ _______ _______ _____ _____    ______ ____
ROOT
ATOM      1  C   UNL     1       7.070   3.906  33.576  0.00  0.00    +0.163 C 
ENDROOT
BRANCH   1   2
ATOM      2  O   UNL     1       7.734   5.024  32.964  0.00  0.00    -0.388 OA
ATOM      3  H   UNL     1       8.238   4.722  32.206  0.00  0.00    +0.210 HD
ENDBRANCH   1   2
BRANCH   1   4
ATOM      4  C   UNL     1       6.651   2.900  32.508  0.00  0.00    +0.141 C 
BRANCH   4   7
ATOM      5  C   UNL     1       4.412   2.343  31.623  0.00  0.00    +0.401 C 
ATOM      6  O   UNL     1       4.536   1.131  31.813  0.00  0.00    -0.226 OA
ATOM      7  N   UNL     1       5.353   3.242  31.913  0.00  0.00    -0.279 N 
ATOM      8  H   UNL     1       5.162   4.214  31.713  0.00  0.00    +0.152 HD
BRANCH   5   9
ATOM      9  O   UNL     1       3.197   2.836  31.055  0.00  0.00    -0.444 OA
BRANCH   9  10
ATOM     10  C   UNL     1       2.553   1.791  30.321  0.00  0.00    +0.292 C 
BRANCH  10  12
ATOM     11  N   UNL     1       2.171   3.613  28.683  0.00  0.00    -0.131 NA
ATOM     12  C   UNL     1       2.152   2.278  28.988  0.00  0.00    +0.120 A 
ATOM     13  C   UNL     1       1.734   1.574  27.883  0.00  0.00    +0.137 A 
ATOM     14  N   UNL     1       1.550   2.530  26.931  0.00  0.00    -0.248 N 
ATOM     15  N   UNL     1       1.783   3.759  27.423  0.00  0.00    -0.065 NA
BRANCH  14  16
ATOM     16  C   UNL     1       1.164   2.331  25.542  0.00  0.00    +0.112 C 
ATOM     17  C   UNL     1      -0.215   2.949  25.235  0.00  0.00    +0.045 C 
ATOM     18  C   UNL     1      -0.273   3.772  23.945  0.00  0.00    +0.059 C 
ATOM     19  C   UNL     1       0.383   5.144  24.134  0.00  0.00    +0.020 C 
ATOM     20  C   UNL     1       1.824   4.949  23.670  0.00  0.00    +0.020 C 
ATOM     21  C   UNL     1       1.918   3.461  23.325  0.00  0.00    +0.059 C 
ATOM     22  N   UNL     1       0.549   3.206  22.876  0.00  0.00    -0.299 NA
ATOM     23  C   UNL     1       0.247   1.848  22.466  0.00  0.00    +0.105 C 
ATOM     24  C   UNL     1       2.313   2.628  24.551  0.00  0.00    +0.045 C 
ENDBRANCH  14  16
ENDBRANCH  10  12
ENDBRANCH   9  10
ENDBRANCH   5   9
ENDBRANCH   4   7
ENDBRANCH   1   4
BRANCH   1  25
ATOM     25  C   UNL     1       5.831   4.366  34.363  0.00  0.00    +0.175 C 
BRANCH  25  26
ATOM     26  C   UNL     1       6.174   5.438  35.407  0.00  0.00    +0.176 C 
ATOM     27  O   UNL     1       7.568   5.263  35.786  0.00  0.00    -0.332 OA
ATOM     28  C   UNL     1       8.106   6.272  36.703  0.00  0.00    +0.277 C 
ATOM     29  C   UNL     1       7.227   6.372  37.974  0.00  0.00    +0.110 C 
ATOM     30  C   UNL     1       5.733   6.527  37.622  0.00  0.00    +0.143 C 
ATOM     31  C   UNL     1       5.279   5.428  36.660  0.00  0.00    +0.133 C 
BRANCH  31  32
ATOM     32  N   UNL     1       3.877   5.637  36.264  0.00  0.00    -0.308 N 
ATOM     33  H   UNL     1       3.675   6.394  35.627  0.00  0.00    +0.149 HD
ATOM     34  C   UNL     1       2.855   4.890  36.692  0.00  0.00    +0.210 C 
ATOM     35  C   UNL     1       3.194   3.760  37.682  0.00  0.00    +0.109 C 
ATOM     36  O   UNL     1       1.693   5.079  36.332  0.00  0.00    -0.276 OA
ENDBRANCH  31  32
BRANCH  28  37
ATOM     37  C   UNL     1       8.180   7.652  36.018  0.00  0.00    +0.414 C 
ATOM     38  O   UNL     1       8.147   7.737  34.791  0.00  0.00    -0.240 OA
ATOM     39  O   UNL     1       8.273   8.679  36.690  0.00  0.00    -0.240 OA
ENDBRANCH  28  37
BRANCH  30  40
ATOM     40  O   UNL     1       4.948   6.463  38.814  0.00  0.00    -0.390 OA
ATOM     41  H   UNL     1       4.040   6.701  38.613  0.00  0.00    +0.210 HD
ENDBRANCH  30  40
BRANCH  28  42
ATOM     42  O   UNL     1       9.438   5.852  37.100  0.00  0.00    -0.343 OA
ATOM     43  C   UNL     1       9.668   5.818  38.531  0.00  0.00    +0.198 C 
ENDBRANCH  28  42
ENDBRANCH  25  26
BRANCH  25  44
ATOM     44  O   UNL     1       5.200   3.236  35.000  0.00  0.00    -0.387 OA
ATOM     45  H   UNL     1       4.465   3.541  35.538  0.00  0.00    +0.210 HD
ENDBRANCH  25  44
ENDBRANCH   1  25
TORSDOF 14
