REMARK VINA RESULT:    -6.713      4.671      7.363
REMARK INTER + INTRA:         -13.446
REMARK INTER:                 -10.820
REMARK INTRA:                  -2.627
REMARK UNBOUND:                -1.828
REMARK  Name = lig_assembled_70.pdb
REMARK  16 active torsions:
REMARK  status: ('A' for Active; 'I' for Inactive)
REMARK    1  A    between atoms: _2  and  _10
REMARK    2  A    between atoms: _5  and  _22
REMARK    3  A    between atoms: _7  and  _8
REMARK    4  A    between atoms: _7  and  _22
REMARK    5  A    between atoms: _18  and  _38
REMARK    6  A    between atoms: _20  and  _26
REMARK    7  A    between atoms: _21  and  _25
REMARK    8  A    between atoms: _25  and  _26
REMARK    9  A    between atoms: _28  and  _29
REMARK   10  A    between atoms: _30  and  _31
REMARK   11  A    between atoms: _32  and  _34
REMARK   12  A    between atoms: _34  and  _35
REMARK   13  A    between atoms: _34  and  _36
REMARK   14  A    between atoms: _36  and  _37
REMARK   15  A    between atoms: _36  and  _38
REMARK   16  A    between atoms: _39  and  _41
REMARK                            x       y       z     vdW  Elec       q    Type
REMARK                         _______ _______ _______ _____ _____    ______ ____
ROOT
ATOM      1  C   UNL     1       8.383   2.239  33.654  0.00  0.00    +0.163 C 
ENDROOT
BRANCH   1   2
ATOM      2  O   UNL     1       7.683   1.586  32.583  0.00  0.00    -0.388 OA
ATOM      3  H   UNL     1       8.313   1.140  32.013  0.00  0.00    +0.210 HD
ENDBRANCH   1   2
BRANCH   1   4
ATOM      4  C   UNL     1       8.230   1.439  34.943  0.00  0.00    +0.141 C 
BRANCH   4   7
ATOM      5  C   UNL     1       7.701  -0.958  35.223  0.00  0.00    +0.401 C 
ATOM      6  O   UNL     1       8.729  -1.208  35.856  0.00  0.00    -0.226 OA
ATOM      7  N   UNL     1       7.390   0.250  34.753  0.00  0.00    -0.279 N 
ATOM      8  H   UNL     1       6.527   0.354  34.236  0.00  0.00    +0.152 HD
BRANCH   5   9
ATOM      9  O   UNL     1       6.772  -2.014  34.961  0.00  0.00    -0.444 OA
BRANCH   9  10
ATOM     10  C   UNL     1       7.356  -2.948  34.049  0.00  0.00    +0.292 C 
BRANCH  10  12
ATOM     11  N   UNL     1       8.159  -1.389  32.297  0.00  0.00    -0.131 NA
ATOM     12  C   UNL     1       7.335  -2.410  32.676  0.00  0.00    +0.121 A 
ATOM     13  C   UNL     1       6.564  -2.785  31.601  0.00  0.00    +0.143 A 
ATOM     14  N   UNL     1       6.964  -1.966  30.571  0.00  0.00    -0.218 N 
ATOM     15  N   UNL     1       7.922  -1.120  31.018  0.00  0.00    -0.060 NA
BRANCH  14  16
ATOM     16  C   UNL     1       6.519  -1.960  29.233  0.00  0.00    +0.086 A 
ATOM     17  C   UNL     1       5.225  -1.575  28.924  0.00  0.00    +0.139 A 
ATOM     18  N   UNL     1       4.746  -1.503  27.656  0.00  0.00    -0.253 NA
ATOM     19  C   UNL     1       5.574  -1.814  26.642  0.00  0.00    +0.071 A 
ATOM     20  C   UNL     1       6.902  -2.233  26.862  0.00  0.00    +0.002 A 
ATOM     21  C   UNL     1       7.740  -2.550  25.777  0.00  0.00    +0.010 A 
ATOM     22  C   UNL     1       7.271  -2.434  24.471  0.00  0.00    +0.001 A 
ATOM     23  C   UNL     1       5.966  -2.013  24.248  0.00  0.00    +0.002 A 
ATOM     24  C   UNL     1       5.131  -1.716  25.329  0.00  0.00    +0.028 A 
ATOM     25  C   UNL     1       7.366  -2.311  28.181  0.00  0.00    +0.039 A 
ENDBRANCH  14  16
ENDBRANCH  10  12
ENDBRANCH   9  10
ENDBRANCH   5   9
ENDBRANCH   4   7
ENDBRANCH   1   4
BRANCH   1  26
ATOM     26  C   UNL     1       7.852   3.667  33.869  0.00  0.00    +0.175 C 
BRANCH  26  27
ATOM     27  C   UNL     1       6.476   3.675  34.552  0.00  0.00    +0.176 C 
ATOM     28  O   UNL     1       5.527   3.037  33.653  0.00  0.00    -0.332 OA
ATOM     29  C   UNL     1       4.173   2.859  34.185  0.00  0.00    +0.277 C 
ATOM     30  C   UNL     1       3.601   4.212  34.675  0.00  0.00    +0.110 C 
ATOM     31  C   UNL     1       4.589   4.942  35.609  0.00  0.00    +0.143 C 
ATOM     32  C   UNL     1       5.967   5.070  34.958  0.00  0.00    +0.133 C 
BRANCH  32  33
ATOM     33  N   UNL     1       6.922   5.690  35.891  0.00  0.00    -0.308 N 
ATOM     34  H   UNL     1       7.171   5.173  36.722  0.00  0.00    +0.149 HD
ATOM     35  C   UNL     1       7.480   6.890  35.710  0.00  0.00    +0.210 C 
ATOM     36  C   UNL     1       7.059   7.663  34.446  0.00  0.00    +0.109 C 
ATOM     37  O   UNL     1       8.288   7.378  36.501  0.00  0.00    -0.276 OA
ENDBRANCH  32  33
BRANCH  29  38
ATOM     38  C   UNL     1       4.171   1.846  35.349  0.00  0.00    +0.414 C 
ATOM     39  O   UNL     1       4.641   0.720  35.192  0.00  0.00    -0.240 OA
ATOM     40  O   UNL     1       3.700   2.155  36.444  0.00  0.00    -0.240 OA
ENDBRANCH  29  38
BRANCH  31  41
ATOM     41  O   UNL     1       4.090   6.245  35.914  0.00  0.00    -0.390 OA
ATOM     42  H   UNL     1       3.998   6.751  35.103  0.00  0.00    +0.210 HD
ENDBRANCH  31  41
BRANCH  29  43
ATOM     43  O   UNL     1       3.330   2.369  33.110  0.00  0.00    -0.343 OA
ATOM     44  C   UNL     1       3.639   2.903  31.798  0.00  0.00    +0.198 C 
ENDBRANCH  29  43
ENDBRANCH  26  27
BRANCH  26  45
ATOM     45  O   UNL     1       7.786   4.367  32.610  0.00  0.00    -0.387 OA
ATOM     46  H   UNL     1       7.309   5.192  32.727  0.00  0.00    +0.210 HD
ENDBRANCH  26  45
ENDBRANCH   1  26
TORSDOF 14
