REMARK VINA RESULT:    -5.161     13.384     17.629
REMARK INTER + INTRA:         -12.689
REMARK INTER:                 -10.541
REMARK INTRA:                  -2.149
REMARK UNBOUND:                -3.154
REMARK  Name = lig_assembled_67.pdb
REMARK  18 active torsions:
REMARK  status: ('A' for Active; 'I' for Inactive)
REMARK    1  A    between atoms: _2  and  _9
REMARK    2  A    between atoms: _4  and  _19
REMARK    3  A    between atoms: _6  and  _7
REMARK    4  A    between atoms: _6  and  _19
REMARK    5  A    between atoms: _9  and  _10
REMARK    6  A    between atoms: _10  and  _11
REMARK    7  A    between atoms: _15  and  _35
REMARK    8  A    between atoms: _17  and  _23
REMARK    9  A    between atoms: _18  and  _22
REMARK   10  A    between atoms: _22  and  _23
REMARK   11  A    between atoms: _25  and  _26
REMARK   12  A    between atoms: _27  and  _28
REMARK   13  A    between atoms: _29  and  _31
REMARK   14  A    between atoms: _31  and  _32
REMARK   15  A    between atoms: _31  and  _33
REMARK   16  A    between atoms: _33  and  _34
REMARK   17  A    between atoms: _33  and  _35
REMARK   18  A    between atoms: _36  and  _38
REMARK                            x       y       z     vdW  Elec       q    Type
REMARK                         _______ _______ _______ _____ _____    ______ ____
ROOT
ATOM      1  C   UNL     1      19.368   5.361  26.200  0.00  0.00    +0.163 C 
ENDROOT
BRANCH   1   2
ATOM      2  O   UNL     1      18.411   6.084  25.410  0.00  0.00    -0.388 OA
ATOM      3  H   UNL     1      17.623   6.250  25.933  0.00  0.00    +0.210 HD
ENDBRANCH   1   2
BRANCH   1   4
ATOM      4  C   UNL     1      20.056   4.266  25.367  0.00  0.00    +0.175 C 
BRANCH   4   5
ATOM      5  C   UNL     1      19.110   3.096  25.057  0.00  0.00    +0.176 C 
ATOM      6  O   UNL     1      18.152   3.548  24.061  0.00  0.00    -0.332 OA
ATOM      7  C   UNL     1      17.227   2.525  23.562  0.00  0.00    +0.277 C 
ATOM      8  C   UNL     1      16.480   1.850  24.738  0.00  0.00    +0.110 C 
ATOM      9  C   UNL     1      17.456   1.382  25.838  0.00  0.00    +0.143 C 
ATOM     10  C   UNL     1      18.372   2.523  26.281  0.00  0.00    +0.133 C 
BRANCH  10  11
ATOM     11  N   UNL     1      19.354   2.043  27.266  0.00  0.00    -0.308 N 
ATOM     12  H   UNL     1      20.050   1.380  26.954  0.00  0.00    +0.149 HD
ATOM     13  C   UNL     1      19.385   2.425  28.546  0.00  0.00    +0.210 C 
ATOM     14  C   UNL     1      18.295   3.416  28.997  0.00  0.00    +0.109 C 
ATOM     15  O   UNL     1      20.229   2.018  29.345  0.00  0.00    -0.276 OA
ENDBRANCH  10  11
BRANCH   7  16
ATOM     16  C   UNL     1      17.983   1.454  22.749  0.00  0.00    +0.414 C 
ATOM     17  O   UNL     1      17.488   0.341  22.578  0.00  0.00    -0.240 OA
ATOM     18  O   UNL     1      19.088   1.703  22.264  0.00  0.00    -0.240 OA
ENDBRANCH   7  16
BRANCH   9  19
ATOM     19  O   UNL     1      16.719   0.906  26.965  0.00  0.00    -0.390 OA
ATOM     20  H   UNL     1      16.318   0.060  26.752  0.00  0.00    +0.210 HD
ENDBRANCH   9  19
BRANCH   7  21
ATOM     21  O   UNL     1      16.248   3.180  22.714  0.00  0.00    -0.343 OA
ATOM     22  C   UNL     1      16.805   3.980  21.641  0.00  0.00    +0.198 C 
ENDBRANCH   7  21
ENDBRANCH   4   5
BRANCH   4  23
ATOM     23  O   UNL     1      21.232   3.787  26.049  0.00  0.00    -0.387 OA
ATOM     24  H   UNL     1      21.000   3.034  26.597  0.00  0.00    +0.210 HD
ENDBRANCH   4  23
ENDBRANCH   1   4
BRANCH   1  25
ATOM     25  C   UNL     1      20.421   6.319  26.750  0.00  0.00    +0.141 C 
BRANCH  25  28
ATOM     26  C   UNL     1      19.354   8.349  27.670  0.00  0.00    +0.401 C 
ATOM     27  O   UNL     1      19.251   8.905  26.574  0.00  0.00    -0.226 OA
ATOM     28  N   UNL     1      19.893   7.142  27.845  0.00  0.00    -0.279 N 
ATOM     29  H   UNL     1      19.942   6.773  28.785  0.00  0.00    +0.152 HD
BRANCH  26  30
ATOM     30  O   UNL     1      18.876   9.021  28.838  0.00  0.00    -0.444 OA
BRANCH  30  31
ATOM     31  C   UNL     1      18.868   8.113  29.943  0.00  0.00    +0.292 C 
BRANCH  31  33
ATOM     32  N   UNL     1      17.538   9.868  31.071  0.00  0.00    -0.131 NA
ATOM     33  C   UNL     1      17.895   8.548  30.961  0.00  0.00    +0.120 A 
ATOM     34  C   UNL     1      17.215   7.819  31.910  0.00  0.00    +0.137 A 
ATOM     35  N   UNL     1      16.465   8.749  32.565  0.00  0.00    -0.251 N 
ATOM     36  N   UNL     1      16.662   9.978  32.061  0.00  0.00    -0.065 NA
BRANCH  35  37
ATOM     37  C   UNL     1      15.540   8.545  33.657  0.00  0.00    +0.150 C 
BRANCH  37  38
ATOM     38  C   UNL     1      16.223   8.227  34.985  0.00  0.00    +0.084 C 
BRANCH  38  39
ATOM     39  C   UNL     1      16.059   6.769  35.389  0.00  0.00    +0.252 C 
ATOM     40  O   UNL     1      14.905   6.207  34.755  0.00  0.00    -0.349 OA
ATOM     41  C   UNL     1      15.245   4.828  34.626  0.00  0.00    +0.191 C 
ATOM     42  C   UNL     1      16.722   4.861  34.331  0.00  0.00    +0.191 C 
ATOM     43  O   UNL     1      17.216   6.014  35.015  0.00  0.00    -0.349 OA
ENDBRANCH  38  39
ENDBRANCH  37  38
ENDBRANCH  35  37
ENDBRANCH  31  33
ENDBRANCH  30  31
ENDBRANCH  26  30
ENDBRANCH  25  28
ENDBRANCH   1  25
TORSDOF 16
