REMARK VINA RESULT:    -5.056     12.420     14.446
REMARK INTER + INTRA:         -12.256
REMARK INTER:                  -8.456
REMARK INTRA:                  -3.800
REMARK UNBOUND:                -3.800
REMARK  Name = lig_assembled_65.pdb
REMARK  16 active torsions:
REMARK  status: ('A' for Active; 'I' for Inactive)
REMARK    1  A    between atoms: _8  and  _20
REMARK    2  A    between atoms: _9  and  _15
REMARK    3  A    between atoms: _10  and  _11
REMARK    4  A    between atoms: _10  and  _20
REMARK    5  A    between atoms: _16  and  _36
REMARK    6  A    between atoms: _18  and  _24
REMARK    7  A    between atoms: _19  and  _23
REMARK    8  A    between atoms: _23  and  _24
REMARK    9  A    between atoms: _26  and  _27
REMARK   10  A    between atoms: _28  and  _29
REMARK   11  A    between atoms: _30  and  _32
REMARK   12  A    between atoms: _32  and  _33
REMARK   13  A    between atoms: _32  and  _34
REMARK   14  A    between atoms: _34  and  _35
REMARK   15  A    between atoms: _34  and  _36
REMARK   16  A    between atoms: _37  and  _39
REMARK                            x       y       z     vdW  Elec       q    Type
REMARK                         _______ _______ _______ _____ _____    ______ ____
ROOT
ATOM      1  C   UNL     1       8.177   1.738  35.875  0.00  0.00    +0.163 C 
ENDROOT
BRANCH   1   2
ATOM      2  O   UNL     1       8.282   2.147  37.249  0.00  0.00    -0.388 OA
ATOM      3  H   UNL     1       8.687   3.017  37.294  0.00  0.00    +0.210 HD
ENDBRANCH   1   2
BRANCH   1   4
ATOM      4  C   UNL     1       9.151   0.599  35.594  0.00  0.00    +0.141 C 
BRANCH   4   7
ATOM      5  C   UNL     1      11.531   1.172  35.928  0.00  0.00    +0.401 C 
ATOM      6  O   UNL     1      11.703   1.541  34.764  0.00  0.00    -0.226 OA
ATOM      7  N   UNL     1      10.372   0.711  36.401  0.00  0.00    -0.279 N 
ATOM      8  H   UNL     1      10.332   0.423  37.368  0.00  0.00    +0.152 HD
BRANCH   5   9
ATOM      9  O   UNL     1      12.628   1.228  36.844  0.00  0.00    -0.444 OA
BRANCH   9  10
ATOM     10  C   UNL     1      12.965   2.594  37.102  0.00  0.00    +0.292 C 
BRANCH  10  12
ATOM     11  N   UNL     1      11.168   2.875  38.784  0.00  0.00    -0.131 NA
ATOM     12  C   UNL     1      11.803   3.315  37.654  0.00  0.00    +0.121 A 
ATOM     13  C   UNL     1      11.178   4.454  37.205  0.00  0.00    +0.149 A 
ATOM     14  N   UNL     1      10.149   4.671  38.096  0.00  0.00    -0.155 N 
ATOM     15  C   UNL     1       9.188   5.724  38.063  0.00  0.00    +0.416 C 
ATOM     16  N   UNL     1       8.257   5.773  39.023  0.00  0.00    +0.041 NA
ATOM     17  C   UNL     1       7.386   6.773  38.914  0.00  0.00    +0.339 C 
ATOM     18  C   UNL     1       6.312   6.873  39.951  0.00  0.00    +0.149 C 
ATOM     19  N   UNL     1       7.398   7.682  37.939  0.00  0.00    +0.007 NA
ATOM     20  C   UNL     1       8.351   7.536  37.032  0.00  0.00    +0.386 C 
ATOM     21  N   UNL     1       8.391   8.449  36.000  0.00  0.00    -0.296 N 
ATOM     22  H   UNL     1       7.921   9.305  36.261  0.00  0.00    +0.148 HD
ATOM     23  H   UNL     1       9.321   8.527  35.614  0.00  0.00    +0.148 HD
ATOM     24  N   UNL     1       9.281   6.598  37.050  0.00  0.00    -0.290 NA
ATOM     25  N   UNL     1      10.166   3.704  39.049  0.00  0.00    -0.055 NA
ENDBRANCH  10  12
ENDBRANCH   9  10
ENDBRANCH   5   9
ENDBRANCH   4   7
ENDBRANCH   1   4
BRANCH   1  26
ATOM     26  C   UNL     1       8.472   2.913  34.927  0.00  0.00    +0.175 C 
BRANCH  26  27
ATOM     27  C   UNL     1       7.192   3.639  34.490  0.00  0.00    +0.176 C 
ATOM     28  O   UNL     1       6.727   4.441  35.611  0.00  0.00    -0.332 OA
ATOM     29  C   UNL     1       5.565   5.292  35.343  0.00  0.00    +0.277 C 
ATOM     30  C   UNL     1       4.394   4.448  34.782  0.00  0.00    +0.110 C 
ATOM     31  C   UNL     1       4.847   3.555  33.608  0.00  0.00    +0.143 C 
ATOM     32  C   UNL     1       6.064   2.715  33.995  0.00  0.00    +0.133 C 
BRANCH  32  33
ATOM     33  N   UNL     1       6.539   1.934  32.842  0.00  0.00    -0.308 N 
ATOM     34  H   UNL     1       6.960   2.436  32.074  0.00  0.00    +0.149 HD
ATOM     35  C   UNL     1       6.449   0.604  32.745  0.00  0.00    +0.210 C 
ATOM     36  C   UNL     1       5.778  -0.129  33.922  0.00  0.00    +0.109 C 
ATOM     37  O   UNL     1       6.869  -0.025  31.774  0.00  0.00    -0.276 OA
ENDBRANCH  32  33
BRANCH  29  38
ATOM     38  C   UNL     1       5.923   6.408  34.339  0.00  0.00    +0.414 C 
ATOM     39  O   UNL     1       7.090   6.569  33.983  0.00  0.00    -0.240 OA
ATOM     40  O   UNL     1       5.047   7.145  33.885  0.00  0.00    -0.240 OA
ENDBRANCH  29  38
BRANCH  29  41
ATOM     41  O   UNL     1       5.142   5.883  36.599  0.00  0.00    -0.343 OA
ATOM     42  C   UNL     1       3.806   5.519  37.028  0.00  0.00    +0.198 C 
ENDBRANCH  29  41
BRANCH  31  43
ATOM     43  O   UNL     1       3.779   2.688  33.222  0.00  0.00    -0.390 OA
ATOM     44  H   UNL     1       3.956   1.801  33.543  0.00  0.00    +0.210 HD
ENDBRANCH  31  43
ENDBRANCH  26  27
BRANCH  26  45
ATOM     45  O   UNL     1       9.199   2.448  33.772  0.00  0.00    -0.387 OA
ATOM     46  H   UNL     1       8.636   2.504  32.996  0.00  0.00    +0.210 HD
ENDBRANCH  26  45
ENDBRANCH   1  26
TORSDOF 13
