REMARK VINA RESULT:    -5.762     21.931     24.855
REMARK INTER + INTRA:         -12.463
REMARK INTER:                  -9.951
REMARK INTRA:                  -2.511
REMARK UNBOUND:                -2.491
REMARK  Name = lig_assembled_57.pdb
REMARK  17 active torsions:
REMARK  status: ('A' for Active; 'I' for Inactive)
REMARK    1  A    between atoms: _2  and  _10
REMARK    2  A    between atoms: _3  and  _13
REMARK    3  A    between atoms: _5  and  _19
REMARK    4  A    between atoms: _7  and  _8
REMARK    5  A    between atoms: _7  and  _19
REMARK    6  A    between atoms: _15  and  _35
REMARK    7  A    between atoms: _17  and  _23
REMARK    8  A    between atoms: _18  and  _22
REMARK    9  A    between atoms: _22  and  _23
REMARK   10  A    between atoms: _25  and  _26
REMARK   11  A    between atoms: _27  and  _28
REMARK   12  A    between atoms: _29  and  _31
REMARK   13  A    between atoms: _31  and  _32
REMARK   14  A    between atoms: _31  and  _33
REMARK   15  A    between atoms: _33  and  _34
REMARK   16  A    between atoms: _33  and  _35
REMARK   17  A    between atoms: _36  and  _38
REMARK                            x       y       z     vdW  Elec       q    Type
REMARK                         _______ _______ _______ _____ _____    ______ ____
ROOT
ATOM      1  C   UNL     1      11.876  26.341  21.807  0.00  0.00    +0.163 C 
ENDROOT
BRANCH   1   2
ATOM      2  O   UNL     1      11.895  27.767  21.630  0.00  0.00    -0.388 OA
ATOM      3  H   UNL     1      12.793  28.091  21.734  0.00  0.00    +0.210 HD
ENDBRANCH   1   2
BRANCH   1   4
ATOM      4  C   UNL     1      11.773  25.648  20.452  0.00  0.00    +0.141 C 
BRANCH   4   7
ATOM      5  C   UNL     1      12.558  23.561  19.386  0.00  0.00    +0.401 C 
ATOM      6  O   UNL     1      12.224  23.906  18.250  0.00  0.00    -0.226 OA
ATOM      7  N   UNL     1      12.379  24.311  20.474  0.00  0.00    -0.279 N 
ATOM      8  H   UNL     1      12.678  23.937  21.365  0.00  0.00    +0.152 HD
BRANCH   5   9
ATOM      9  O   UNL     1      13.172  22.283  19.572  0.00  0.00    -0.444 OA
BRANCH   9  10
ATOM     10  C   UNL     1      14.521  22.329  19.100  0.00  0.00    +0.292 C 
BRANCH  10  12
ATOM     11  N   UNL     1      15.943  20.768  20.382  0.00  0.00    -0.131 NA
ATOM     12  C   UNL     1      15.451  22.030  20.205  0.00  0.00    +0.120 A 
ATOM     13  C   UNL     1      15.986  22.861  21.165  0.00  0.00    +0.137 A 
ATOM     14  N   UNL     1      16.864  22.067  21.841  0.00  0.00    -0.248 N 
ATOM     15  N   UNL     1      16.776  20.792  21.409  0.00  0.00    -0.065 NA
BRANCH  14  16
ATOM     16  C   UNL     1      17.866  22.390  22.851  0.00  0.00    +0.111 C 
ATOM     17  C   UNL     1      19.252  21.884  22.424  0.00  0.00    +0.042 C 
ATOM     18  C   UNL     1      19.828  22.768  21.320  0.00  0.00    +0.086 C 
ATOM     19  N   UNL     1      19.960  24.172  21.723  0.00  0.00    -0.305 NA
ATOM     20  C   UNL     1      18.704  24.735  22.219  0.00  0.00    +0.086 C 
ATOM     21  C   UNL     1      21.078  24.383  22.638  0.00  0.00    +0.104 C 
ATOM     22  C   UNL     1      17.971  23.871  23.255  0.00  0.00    +0.042 C 
ENDBRANCH  14  16
ENDBRANCH  10  12
ENDBRANCH   9  10
ENDBRANCH   5   9
ENDBRANCH   4   7
ENDBRANCH   1   4
BRANCH   1  23
ATOM     23  C   UNL     1      10.694  25.913  22.694  0.00  0.00    +0.175 C 
BRANCH  23  24
ATOM     24  C   UNL     1      11.160  25.346  24.044  0.00  0.00    +0.176 C 
ATOM     25  O   UNL     1      12.439  24.687  23.834  0.00  0.00    -0.332 OA
ATOM     26  C   UNL     1      13.093  24.173  25.042  0.00  0.00    +0.277 C 
ATOM     27  C   UNL     1      12.139  23.231  25.815  0.00  0.00    +0.110 C 
ATOM     28  C   UNL     1      10.754  23.876  26.034  0.00  0.00    +0.143 C 
ATOM     29  C   UNL     1      10.168  24.378  24.714  0.00  0.00    +0.133 C 
BRANCH  29  30
ATOM     30  N   UNL     1       8.889  25.068  24.947  0.00  0.00    -0.308 N 
ATOM     31  H   UNL     1       8.915  25.961  25.419  0.00  0.00    +0.149 HD
ATOM     32  C   UNL     1       7.698  24.592  24.576  0.00  0.00    +0.210 C 
ATOM     33  C   UNL     1       7.691  23.217  23.882  0.00  0.00    +0.109 C 
ATOM     34  O   UNL     1       6.645  25.199  24.772  0.00  0.00    -0.276 OA
ENDBRANCH  29  30
BRANCH  26  35
ATOM     35  C   UNL     1      13.530  25.332  25.962  0.00  0.00    +0.414 C 
ATOM     36  O   UNL     1      14.115  26.309  25.495  0.00  0.00    -0.240 OA
ATOM     37  O   UNL     1      13.298  25.291  27.171  0.00  0.00    -0.240 OA
ENDBRANCH  26  35
BRANCH  28  38
ATOM     38  O   UNL     1       9.863  22.922  26.612  0.00  0.00    -0.390 OA
ATOM     39  H   UNL     1      10.003  22.064  26.204  0.00  0.00    +0.210 HD
ENDBRANCH  28  38
BRANCH  26  40
ATOM     40  O   UNL     1      14.257  23.410  24.632  0.00  0.00    -0.343 OA
ATOM     41  C   UNL     1      14.759  22.479  25.623  0.00  0.00    +0.198 C 
ENDBRANCH  26  40
ENDBRANCH  23  24
BRANCH  23  42
ATOM     42  O   UNL     1       9.880  24.944  22.004  0.00  0.00    -0.387 OA
ATOM     43  H   UNL     1       9.017  25.322  21.822  0.00  0.00    +0.210 HD
ENDBRANCH  23  42
ENDBRANCH   1  23
TORSDOF 14
