REMARK VINA RESULT:    -6.577      2.213      3.824
REMARK INTER + INTRA:         -15.565
REMARK INTER:                 -13.392
REMARK INTRA:                  -2.173
REMARK UNBOUND:                -2.643
REMARK  Name = lig_assembled_37.pdb
REMARK  21 active torsions:
REMARK  status: ('A' for Active; 'I' for Inactive)
REMARK    1  A    between atoms: _2  and  _9
REMARK    2  A    between atoms: _4  and  _24
REMARK    3  A    between atoms: _6  and  _7
REMARK    4  A    between atoms: _6  and  _24
REMARK    5  A    between atoms: _9  and  _10
REMARK    6  A    between atoms: _9  and  _11
REMARK    7  A    between atoms: _11  and  _18
REMARK    8  A    between atoms: _12  and  _13
REMARK    9  A    between atoms: _12  and  _18
REMARK   10  A    between atoms: _20  and  _40
REMARK   11  A    between atoms: _22  and  _28
REMARK   12  A    between atoms: _23  and  _27
REMARK   13  A    between atoms: _27  and  _28
REMARK   14  A    between atoms: _30  and  _31
REMARK   15  A    between atoms: _32  and  _33
REMARK   16  A    between atoms: _34  and  _36
REMARK   17  A    between atoms: _36  and  _37
REMARK   18  A    between atoms: _36  and  _38
REMARK   19  A    between atoms: _38  and  _39
REMARK   20  A    between atoms: _38  and  _40
REMARK   21  A    between atoms: _41  and  _43
REMARK                            x       y       z     vdW  Elec       q    Type
REMARK                         _______ _______ _______ _____ _____    ______ ____
ROOT
ATOM      1  C   UNL     1       7.372   1.096  33.207  0.00  0.00    +0.141 C 
ENDROOT
BRANCH   1   4
ATOM      2  C   UNL     1       6.123  -0.466  31.754  0.00  0.00    +0.401 C 
ATOM      3  O   UNL     1       7.137  -0.994  31.292  0.00  0.00    -0.226 OA
ATOM      4  N   UNL     1       6.140   0.523  32.649  0.00  0.00    -0.279 N 
ATOM      5  H   UNL     1       5.256   0.898  32.962  0.00  0.00    +0.152 HD
BRANCH   2   6
ATOM      6  O   UNL     1       4.841  -0.921  31.315  0.00  0.00    -0.444 OA
BRANCH   6   7
ATOM      7  C   UNL     1       3.867   0.102  31.543  0.00  0.00    +0.292 C 
BRANCH   7   9
ATOM      8  N   UNL     1       3.398  -0.278  29.138  0.00  0.00    -0.131 NA
ATOM      9  C   UNL     1       3.146   0.413  30.294  0.00  0.00    +0.120 A 
ATOM     10  C   UNL     1       2.173   1.356  30.051  0.00  0.00    +0.138 A 
ATOM     11  N   UNL     1       1.892   1.210  28.725  0.00  0.00    -0.238 N 
ATOM     12  N   UNL     1       2.619   0.213  28.185  0.00  0.00    -0.065 NA
BRANCH  11  13
ATOM     13  C   UNL     1       0.920   1.909  27.908  0.00  0.00    +0.214 C 
ATOM     14  C   UNL     1      -0.204   2.500  28.761  0.00  0.00    +0.045 C 
BRANCH  13  15
ATOM     15  C   UNL     1       1.577   2.994  27.084  0.00  0.00    +0.332 C 
ATOM     16  O   UNL     1       2.231   3.915  27.559  0.00  0.00    -0.248 OA
BRANCH  15  17
ATOM     17  O   UNL     1       1.341   2.811  25.757  0.00  0.00    -0.458 OA
BRANCH  17  18
ATOM     18  C   UNL     1       2.502   2.703  24.919  0.00  0.00    +0.267 C 
BRANCH  18  19
ATOM     19  C   UNL     1       2.154   3.089  23.504  0.00  0.00    -0.010 A 
ATOM     20  C   UNL     1       2.089   2.115  22.498  0.00  0.00    +0.007 A 
ATOM     21  C   UNL     1       1.739   2.467  21.193  0.00  0.00    +0.000 A 
ATOM     22  C   UNL     1       1.453   3.795  20.881  0.00  0.00    +0.000 A 
ATOM     23  C   UNL     1       1.521   4.772  21.871  0.00  0.00    +0.000 A 
ATOM     24  C   UNL     1       1.873   4.423  23.176  0.00  0.00    +0.007 A 
ENDBRANCH  18  19
ENDBRANCH  17  18
ENDBRANCH  15  17
ENDBRANCH  13  15
ENDBRANCH  11  13
ENDBRANCH   7   9
ENDBRANCH   6   7
ENDBRANCH   2   6
ENDBRANCH   1   4
BRANCH   1  25
ATOM     25  C   UNL     1       7.080   2.230  34.183  0.00  0.00    +0.163 C 
BRANCH  25  26
ATOM     26  O   UNL     1       7.763   1.998  35.425  0.00  0.00    -0.388 OA
ATOM     27  H   UNL     1       8.137   1.113  35.425  0.00  0.00    +0.210 HD
ENDBRANCH  25  26
BRANCH  25  28
ATOM     28  C   UNL     1       7.512   3.569  33.560  0.00  0.00    +0.175 C 
BRANCH  28  29
ATOM     29  C   UNL     1       6.962   4.773  34.338  0.00  0.00    +0.176 C 
ATOM     30  O   UNL     1       7.714   4.886  35.577  0.00  0.00    -0.332 OA
ATOM     31  C   UNL     1       7.396   6.052  36.407  0.00  0.00    +0.277 C 
ATOM     32  C   UNL     1       5.878   6.103  36.710  0.00  0.00    +0.110 C 
ATOM     33  C   UNL     1       5.036   5.954  35.425  0.00  0.00    +0.143 C 
ATOM     34  C   UNL     1       5.452   4.712  34.637  0.00  0.00    +0.133 C 
BRANCH  34  35
ATOM     35  N   UNL     1       4.704   4.628  33.373  0.00  0.00    -0.308 N 
ATOM     36  H   UNL     1       4.913   5.308  32.655  0.00  0.00    +0.149 HD
ATOM     37  C   UNL     1       3.766   3.714  33.112  0.00  0.00    +0.210 C 
ATOM     38  C   UNL     1       3.451   2.709  34.236  0.00  0.00    +0.109 C 
ATOM     39  O   UNL     1       3.165   3.659  32.039  0.00  0.00    -0.276 OA
ENDBRANCH  34  35
BRANCH  31  40
ATOM     40  C   UNL     1       7.826   7.357  35.706  0.00  0.00    +0.414 C 
ATOM     41  O   UNL     1       8.977   7.774  35.823  0.00  0.00    -0.240 OA
ATOM     42  O   UNL     1       7.022   7.993  35.023  0.00  0.00    -0.240 OA
ENDBRANCH  31  40
BRANCH  31  43
ATOM     43  O   UNL     1       8.108   5.916  37.664  0.00  0.00    -0.343 OA
ATOM     44  C   UNL     1       7.757   4.744  38.443  0.00  0.00    +0.198 C 
ENDBRANCH  31  43
BRANCH  33  45
ATOM     45  O   UNL     1       3.652   5.854  35.764  0.00  0.00    -0.390 OA
ATOM     46  H   UNL     1       3.416   6.570  36.359  0.00  0.00    +0.210 HD
ENDBRANCH  33  45
ENDBRANCH  28  29
BRANCH  28  47
ATOM     47  O   UNL     1       7.093   3.633  32.182  0.00  0.00    -0.387 OA
ATOM     48  H   UNL     1       7.863   3.601  31.611  0.00  0.00    +0.210 HD
ENDBRANCH  28  47
ENDBRANCH  25  28
ENDBRANCH   1  25
TORSDOF 18
