REMARK VINA RESULT:    -5.025      1.914      2.499
REMARK INTER + INTRA:         -13.124
REMARK INTER:                 -10.962
REMARK INTRA:                  -2.161
REMARK UNBOUND:                -3.545
REMARK  Name = lig_assembled_55.pdb
REMARK  20 active torsions:
REMARK  status: ('A' for Active; 'I' for Inactive)
REMARK    1  A    between atoms: _2  and  _10
REMARK    2  A    between atoms: _3  and  _11
REMARK    3  A    between atoms: _3  and  _38
REMARK    4  A    between atoms: _5  and  _18
REMARK    5  A    between atoms: _6  and  _38
REMARK    6  A    between atoms: _7  and  _8
REMARK    7  A    between atoms: _7  and  _18
REMARK    8  A    between atoms: _10  and  _11
REMARK    9  A    between atoms: _14  and  _34
REMARK   10  A    between atoms: _16  and  _22
REMARK   11  A    between atoms: _17  and  _21
REMARK   12  A    between atoms: _21  and  _22
REMARK   13  A    between atoms: _24  and  _25
REMARK   14  A    between atoms: _26  and  _27
REMARK   15  A    between atoms: _28  and  _30
REMARK   16  A    between atoms: _30  and  _31
REMARK   17  A    between atoms: _30  and  _32
REMARK   18  A    between atoms: _32  and  _33
REMARK   19  A    between atoms: _32  and  _34
REMARK   20  A    between atoms: _35  and  _37
REMARK                            x       y       z     vdW  Elec       q    Type
REMARK                         _______ _______ _______ _____ _____    ______ ____
ROOT
ATOM      1  C   UNL     1       9.883   3.016  35.140  0.00  0.00    +0.163 C 
ENDROOT
BRANCH   1   2
ATOM      2  O   UNL     1       9.669   2.510  33.812  0.00  0.00    -0.388 OA
ATOM      3  H   UNL     1       9.849   3.203  33.172  0.00  0.00    +0.210 HD
ENDBRANCH   1   2
BRANCH   1   4
ATOM      4  C   UNL     1       8.551   3.163  35.894  0.00  0.00    +0.175 C 
BRANCH   4   5
ATOM      5  C   UNL     1       7.764   4.402  35.442  0.00  0.00    +0.176 C 
ATOM      6  O   UNL     1       7.447   5.187  36.624  0.00  0.00    -0.332 OA
ATOM      7  C   UNL     1       6.784   6.470  36.374  0.00  0.00    +0.277 C 
ATOM      8  C   UNL     1       5.506   6.262  35.526  0.00  0.00    +0.110 C 
ATOM      9  C   UNL     1       5.786   5.406  34.273  0.00  0.00    +0.143 C 
ATOM     10  C   UNL     1       6.480   4.096  34.648  0.00  0.00    +0.133 C 
BRANCH  10  11
ATOM     11  N   UNL     1       6.821   3.329  33.440  0.00  0.00    -0.308 N 
ATOM     12  H   UNL     1       7.446   3.755  32.771  0.00  0.00    +0.149 HD
ATOM     13  C   UNL     1       6.357   2.106  33.169  0.00  0.00    +0.210 C 
ATOM     14  C   UNL     1       5.385   1.494  34.196  0.00  0.00    +0.109 C 
ATOM     15  O   UNL     1       6.670   1.480  32.156  0.00  0.00    -0.276 OA
ENDBRANCH  10  11
BRANCH   7  16
ATOM     16  C   UNL     1       7.734   7.444  35.645  0.00  0.00    +0.414 C 
ATOM     17  O   UNL     1       7.311   8.161  34.740  0.00  0.00    -0.240 OA
ATOM     18  O   UNL     1       8.922   7.512  35.963  0.00  0.00    -0.240 OA
ENDBRANCH   7  16
BRANCH   7  19
ATOM     19  O   UNL     1       6.397   7.032  37.654  0.00  0.00    -0.343 OA
ATOM     20  C   UNL     1       6.778   6.243  38.810  0.00  0.00    +0.198 C 
ENDBRANCH   7  19
BRANCH   9  21
ATOM     21  O   UNL     1       4.559   5.113  33.604  0.00  0.00    -0.390 OA
ATOM     22  H   UNL     1       4.530   5.582  32.767  0.00  0.00    +0.210 HD
ENDBRANCH   9  21
ENDBRANCH   4   5
BRANCH   4  23
ATOM     23  O   UNL     1       8.788   3.217  37.315  0.00  0.00    -0.387 OA
ATOM     24  H   UNL     1       9.300   2.450  37.583  0.00  0.00    +0.210 HD
ENDBRANCH   4  23
ENDBRANCH   1   4
BRANCH   1  25
ATOM     25  C   UNL     1      10.806   2.079  35.912  0.00  0.00    +0.141 C 
BRANCH  25  28
ATOM     26  C   UNL     1      12.440   3.119  37.446  0.00  0.00    +0.401 C 
ATOM     27  O   UNL     1      11.715   3.018  38.438  0.00  0.00    -0.226 OA
ATOM     28  N   UNL     1      12.093   2.712  36.224  0.00  0.00    -0.279 N 
ATOM     29  H   UNL     1      12.753   2.847  35.471  0.00  0.00    +0.152 HD
BRANCH  26  30
ATOM     30  O   UNL     1      13.735   3.709  37.589  0.00  0.00    -0.444 OA
BRANCH  30  31
ATOM     31  C   UNL     1      13.649   5.115  37.340  0.00  0.00    +0.292 C 
BRANCH  31  33
ATOM     32  N   UNL     1      14.169   4.686  34.960  0.00  0.00    -0.131 NA
ATOM     33  C   UNL     1      14.335   5.458  36.081  0.00  0.00    +0.120 A 
ATOM     34  C   UNL     1      15.191   6.497  35.788  0.00  0.00    +0.137 A 
ATOM     35  N   UNL     1      15.525   6.292  34.483  0.00  0.00    -0.250 N 
ATOM     36  N   UNL     1      14.906   5.204  33.989  0.00  0.00    -0.065 NA
BRANCH  35  37
ATOM     37  C   UNL     1      16.390   7.091  33.644  0.00  0.00    +0.162 C 
BRANCH  37  38
ATOM     38  C   UNL     1      15.694   8.301  33.010  0.00  0.00    +0.129 C 
BRANCH  38  39
ATOM     39  N   UNL     1      16.610   9.173  32.218  0.00  0.00    -0.193 NA
ATOM     40  H   UNL     1      16.443   9.049  31.212  0.00  0.00    +0.148 HD
BRANCH  39  41
ATOM     41  S   UNL     1      16.679  10.792  32.678  0.00  0.00    +0.027 S 
ATOM     42  O   UNL     1      18.018  11.252  32.381  0.00  0.00    -0.158 OA
ATOM     43  O   UNL     1      15.517  11.453  32.128  0.00  0.00    -0.158 OA
ATOM     44  C   UNL     1      16.510  10.669  34.444  0.00  0.00    +0.214 C 
ENDBRANCH  39  41
ENDBRANCH  38  39
ENDBRANCH  37  38
ENDBRANCH  35  37
ENDBRANCH  31  33
ENDBRANCH  30  31
ENDBRANCH  26  30
ENDBRANCH  25  28
ENDBRANCH   1  25
TORSDOF 17
