REMARK VINA RESULT:    -5.733      1.642      2.408
REMARK INTER + INTRA:         -13.634
REMARK INTER:                 -11.227
REMARK INTRA:                  -2.406
REMARK UNBOUND:                -2.036
REMARK  Name = lig_assembled_45.pdb
REMARK  24 active torsions:
REMARK  status: ('A' for Active; 'I' for Inactive)
REMARK    1  A    between atoms: _2  and  _10
REMARK    2  A    between atoms: _3  and  _12
REMARK    3  A    between atoms: _3  and  _13
REMARK    4  A    between atoms: _3  and  _14
REMARK    5  A    between atoms: _3  and  _16
REMARK    6  A    between atoms: _5  and  _21
REMARK    7  A    between atoms: _6  and  _16
REMARK    8  A    between atoms: _7  and  _8
REMARK    9  A    between atoms: _7  and  _21
REMARK   10  A    between atoms: _10  and  _11
REMARK   11  A    between atoms: _11  and  _12
REMARK   12  A    between atoms: _14  and  _15
REMARK   13  A    between atoms: _17  and  _37
REMARK   14  A    between atoms: _19  and  _25
REMARK   15  A    between atoms: _20  and  _24
REMARK   16  A    between atoms: _24  and  _25
REMARK   17  A    between atoms: _27  and  _28
REMARK   18  A    between atoms: _29  and  _30
REMARK   19  A    between atoms: _31  and  _33
REMARK   20  A    between atoms: _33  and  _34
REMARK   21  A    between atoms: _33  and  _35
REMARK   22  A    between atoms: _35  and  _36
REMARK   23  A    between atoms: _35  and  _37
REMARK   24  A    between atoms: _38  and  _40
REMARK                            x       y       z     vdW  Elec       q    Type
REMARK                         _______ _______ _______ _____ _____    ______ ____
ROOT
ATOM      1  C   UNL     1       4.030   3.553  32.335  0.00  0.00    +0.163 C 
ENDROOT
BRANCH   1   2
ATOM      2  O   UNL     1       3.062   3.891  33.342  0.00  0.00    -0.388 OA
ATOM      3  H   UNL     1       2.799   3.097  33.813  0.00  0.00    +0.210 HD
ENDBRANCH   1   2
BRANCH   1   4
ATOM      4  C   UNL     1       5.326   3.024  32.974  0.00  0.00    +0.175 C 
BRANCH   4   5
ATOM      5  C   UNL     1       5.639   3.721  34.307  0.00  0.00    +0.176 C 
ATOM      6  O   UNL     1       5.585   5.157  34.084  0.00  0.00    -0.332 OA
ATOM      7  C   UNL     1       5.756   5.990  35.278  0.00  0.00    +0.277 C 
ATOM      8  C   UNL     1       7.070   5.623  36.011  0.00  0.00    +0.110 C 
ATOM      9  C   UNL     1       7.187   4.102  36.242  0.00  0.00    +0.143 C 
ATOM     10  C   UNL     1       6.990   3.332  34.936  0.00  0.00    +0.133 C 
BRANCH  10  11
ATOM     11  N   UNL     1       7.017   1.882  35.183  0.00  0.00    -0.308 N 
ATOM     12  H   UNL     1       6.254   1.478  35.709  0.00  0.00    +0.149 HD
ATOM     13  C   UNL     1       7.984   1.064  34.759  0.00  0.00    +0.210 C 
ATOM     14  C   UNL     1       9.146   1.713  33.984  0.00  0.00    +0.109 C 
ATOM     15  O   UNL     1       7.974  -0.150  34.969  0.00  0.00    -0.276 OA
ENDBRANCH  10  11
BRANCH   7  16
ATOM     16  C   UNL     1       4.563   5.818  36.241  0.00  0.00    +0.414 C 
ATOM     17  O   UNL     1       3.472   5.440  35.815  0.00  0.00    -0.240 OA
ATOM     18  O   UNL     1       4.691   6.056  37.443  0.00  0.00    -0.240 OA
ENDBRANCH   7  16
BRANCH   9  19
ATOM     19  O   UNL     1       8.474   3.794  36.780  0.00  0.00    -0.390 OA
ATOM     20  H   UNL     1       9.034   3.438  36.087  0.00  0.00    +0.210 HD
ENDBRANCH   9  19
BRANCH   7  21
ATOM     21  O   UNL     1       5.842   7.374  34.851  0.00  0.00    -0.343 OA
ATOM     22  C   UNL     1       7.166   7.811  34.452  0.00  0.00    +0.198 C 
ENDBRANCH   7  21
ENDBRANCH   4   5
BRANCH   4  23
ATOM     23  O   UNL     1       6.430   3.181  32.061  0.00  0.00    -0.387 OA
ATOM     24  H   UNL     1       7.073   3.786  32.436  0.00  0.00    +0.210 HD
ENDBRANCH   4  23
ENDBRANCH   1   4
BRANCH   1  25
ATOM     25  C   UNL     1       3.458   2.497  31.395  0.00  0.00    +0.141 C 
BRANCH  25  28
ATOM     26  C   UNL     1       1.453   3.377  30.251  0.00  0.00    +0.401 C 
ATOM     27  O   UNL     1       0.696   3.145  31.197  0.00  0.00    -0.226 OA
ATOM     28  N   UNL     1       2.757   3.101  30.255  0.00  0.00    -0.279 N 
ATOM     29  H   UNL     1       3.294   3.319  29.428  0.00  0.00    +0.152 HD
BRANCH  26  30
ATOM     30  O   UNL     1       0.920   3.975  29.066  0.00  0.00    -0.444 OA
BRANCH  30  31
ATOM     31  C   UNL     1      -0.011   3.077  28.456  0.00  0.00    +0.292 C 
BRANCH  31  33
ATOM     32  N   UNL     1      -0.438   5.008  26.960  0.00  0.00    -0.131 NA
ATOM     33  C   UNL     1      -0.556   3.669  27.220  0.00  0.00    +0.120 A 
ATOM     34  C   UNL     1      -1.230   3.067  26.182  0.00  0.00    +0.137 A 
ATOM     35  N   UNL     1      -1.486   4.098  25.331  0.00  0.00    -0.251 N 
ATOM     36  N   UNL     1      -1.020   5.260  25.794  0.00  0.00    -0.065 NA
BRANCH  35  37
ATOM     37  C   UNL     1      -2.195   4.039  24.069  0.00  0.00    +0.150 C 
BRANCH  37  38
ATOM     38  C   UNL     1      -1.283   4.241  22.867  0.00  0.00    +0.074 C 
BRANCH  38  39
ATOM     39  C   UNL     1      -0.445   3.035  22.424  0.00  0.00    +0.134 C 
BRANCH  39  40
ATOM     40  N   UNL     1       1.069   3.008  22.820  0.00  0.00    +0.241 N 
ATOM     41  C   UNL     1       1.493   4.424  23.247  0.00  0.00    +0.192 C 
BRANCH  40  42
ATOM     42  C   UNL     1       1.850   2.627  21.519  0.00  0.00    +0.129 C 
ATOM     43  C   UNL     1       1.817   3.703  20.439  0.00  0.00    +0.060 C 
ENDBRANCH  40  42
BRANCH  40  44
ATOM     44  C   UNL     1       1.424   2.020  23.947  0.00  0.00    +0.129 C 
ATOM     45  C   UNL     1       2.872   1.560  23.939  0.00  0.00    +0.060 C 
ENDBRANCH  40  44
ENDBRANCH  39  40
ENDBRANCH  38  39
ENDBRANCH  37  38
ENDBRANCH  35  37
ENDBRANCH  31  33
ENDBRANCH  30  31
ENDBRANCH  26  30
ENDBRANCH  25  28
ENDBRANCH   1  25
TORSDOF 19
