REMARK VINA RESULT:    -6.665     13.314     17.919
REMARK INTER + INTRA:         -15.107
REMARK INTER:                 -13.413
REMARK INTRA:                  -1.694
REMARK UNBOUND:                -2.597
REMARK  Name = lig_assembled_77.pdb
REMARK  19 active torsions:
REMARK  status: ('A' for Active; 'I' for Inactive)
REMARK    1  A    between atoms: _2  and  _10
REMARK    2  A    between atoms: _3  and  _17
REMARK    3  A    between atoms: _5  and  _27
REMARK    4  A    between atoms: _7  and  _8
REMARK    5  A    between atoms: _7  and  _27
REMARK    6  A    between atoms: _13  and  _47
REMARK    7  A    between atoms: _14  and  _47
REMARK    8  A    between atoms: _23  and  _43
REMARK    9  A    between atoms: _25  and  _31
REMARK   10  A    between atoms: _26  and  _30
REMARK   11  A    between atoms: _30  and  _31
REMARK   12  A    between atoms: _33  and  _34
REMARK   13  A    between atoms: _35  and  _36
REMARK   14  A    between atoms: _37  and  _39
REMARK   15  A    between atoms: _39  and  _40
REMARK   16  A    between atoms: _39  and  _41
REMARK   17  A    between atoms: _41  and  _42
REMARK   18  A    between atoms: _41  and  _43
REMARK   19  A    between atoms: _44  and  _46
REMARK                            x       y       z     vdW  Elec       q    Type
REMARK                         _______ _______ _______ _____ _____    ______ ____
ROOT
ATOM      1  C   UNL     1      18.737   3.638  26.419  0.00  0.00    +0.401 C 
ATOM      2  O   UNL     1      18.438   3.968  25.270  0.00  0.00    -0.226 OA
ATOM      3  N   UNL     1      17.941   2.930  27.222  0.00  0.00    -0.279 N 
ATOM      4  H   UNL     1      18.279   2.699  28.146  0.00  0.00    +0.152 HD
ENDROOT
BRANCH   3   5
ATOM      5  C   UNL     1      16.601   2.468  26.839  0.00  0.00    +0.141 C 
BRANCH   5   6
ATOM      6  C   UNL     1      16.636   1.076  26.218  0.00  0.00    +0.163 C 
BRANCH   6   7
ATOM      7  O   UNL     1      15.674   0.225  26.862  0.00  0.00    -0.388 OA
ATOM      8  H   UNL     1      16.094  -0.241  27.589  0.00  0.00    +0.210 HD
ENDBRANCH   6   7
BRANCH   6   9
ATOM      9  C   UNL     1      16.355   1.179  24.709  0.00  0.00    +0.175 C 
BRANCH   9  10
ATOM     10  C   UNL     1      17.510   0.619  23.866  0.00  0.00    +0.176 C 
ATOM     11  O   UNL     1      17.539   1.347  22.607  0.00  0.00    -0.332 OA
ATOM     12  C   UNL     1      18.651   1.017  21.710  0.00  0.00    +0.277 C 
ATOM     13  C   UNL     1      18.691  -0.506  21.435  0.00  0.00    +0.110 C 
ATOM     14  C   UNL     1      18.630  -1.323  22.743  0.00  0.00    +0.143 C 
ATOM     15  C   UNL     1      17.438  -0.896  23.601  0.00  0.00    +0.133 C 
BRANCH  15  16
ATOM     16  N   UNL     1      17.440  -1.620  24.882  0.00  0.00    -0.308 N 
ATOM     17  H   UNL     1      18.145  -1.372  25.562  0.00  0.00    +0.149 HD
ATOM     18  C   UNL     1      16.572  -2.583  25.204  0.00  0.00    +0.210 C 
ATOM     19  C   UNL     1      15.527  -2.955  24.135  0.00  0.00    +0.109 C 
ATOM     20  O   UNL     1      16.589  -3.162  26.290  0.00  0.00    -0.276 OA
ENDBRANCH  15  16
BRANCH  12  21
ATOM     21  C   UNL     1      19.996   1.467  22.318  0.00  0.00    +0.414 C 
ATOM     22  O   UNL     1      21.050   1.246  21.723  0.00  0.00    -0.240 OA
ATOM     23  O   UNL     1      20.027   2.050  23.402  0.00  0.00    -0.240 OA
ENDBRANCH  12  21
BRANCH  14  24
ATOM     24  O   UNL     1      18.516  -2.713  22.437  0.00  0.00    -0.390 OA
ATOM     25  H   UNL     1      17.605  -2.993  22.551  0.00  0.00    +0.210 HD
ENDBRANCH  14  24
BRANCH  12  26
ATOM     26  O   UNL     1      18.430   1.704  20.451  0.00  0.00    -0.343 OA
ATOM     27  C   UNL     1      17.049   1.748  20.012  0.00  0.00    +0.198 C 
ENDBRANCH  12  26
ENDBRANCH   9  10
BRANCH   9  28
ATOM     28  O   UNL     1      16.094   2.550  24.345  0.00  0.00    -0.387 OA
ATOM     29  H   UNL     1      15.292   2.849  24.779  0.00  0.00    +0.210 HD
ENDBRANCH   9  28
ENDBRANCH   6   9
ENDBRANCH   5   6
ENDBRANCH   3   5
BRANCH   1  30
ATOM     30  O   UNL     1      20.011   4.021  26.944  0.00  0.00    -0.444 OA
BRANCH  30  31
ATOM     31  C   UNL     1      20.437   5.237  26.323  0.00  0.00    +0.292 C 
BRANCH  31  33
ATOM     32  N   UNL     1      20.516   7.654  26.839  0.00  0.00    -0.131 NA
ATOM     33  C   UNL     1      20.121   6.394  27.182  0.00  0.00    +0.121 A 
ATOM     34  C   UNL     1      19.436   6.447  28.374  0.00  0.00    +0.143 A 
ATOM     35  N   UNL     1      19.429   7.779  28.722  0.00  0.00    -0.220 N 
ATOM     36  N   UNL     1      20.102   8.488  27.782  0.00  0.00    -0.060 NA
BRANCH  35  37
ATOM     37  C   UNL     1      18.792   8.409  29.823  0.00  0.00    +0.067 A 
ATOM     38  C   UNL     1      18.298   7.655  30.898  0.00  0.00    +0.030 A 
ATOM     39  C   UNL     1      17.567   8.278  31.914  0.00  0.00    +0.029 A 
ATOM     40  C   UNL     1      17.335   9.654  31.856  0.00  0.00    +0.094 A 
ATOM     41  C   UNL     1      17.900  10.429  30.839  0.00  0.00    +0.029 A 
ATOM     42  C   UNL     1      18.618   9.804  29.816  0.00  0.00    +0.030 A 
BRANCH  40  43
ATOM     43  S   UNL     1      16.344  10.435  33.114  0.00  0.00    +0.025 S 
ATOM     44  O   UNL     1      15.332  11.205  32.411  0.00  0.00    -0.164 OA
ATOM     45  O   UNL     1      15.965   9.409  34.066  0.00  0.00    -0.164 OA
BRANCH  43  46
ATOM     46  C   UNL     1      17.357  11.597  34.007  0.00  0.00    +0.094 A 
ATOM     47  C   UNL     1      17.160  11.825  35.369  0.00  0.00    +0.029 A 
ATOM     48  C   UNL     1      17.933  12.790  36.025  0.00  0.00    +0.024 A 
ATOM     49  C   UNL     1      18.934  13.498  35.347  0.00  0.00    +0.025 A 
ATOM     50  C   UNL     1      19.097  13.277  33.976  0.00  0.00    +0.024 A 
ATOM     51  C   UNL     1      18.330  12.318  33.308  0.00  0.00    +0.029 A 
BRANCH  49  52
ATOM     52  N   UNL     1      19.578  14.572  35.966  0.00  0.00    -0.358 N 
ATOM     53  H   UNL     1      20.555  14.411  36.190  0.00  0.00    +0.142 HD
ATOM     54  H   UNL     1      19.426  15.469  35.515  0.00  0.00    +0.142 HD
ENDBRANCH  49  52
ENDBRANCH  43  46
ENDBRANCH  40  43
ENDBRANCH  35  37
ENDBRANCH  31  33
ENDBRANCH  30  31
ENDBRANCH   1  30
TORSDOF 17
