REMARK VINA RESULT:    -6.612      9.878     18.412
REMARK INTER + INTRA:         -13.760
REMARK INTER:                 -11.329
REMARK INTRA:                  -2.432
REMARK UNBOUND:                -1.736
REMARK  Name = lig_assembled_59.pdb
REMARK  18 active torsions:
REMARK  status: ('A' for Active; 'I' for Inactive)
REMARK    1  A    between atoms: _2  and  _10
REMARK    2  A    between atoms: _5  and  _20
REMARK    3  A    between atoms: _7  and  _8
REMARK    4  A    between atoms: _7  and  _20
REMARK    5  A    between atoms: _13  and  _14
REMARK    6  A    between atoms: _14  and  _15
REMARK    7  A    between atoms: _16  and  _36
REMARK    8  A    between atoms: _18  and  _24
REMARK    9  A    between atoms: _19  and  _23
REMARK   10  A    between atoms: _23  and  _24
REMARK   11  A    between atoms: _26  and  _27
REMARK   12  A    between atoms: _28  and  _29
REMARK   13  A    between atoms: _30  and  _32
REMARK   14  A    between atoms: _32  and  _33
REMARK   15  A    between atoms: _32  and  _34
REMARK   16  A    between atoms: _34  and  _35
REMARK   17  A    between atoms: _34  and  _36
REMARK   18  A    between atoms: _37  and  _39
REMARK                            x       y       z     vdW  Elec       q    Type
REMARK                         _______ _______ _______ _____ _____    ______ ____
ROOT
ATOM      1  C   UNL     1      -4.620   7.250  13.649  0.00  0.00    +0.163 C 
ENDROOT
BRANCH   1   2
ATOM      2  O   UNL     1      -4.759   6.821  15.013  0.00  0.00    -0.388 OA
ATOM      3  H   UNL     1      -4.830   5.864  15.043  0.00  0.00    +0.210 HD
ENDBRANCH   1   2
BRANCH   1   4
ATOM      4  C   UNL     1      -4.925   8.751  13.510  0.00  0.00    +0.175 C 
BRANCH   4   5
ATOM      5  C   UNL     1      -4.692   9.512  14.824  0.00  0.00    +0.176 C 
ATOM      6  O   UNL     1      -5.926   9.466  15.592  0.00  0.00    -0.332 OA
ATOM      7  C   UNL     1      -5.860  10.055  16.933  0.00  0.00    +0.277 C 
ATOM      8  C   UNL     1      -5.344  11.513  16.859  0.00  0.00    +0.110 C 
ATOM      9  C   UNL     1      -4.049  11.617  16.025  0.00  0.00    +0.143 C 
ATOM     10  C   UNL     1      -4.229  10.970  14.651  0.00  0.00    +0.133 C 
BRANCH  10  11
ATOM     11  N   UNL     1      -2.964  10.998  13.899  0.00  0.00    -0.308 N 
ATOM     12  H   UNL     1      -2.180  10.484  14.276  0.00  0.00    +0.149 HD
ATOM     13  C   UNL     1      -2.784  11.659  12.752  0.00  0.00    +0.210 C 
ATOM     14  C   UNL     1      -3.991  12.455  12.219  0.00  0.00    +0.109 C 
ATOM     15  O   UNL     1      -1.718  11.653  12.137  0.00  0.00    -0.276 OA
ENDBRANCH  10  11
BRANCH   7  16
ATOM     16  C   UNL     1      -4.936   9.226  17.849  0.00  0.00    +0.414 C 
ATOM     17  O   UNL     1      -4.512   8.133  17.477  0.00  0.00    -0.240 OA
ATOM     18  O   UNL     1      -4.616   9.651  18.960  0.00  0.00    -0.240 OA
ENDBRANCH   7  16
BRANCH   7  19
ATOM     19  O   UNL     1      -7.203  10.073  17.481  0.00  0.00    -0.343 OA
ATOM     20  C   UNL     1      -8.173   9.277  16.753  0.00  0.00    +0.198 C 
ENDBRANCH   7  19
BRANCH   9  21
ATOM     21  O   UNL     1      -3.694  12.989  15.856  0.00  0.00    -0.390 OA
ATOM     22  H   UNL     1      -4.375  13.547  16.240  0.00  0.00    +0.210 HD
ENDBRANCH   9  21
ENDBRANCH   4   5
BRANCH   4  23
ATOM     23  O   UNL     1      -6.280   8.944  13.058  0.00  0.00    -0.387 OA
ATOM     24  H   UNL     1      -6.584   9.816  13.319  0.00  0.00    +0.210 HD
ENDBRANCH   4  23
ENDBRANCH   1   4
BRANCH   1  25
ATOM     25  C   UNL     1      -3.205   6.969  13.155  0.00  0.00    +0.141 C 
BRANCH  25  28
ATOM     26  C   UNL     1      -1.374   7.442  14.745  0.00  0.00    +0.401 C 
ATOM     27  O   UNL     1      -1.170   8.581  14.317  0.00  0.00    -0.226 OA
ATOM     28  N   UNL     1      -2.300   6.617  14.257  0.00  0.00    -0.279 N 
ATOM     29  H   UNL     1      -2.385   5.698  14.668  0.00  0.00    +0.152 HD
BRANCH  26  30
ATOM     30  O   UNL     1      -0.576   6.954  15.827  0.00  0.00    -0.444 OA
BRANCH  30  31
ATOM     31  C   UNL     1      -1.308   5.961  16.550  0.00  0.00    +0.292 C 
BRANCH  31  33
ATOM     32  N   UNL     1       0.701   4.547  16.823  0.00  0.00    -0.131 NA
ATOM     33  C   UNL     1      -0.393   5.152  17.377  0.00  0.00    +0.121 A 
ATOM     34  C   UNL     1      -0.436   4.862  18.721  0.00  0.00    +0.145 A 
ATOM     35  N   UNL     1       0.666   4.068  18.945  0.00  0.00    -0.202 N 
ATOM     36  N   UNL     1       1.343   3.893  17.782  0.00  0.00    -0.059 NA
BRANCH  35  37
ATOM     37  C   UNL     1       1.072   3.483  20.175  0.00  0.00    +0.156 A 
ATOM     38  C   UNL     1       1.428   4.314  21.236  0.00  0.00    +0.048 A 
ATOM     39  C   UNL     1       1.865   3.733  22.425  0.00  0.00    +0.011 A 
ATOM     40  C   UNL     1       1.934   2.343  22.539  0.00  0.00    -0.004 A 
ATOM     41  C   UNL     1       1.558   1.594  21.427  0.00  0.00    +0.119 A 
ATOM     42  N   UNL     1       1.122   2.125  20.260  0.00  0.00    -0.236 NA
BRANCH  40  43
ATOM     43  C   UNL     1       2.490   1.701  23.776  0.00  0.00    +0.192 C 
BRANCH  43  44
ATOM     44  O   UNL     1       3.037   0.421  23.494  0.00  0.00    -0.390 OA
ATOM     45  H   UNL     1       2.303  -0.137  23.181  0.00  0.00    +0.210 HD
ENDBRANCH  43  44
ENDBRANCH  40  43
ENDBRANCH  35  37
ENDBRANCH  31  33
ENDBRANCH  30  31
ENDBRANCH  26  30
ENDBRANCH  25  28
ENDBRANCH   1  25
TORSDOF 16
