REMARK VINA RESULT:    -6.754     14.446     16.907
REMARK INTER + INTRA:         -14.618
REMARK INTER:                 -12.320
REMARK INTRA:                  -2.298
REMARK UNBOUND:                -2.138
REMARK  Name = lig_assembled_92.pdb
REMARK  18 active torsions:
REMARK  status: ('A' for Active; 'I' for Inactive)
REMARK    1  A    between atoms: _2  and  _11
REMARK    2  A    between atoms: _3  and  _46
REMARK    3  A    between atoms: _6  and  _25
REMARK    4  A    between atoms: _8  and  _9
REMARK    5  A    between atoms: _8  and  _25
REMARK    6  A    between atoms: _14  and  _46
REMARK    7  A    between atoms: _21  and  _41
REMARK    8  A    between atoms: _23  and  _29
REMARK    9  A    between atoms: _24  and  _28
REMARK   10  A    between atoms: _28  and  _29
REMARK   11  A    between atoms: _31  and  _32
REMARK   12  A    between atoms: _33  and  _34
REMARK   13  A    between atoms: _35  and  _37
REMARK   14  A    between atoms: _37  and  _38
REMARK   15  A    between atoms: _37  and  _39
REMARK   16  A    between atoms: _39  and  _40
REMARK   17  A    between atoms: _39  and  _41
REMARK   18  A    between atoms: _42  and  _44
REMARK                            x       y       z     vdW  Elec       q    Type
REMARK                         _______ _______ _______ _____ _____    ______ ____
ROOT
ATOM      1  C   UNL     1       3.029   1.770  30.962  0.00  0.00    +0.401 C 
ATOM      2  O   UNL     1       2.277   2.537  31.568  0.00  0.00    -0.226 OA
ATOM      3  N   UNL     1       4.238   1.413  31.397  0.00  0.00    -0.279 N 
ATOM      4  H   UNL     1       4.777   0.771  30.833  0.00  0.00    +0.152 HD
ENDROOT
BRANCH   3   5
ATOM      5  C   UNL     1       4.830   1.902  32.648  0.00  0.00    +0.141 C 
BRANCH   5   6
ATOM      6  C   UNL     1       5.385   3.315  32.501  0.00  0.00    +0.163 C 
BRANCH   6   7
ATOM      7  O   UNL     1       4.463   4.265  33.061  0.00  0.00    -0.388 OA
ATOM      8  H   UNL     1       4.935   4.864  33.645  0.00  0.00    +0.210 HD
ENDBRANCH   6   7
BRANCH   6   9
ATOM      9  C   UNL     1       6.755   3.404  33.195  0.00  0.00    +0.175 C 
BRANCH   9  10
ATOM     10  C   UNL     1       6.643   3.941  34.629  0.00  0.00    +0.176 C 
ATOM     11  O   UNL     1       6.658   5.394  34.565  0.00  0.00    -0.332 OA
ATOM     12  C   UNL     1       6.453   6.087  35.840  0.00  0.00    +0.277 C 
ATOM     13  C   UNL     1       7.479   5.599  36.892  0.00  0.00    +0.110 C 
ATOM     14  C   UNL     1       7.523   4.059  36.974  0.00  0.00    +0.143 C 
ATOM     15  C   UNL     1       7.737   3.442  35.591  0.00  0.00    +0.133 C 
BRANCH  15  16
ATOM     16  N   UNL     1       7.690   1.973  35.670  0.00  0.00    -0.308 N 
ATOM     17  H   UNL     1       6.859   1.548  36.056  0.00  0.00    +0.149 HD
ATOM     18  C   UNL     1       8.673   1.166  35.263  0.00  0.00    +0.210 C 
ATOM     19  C   UNL     1       9.937   1.846  34.703  0.00  0.00    +0.109 C 
ATOM     20  O   UNL     1       8.600  -0.062  35.327  0.00  0.00    -0.276 OA
ENDBRANCH  15  16
BRANCH  12  21
ATOM     21  C   UNL     1       5.022   5.850  36.368  0.00  0.00    +0.414 C 
ATOM     22  O   UNL     1       4.098   5.641  35.582  0.00  0.00    -0.240 OA
ATOM     23  O   UNL     1       4.792   5.868  37.577  0.00  0.00    -0.240 OA
ENDBRANCH  12  21
BRANCH  14  24
ATOM     24  O   UNL     1       8.583   3.652  37.840  0.00  0.00    -0.390 OA
ATOM     25  H   UNL     1       9.425   3.917  37.463  0.00  0.00    +0.210 HD
ENDBRANCH  14  24
BRANCH  12  26
ATOM     26  O   UNL     1       6.663   7.505  35.619  0.00  0.00    -0.343 OA
ATOM     27  C   UNL     1       7.148   7.854  34.298  0.00  0.00    +0.198 C 
ENDBRANCH  12  26
ENDBRANCH   9  10
BRANCH   9  28
ATOM     28  O   UNL     1       7.649   4.230  32.423  0.00  0.00    -0.387 OA
ATOM     29  H   UNL     1       8.454   4.386  32.924  0.00  0.00    +0.210 HD
ENDBRANCH   9  28
ENDBRANCH   6   9
ENDBRANCH   5   6
ENDBRANCH   3   5
BRANCH   1  30
ATOM     30  O   UNL     1       2.598   1.214  29.717  0.00  0.00    -0.444 OA
BRANCH  30  31
ATOM     31  C   UNL     1       1.410   1.881  29.282  0.00  0.00    +0.292 C 
BRANCH  31  33
ATOM     32  N   UNL     1       2.186   3.750  27.850  0.00  0.00    -0.131 NA
ATOM     33  C   UNL     1       1.627   2.510  27.966  0.00  0.00    +0.121 A 
ATOM     34  C   UNL     1       1.349   2.025  26.710  0.00  0.00    +0.143 A 
ATOM     35  N   UNL     1       1.788   3.001  25.845  0.00  0.00    -0.220 N 
ATOM     36  N   UNL     1       2.276   4.044  26.559  0.00  0.00    -0.060 NA
BRANCH  35  37
ATOM     37  C   UNL     1       1.800   2.980  24.427  0.00  0.00    +0.067 A 
ATOM     38  C   UNL     1       1.698   4.176  23.699  0.00  0.00    +0.030 A 
ATOM     39  C   UNL     1       1.651   4.147  22.306  0.00  0.00    +0.031 A 
ATOM     40  C   UNL     1       1.717   2.925  21.634  0.00  0.00    +0.109 A 
ATOM     41  C   UNL     1       1.829   1.727  22.344  0.00  0.00    +0.031 A 
ATOM     42  C   UNL     1       1.881   1.756  23.743  0.00  0.00    +0.030 A 
BRANCH  40  43
ATOM     43  S   UNL     1       1.501   2.916  19.874  0.00  0.00    +0.074 S 
ATOM     44  O   UNL     1       2.247   4.037  19.336  0.00  0.00    -0.150 OA
ATOM     45  O   UNL     1       1.749   1.580  19.386  0.00  0.00    -0.150 OA
BRANCH  43  46
ATOM     46  N   UNL     1      -0.123   3.334  19.675  0.00  0.00    -0.194 N 
ATOM     47  H   UNL     1      -0.152   3.998  18.906  0.00  0.00    +0.176 HD
ATOM     48  C   UNL     1      -0.942   2.204  19.473  0.00  0.00    +0.177 A 
ATOM     49  S   UNL     1      -1.432   1.684  17.920  0.00  0.00    -0.059 S 
ATOM     50  C   UNL     1      -2.400   0.474  18.657  0.00  0.00    +0.068 A 
ATOM     51  C   UNL     1      -2.338   0.607  20.028  0.00  0.00    +0.120 A 
ATOM     52  N   UNL     1      -1.474   1.581  20.495  0.00  0.00    -0.232 NA
ENDBRANCH  43  46
ENDBRANCH  40  43
ENDBRANCH  35  37
ENDBRANCH  31  33
ENDBRANCH  30  31
ENDBRANCH   1  30
TORSDOF 16
