REMARK VINA RESULT:    -6.759      8.747     13.773
REMARK INTER + INTRA:         -14.130
REMARK INTER:                 -11.669
REMARK INTRA:                  -2.461
REMARK UNBOUND:                -1.444
REMARK  Name = lig_assembled_16.pdb
REMARK  19 active torsions:
REMARK  status: ('A' for Active; 'I' for Inactive)
REMARK    1  A    between atoms: _2  and  _9
REMARK    2  A    between atoms: _4  and  _22
REMARK    3  A    between atoms: _6  and  _7
REMARK    4  A    between atoms: _6  and  _22
REMARK    5  A    between atoms: _9  and  _10
REMARK    6  A    between atoms: _13  and  _14
REMARK    7  A    between atoms: _14  and  _16
REMARK    8  A    between atoms: _18  and  _38
REMARK    9  A    between atoms: _20  and  _26
REMARK   10  A    between atoms: _21  and  _25
REMARK   11  A    between atoms: _25  and  _26
REMARK   12  A    between atoms: _28  and  _29
REMARK   13  A    between atoms: _30  and  _31
REMARK   14  A    between atoms: _32  and  _34
REMARK   15  A    between atoms: _34  and  _35
REMARK   16  A    between atoms: _34  and  _36
REMARK   17  A    between atoms: _36  and  _37
REMARK   18  A    between atoms: _36  and  _38
REMARK   19  A    between atoms: _39  and  _41
REMARK                            x       y       z     vdW  Elec       q    Type
REMARK                         _______ _______ _______ _____ _____    ______ ____
ROOT
ATOM      1  C   UNL     1      17.005   2.410  22.864  0.00  0.00    +0.163 C 
ENDROOT
BRANCH   1   2
ATOM      2  O   UNL     1      17.627   1.566  21.881  0.00  0.00    -0.388 OA
ATOM      3  H   UNL     1      18.248   0.974  22.313  0.00  0.00    +0.210 HD
ENDBRANCH   1   2
BRANCH   1   4
ATOM      4  C   UNL     1      17.460   2.028  24.283  0.00  0.00    +0.175 C 
BRANCH   4   5
ATOM      5  C   UNL     1      17.851   0.547  24.386  0.00  0.00    +0.176 C 
ATOM      6  O   UNL     1      16.688  -0.249  24.030  0.00  0.00    -0.332 OA
ATOM      7  C   UNL     1      16.904  -1.698  23.969  0.00  0.00    +0.277 C 
ATOM      8  C   UNL     1      17.501  -2.212  25.302  0.00  0.00    +0.110 C 
ATOM      9  C   UNL     1      18.723  -1.376  25.739  0.00  0.00    +0.143 C 
ATOM     10  C   UNL     1      18.387   0.116  25.764  0.00  0.00    +0.133 C 
BRANCH  10  11
ATOM     11  N   UNL     1      19.581   0.908  26.097  0.00  0.00    -0.308 N 
ATOM     12  H   UNL     1      20.387   0.823  25.493  0.00  0.00    +0.149 HD
ATOM     13  C   UNL     1      19.671   1.731  27.145  0.00  0.00    +0.210 C 
ATOM     14  C   UNL     1      18.436   1.818  28.061  0.00  0.00    +0.109 C 
ATOM     15  O   UNL     1      20.680   2.393  27.390  0.00  0.00    -0.276 OA
ENDBRANCH  10  11
BRANCH   7  16
ATOM     16  C   UNL     1      17.851  -2.061  22.806  0.00  0.00    +0.414 C 
ATOM     17  O   UNL     1      17.963  -1.308  21.839  0.00  0.00    -0.240 OA
ATOM     18  O   UNL     1      18.503  -3.106  22.835  0.00  0.00    -0.240 OA
ENDBRANCH   7  16
BRANCH   7  19
ATOM     19  O   UNL     1      15.617  -2.336  23.769  0.00  0.00    -0.343 OA
ATOM     20  C   UNL     1      15.536  -3.709  24.227  0.00  0.00    +0.198 C 
ENDBRANCH   7  19
BRANCH   9  21
ATOM     21  O   UNL     1      19.147  -1.785  27.040  0.00  0.00    -0.390 OA
ATOM     22  H   UNL     1      19.827  -1.187  27.358  0.00  0.00    +0.210 HD
ENDBRANCH   9  21
ENDBRANCH   4   5
BRANCH   4  23
ATOM     23  O   UNL     1      16.423   2.335  25.236  0.00  0.00    -0.387 OA
ATOM     24  H   UNL     1      16.166   3.255  25.145  0.00  0.00    +0.210 HD
ENDBRANCH   4  23
ENDBRANCH   1   4
BRANCH   1  25
ATOM     25  C   UNL     1      17.352   3.870  22.593  0.00  0.00    +0.141 C 
BRANCH  25  28
ATOM     26  C   UNL     1      18.462   5.720  23.798  0.00  0.00    +0.401 C 
ATOM     27  O   UNL     1      17.922   6.604  23.130  0.00  0.00    -0.226 OA
ATOM     28  N   UNL     1      18.258   4.415  23.612  0.00  0.00    -0.279 N 
ATOM     29  H   UNL     1      18.755   3.765  24.205  0.00  0.00    +0.152 HD
BRANCH  26  30
ATOM     30  O   UNL     1      19.370   6.092  24.839  0.00  0.00    -0.444 OA
BRANCH  30  31
ATOM     31  C   UNL     1      18.765   7.091  25.665  0.00  0.00    +0.292 C 
BRANCH  31  33
ATOM     32  N   UNL     1      18.912   5.466  27.530  0.00  0.00    -0.131 NA
ATOM     33  C   UNL     1      18.962   6.764  27.088  0.00  0.00    +0.120 A 
ATOM     34  C   UNL     1      19.237   7.592  28.154  0.00  0.00    +0.137 A 
ATOM     35  N   UNL     1      19.436   6.730  29.191  0.00  0.00    -0.247 N 
ATOM     36  N   UNL     1      19.189   5.458  28.828  0.00  0.00    -0.065 NA
BRANCH  35  37
ATOM     37  C   UNL     1      19.882   7.040  30.534  0.00  0.00    +0.180 C 
BRANCH  37  38
ATOM     38  C   UNL     1      18.797   7.730  31.328  0.00  0.00    -0.026 A 
ATOM     39  C   UNL     1      18.766   9.128  31.435  0.00  0.00    +0.006 A 
ATOM     40  C   UNL     1      17.739   9.762  32.140  0.00  0.00    +0.015 A 
ATOM     41  C   UNL     1      16.736   9.010  32.756  0.00  0.00    +0.059 A 
ATOM     42  C   UNL     1      16.768   7.610  32.675  0.00  0.00    +0.015 A 
ATOM     43  C   UNL     1      17.801   6.979  31.975  0.00  0.00    +0.006 A 
BRANCH  41  44
ATOM     44  C   UNL     1      15.628   9.738  33.429  0.00  0.00    +0.337 C 
ATOM     45  O   UNL     1      15.814  10.492  34.371  0.00  0.00    -0.245 OA
BRANCH  44  46
ATOM     46  O   UNL     1      14.407   9.466  32.932  0.00  0.00    -0.477 OA
ATOM     47  H   UNL     1      13.702   9.362  33.596  0.00  0.00    +0.295 HD
ENDBRANCH  44  46
ENDBRANCH  41  44
ENDBRANCH  37  38
ENDBRANCH  35  37
ENDBRANCH  31  33
ENDBRANCH  30  31
ENDBRANCH  26  30
ENDBRANCH  25  28
ENDBRANCH   1  25
TORSDOF 17
