REMARK VINA RESULT:    -7.204     24.964     27.211
REMARK INTER + INTRA:         -16.996
REMARK INTER:                 -14.160
REMARK INTRA:                  -2.836
REMARK UNBOUND:                -3.474
REMARK  Name = lig_assembled_34.pdb
REMARK  19 active torsions:
REMARK  status: ('A' for Active; 'I' for Inactive)
REMARK    1  A    between atoms: _2  and  _9
REMARK    2  A    between atoms: _4  and  _37
REMARK    3  A    between atoms: _6  and  _7
REMARK    4  A    between atoms: _6  and  _37
REMARK    5  A    between atoms: _11  and  _12
REMARK    6  A    between atoms: _13  and  _14
REMARK    7  A    between atoms: _18  and  _31
REMARK    8  A    between atoms: _33  and  _53
REMARK    9  A    between atoms: _35  and  _41
REMARK   10  A    between atoms: _36  and  _40
REMARK   11  A    between atoms: _40  and  _41
REMARK   12  A    between atoms: _43  and  _44
REMARK   13  A    between atoms: _45  and  _46
REMARK   14  A    between atoms: _47  and  _49
REMARK   15  A    between atoms: _49  and  _50
REMARK   16  A    between atoms: _49  and  _51
REMARK   17  A    between atoms: _51  and  _52
REMARK   18  A    between atoms: _51  and  _53
REMARK   19  A    between atoms: _54  and  _56
REMARK                            x       y       z     vdW  Elec       q    Type
REMARK                         _______ _______ _______ _____ _____    ______ ____
ROOT
ATOM      1  N   UNL     1      19.093   9.034  27.171  0.00  0.00    -0.131 NA
ATOM      2  C   UNL     1      19.518   7.735  27.175  0.00  0.00    +0.121 A 
ATOM      3  C   UNL     1      19.519   7.272  28.467  0.00  0.00    +0.143 A 
ATOM      4  N   UNL     1      19.055   8.318  29.235  0.00  0.00    -0.220 N 
ATOM      5  N   UNL     1      18.828   9.388  28.426  0.00  0.00    -0.060 NA
ENDROOT
BRANCH   4   6
ATOM      6  C   UNL     1      18.790   8.329  30.631  0.00  0.00    +0.068 A 
ATOM      7  C   UNL     1      17.509   8.012  31.094  0.00  0.00    +0.038 A 
ATOM      8  C   UNL     1      17.139   8.126  32.457  0.00  0.00    +0.007 A 
ATOM      9  C   UNL     1      18.124   8.501  33.392  0.00  0.00    -0.008 A 
ATOM     10  C   UNL     1      19.433   8.772  32.922  0.00  0.00    +0.011 A 
ATOM     11  C   UNL     1      19.763   8.705  31.557  0.00  0.00    +0.028 A 
BRANCH   9  12
ATOM     12  C   UNL     1      17.874   8.716  34.855  0.00  0.00    +0.004 A 
ATOM     13  C   UNL     1      17.889   7.693  35.756  0.00  0.00    +0.026 A 
ATOM     14  C   UNL     1      18.089   6.293  35.364  0.00  0.00    +0.016 A 
ATOM     15  C   UNL     1      17.913   5.288  36.235  0.00  0.00    +0.051 A 
ATOM     16  C   UNL     1      17.542   5.566  37.643  0.00  0.00    +0.183 A 
ATOM     17  O   UNL     1      17.314   4.654  38.434  0.00  0.00    -0.288 OA
ATOM     18  C   UNL     1      17.528   6.976  38.078  0.00  0.00    +0.097 A 
ATOM     19  C   UNL     1      17.725   7.965  37.197  0.00  0.00    +0.140 A 
ATOM     20  O   UNL     1      17.843   9.261  37.677  0.00  0.00    -0.455 OA
ATOM     21  C   UNL     1      17.790  10.297  36.783  0.00  0.00    +0.140 A 
ATOM     22  C   UNL     1      17.819  11.582  37.325  0.00  0.00    +0.092 A 
ATOM     23  C   UNL     1      17.710  12.678  36.483  0.00  0.00    +0.120 A 
ATOM     24  C   UNL     1      17.494  12.501  35.120  0.00  0.00    +0.046 A 
ATOM     25  C   UNL     1      17.480  11.207  34.590  0.00  0.00    +0.016 A 
ATOM     26  C   UNL     1      17.692  10.088  35.410  0.00  0.00    +0.026 A 
BRANCH  23  27
ATOM     27  O   UNL     1      17.832  13.923  37.023  0.00  0.00    -0.507 OA
ATOM     28  H   UNL     1      18.709  14.264  36.782  0.00  0.00    +0.292 HD
ENDBRANCH  23  27
ENDBRANCH   9  12
BRANCH   8  29
ATOM     29  C   UNL     1      15.675   7.904  32.781  0.00  0.00    +0.072 C 
ATOM     30  O   UNL     1      14.933   8.939  32.750  0.00  0.00    -0.545 OA
ATOM     31  O   UNL     1      15.305   6.745  33.129  0.00  0.00    -0.545 OA
ENDBRANCH   8  29
ENDBRANCH   4   6
BRANCH   2  32
ATOM     32  C   UNL     1      19.893   7.021  25.939  0.00  0.00    +0.292 C 
BRANCH  32  33
ATOM     33  O   UNL     1      18.819   6.193  25.485  0.00  0.00    -0.444 OA
BRANCH  33  34
ATOM     34  C   UNL     1      19.139   4.821  25.726  0.00  0.00    +0.401 C 
ATOM     35  O   UNL     1      20.324   4.487  25.803  0.00  0.00    -0.226 OA
ATOM     36  N   UNL     1      18.116   3.975  25.858  0.00  0.00    -0.279 N 
ATOM     37  H   UNL     1      17.179   4.346  25.789  0.00  0.00    +0.152 HD
BRANCH  36  38
ATOM     38  C   UNL     1      18.275   2.536  26.099  0.00  0.00    +0.141 C 
BRANCH  38  39
ATOM     39  C   UNL     1      16.933   1.812  26.125  0.00  0.00    +0.163 C 
BRANCH  39  40
ATOM     40  O   UNL     1      15.962   2.603  26.829  0.00  0.00    -0.388 OA
ATOM     41  H   UNL     1      15.192   2.064  27.026  0.00  0.00    +0.210 HD
ENDBRANCH  39  40
BRANCH  39  42
ATOM     42  C   UNL     1      16.473   1.531  24.684  0.00  0.00    +0.175 C 
BRANCH  42  43
ATOM     43  C   UNL     1      17.584   0.894  23.836  0.00  0.00    +0.176 C 
ATOM     44  O   UNL     1      17.591   1.552  22.540  0.00  0.00    -0.332 OA
ATOM     45  C   UNL     1      18.663   1.144  21.627  0.00  0.00    +0.277 C 
ATOM     46  C   UNL     1      18.654  -0.393  21.434  0.00  0.00    +0.110 C 
ATOM     47  C   UNL     1      18.615  -1.136  22.786  0.00  0.00    +0.143 C 
ATOM     48  C   UNL     1      17.464  -0.631  23.657  0.00  0.00    +0.133 C 
BRANCH  48  49
ATOM     49  N   UNL     1      17.490  -1.285  24.975  0.00  0.00    -0.308 N 
ATOM     50  H   UNL     1      18.232  -1.032  25.612  0.00  0.00    +0.149 HD
ATOM     51  C   UNL     1      16.596  -2.189  25.384  0.00  0.00    +0.210 C 
ATOM     52  C   UNL     1      15.492  -2.571  24.381  0.00  0.00    +0.109 C 
ATOM     53  O   UNL     1      16.634  -2.709  26.500  0.00  0.00    -0.276 OA
ENDBRANCH  48  49
BRANCH  45  54
ATOM     54  C   UNL     1      20.039   1.587  22.166  0.00  0.00    +0.414 C 
ATOM     55  O   UNL     1      20.111   2.325  23.148  0.00  0.00    -0.240 OA
ATOM     56  O   UNL     1      21.075   1.208  21.619  0.00  0.00    -0.240 OA
ENDBRANCH  45  54
BRANCH  47  57
ATOM     57  O   UNL     1      18.454  -2.537  22.561  0.00  0.00    -0.390 OA
ATOM     58  H   UNL     1      17.553  -2.716  22.283  0.00  0.00    +0.210 HD
ENDBRANCH  47  57
BRANCH  45  59
ATOM     59  O   UNL     1      18.418   1.767  20.340  0.00  0.00    -0.343 OA
ATOM     60  C   UNL     1      17.024   1.839  19.949  0.00  0.00    +0.198 C 
ENDBRANCH  45  59
ENDBRANCH  42  43
BRANCH  42  61
ATOM     61  O   UNL     1      16.011   2.747  24.064  0.00  0.00    -0.387 OA
ATOM     62  H   UNL     1      15.880   2.598  23.124  0.00  0.00    +0.210 HD
ENDBRANCH  42  61
ENDBRANCH  39  42
ENDBRANCH  38  39
ENDBRANCH  36  38
ENDBRANCH  33  34
ENDBRANCH  32  33
ENDBRANCH   2  32
TORSDOF 17
