REMARK VINA RESULT:    -5.319     13.640     16.853
REMARK INTER + INTRA:         -12.482
REMARK INTER:                 -10.392
REMARK INTRA:                  -2.091
REMARK UNBOUND:                -2.810
REMARK  Name = lig_assembled_53.pdb
REMARK  18 active torsions:
REMARK  status: ('A' for Active; 'I' for Inactive)
REMARK    1  A    between atoms: _2  and  _9
REMARK    2  A    between atoms: _4  and  _16
REMARK    3  A    between atoms: _5  and  _9
REMARK    4  A    between atoms: _5  and  _10
REMARK    5  A    between atoms: _6  and  _7
REMARK    6  A    between atoms: _6  and  _16
REMARK    7  A    between atoms: _12  and  _32
REMARK    8  A    between atoms: _14  and  _20
REMARK    9  A    between atoms: _15  and  _19
REMARK   10  A    between atoms: _19  and  _20
REMARK   11  A    between atoms: _22  and  _23
REMARK   12  A    between atoms: _24  and  _25
REMARK   13  A    between atoms: _26  and  _28
REMARK   14  A    between atoms: _28  and  _29
REMARK   15  A    between atoms: _28  and  _30
REMARK   16  A    between atoms: _30  and  _31
REMARK   17  A    between atoms: _30  and  _32
REMARK   18  A    between atoms: _33  and  _35
REMARK                            x       y       z     vdW  Elec       q    Type
REMARK                         _______ _______ _______ _____ _____    ______ ____
ROOT
ATOM      1  C   UNL     1       6.364  -6.690  15.324  0.00  0.00    +0.175 C 
ENDROOT
BRANCH   1   2
ATOM      2  C   UNL     1       6.984  -6.076  16.588  0.00  0.00    +0.176 C 
ATOM      3  O   UNL     1       7.851  -7.075  17.192  0.00  0.00    -0.332 OA
ATOM      4  C   UNL     1       8.616  -6.628  18.360  0.00  0.00    +0.277 C 
ATOM      5  C   UNL     1       7.669  -6.038  19.434  0.00  0.00    +0.110 C 
ATOM      6  C   UNL     1       6.707  -4.993  18.832  0.00  0.00    +0.143 C 
ATOM      7  C   UNL     1       5.965  -5.562  17.622  0.00  0.00    +0.133 C 
BRANCH   7   8
ATOM      8  N   UNL     1       5.116  -4.531  17.005  0.00  0.00    -0.308 N 
ATOM      9  H   UNL     1       5.569  -3.704  16.641  0.00  0.00    +0.149 HD
ATOM     10  C   UNL     1       3.788  -4.616  16.896  0.00  0.00    +0.210 C 
ATOM     11  C   UNL     1       3.126  -5.876  17.484  0.00  0.00    +0.109 C 
ATOM     12  O   UNL     1       3.104  -3.742  16.361  0.00  0.00    -0.276 OA
ENDBRANCH   7   8
BRANCH   4  13
ATOM     13  C   UNL     1       9.661  -5.568  17.955  0.00  0.00    +0.414 C 
ATOM     14  O   UNL     1      10.283  -4.949  18.818  0.00  0.00    -0.240 OA
ATOM     15  O   UNL     1       9.883  -5.331  16.767  0.00  0.00    -0.240 OA
ENDBRANCH   4  13
BRANCH   4  16
ATOM     16  O   UNL     1       9.287  -7.783  18.926  0.00  0.00    -0.343 OA
ATOM     17  C   UNL     1       9.045  -8.000  20.339  0.00  0.00    +0.198 C 
ENDBRANCH   4  16
BRANCH   6  18
ATOM     18  O   UNL     1       5.757  -4.589  19.819  0.00  0.00    -0.390 OA
ATOM     19  H   UNL     1       5.716  -5.250  20.514  0.00  0.00    +0.210 HD
ENDBRANCH   6  18
ENDBRANCH   1   2
BRANCH   1  20
ATOM     20  O   UNL     1       5.871  -8.015  15.607  0.00  0.00    -0.387 OA
ATOM     21  H   UNL     1       5.149  -7.960  16.237  0.00  0.00    +0.210 HD
ENDBRANCH   1  20
BRANCH   1  22
ATOM     22  C   UNL     1       7.360  -6.734  14.153  0.00  0.00    +0.163 C 
BRANCH  22  23
ATOM     23  O   UNL     1       8.358  -5.708  14.288  0.00  0.00    -0.388 OA
ATOM     24  H   UNL     1       9.207  -6.111  14.486  0.00  0.00    +0.210 HD
ENDBRANCH  22  23
BRANCH  22  25
ATOM     25  C   UNL     1       6.608  -6.559  12.838  0.00  0.00    +0.141 C 
BRANCH  25  28
ATOM     26  C   UNL     1       5.513  -4.394  12.368  0.00  0.00    +0.401 C 
ATOM     27  O   UNL     1       4.392  -4.781  12.708  0.00  0.00    -0.226 OA
ATOM     28  N   UNL     1       6.604  -5.161  12.390  0.00  0.00    -0.279 N 
ATOM     29  H   UNL     1       7.477  -4.757  12.083  0.00  0.00    +0.152 HD
BRANCH  26  30
ATOM     30  O   UNL     1       5.675  -3.048  11.914  0.00  0.00    -0.444 OA
BRANCH  30  31
ATOM     31  C   UNL     1       5.275  -2.144  12.947  0.00  0.00    +0.292 C 
BRANCH  31  33
ATOM     32  N   UNL     1       6.213  -0.230  14.209  0.00  0.00    -0.131 NA
ATOM     33  C   UNL     1       6.386  -1.243  13.304  0.00  0.00    +0.120 A 
ATOM     34  C   UNL     1       7.688  -1.228  12.856  0.00  0.00    +0.137 A 
ATOM     35  N   UNL     1       8.240  -0.146  13.472  0.00  0.00    -0.241 N 
ATOM     36  N   UNL     1       7.361   0.423  14.321  0.00  0.00    -0.065 NA
BRANCH  35  37
ATOM     37  C   UNL     1       9.603   0.344  13.462  0.00  0.00    +0.265 C 
BRANCH  37  38
ATOM     38  C   UNL     1       9.929   1.315  12.359  0.00  0.00    +0.326 C 
ATOM     39  O   UNL     1       9.947   2.534  12.440  0.00  0.00    -0.249 OA
BRANCH  38  40
ATOM     40  O   UNL     1      10.209   0.692  11.183  0.00  0.00    -0.479 OA
ATOM     41  H   UNL     1      11.155   0.563  10.983  0.00  0.00    +0.295 HD
ENDBRANCH  38  40
ENDBRANCH  37  38
ENDBRANCH  35  37
ENDBRANCH  31  33
ENDBRANCH  30  31
ENDBRANCH  26  30
ENDBRANCH  25  28
ENDBRANCH  22  25
ENDBRANCH   1  22
TORSDOF 16
