REMARK VINA RESULT:    -5.409     14.288     16.288
REMARK INTER + INTRA:         -13.147
REMARK INTER:                 -10.976
REMARK INTRA:                  -2.171
REMARK UNBOUND:                -3.154
REMARK  Name = lig_assembled_67.pdb
REMARK  18 active torsions:
REMARK  status: ('A' for Active; 'I' for Inactive)
REMARK    1  A    between atoms: _2  and  _9
REMARK    2  A    between atoms: _4  and  _19
REMARK    3  A    between atoms: _6  and  _7
REMARK    4  A    between atoms: _6  and  _19
REMARK    5  A    between atoms: _9  and  _10
REMARK    6  A    between atoms: _10  and  _11
REMARK    7  A    between atoms: _15  and  _35
REMARK    8  A    between atoms: _17  and  _23
REMARK    9  A    between atoms: _18  and  _22
REMARK   10  A    between atoms: _22  and  _23
REMARK   11  A    between atoms: _25  and  _26
REMARK   12  A    between atoms: _27  and  _28
REMARK   13  A    between atoms: _29  and  _31
REMARK   14  A    between atoms: _31  and  _32
REMARK   15  A    between atoms: _31  and  _33
REMARK   16  A    between atoms: _33  and  _34
REMARK   17  A    between atoms: _33  and  _35
REMARK   18  A    between atoms: _36  and  _38
REMARK                            x       y       z     vdW  Elec       q    Type
REMARK                         _______ _______ _______ _____ _____    ______ ____
ROOT
ATOM      1  C   UNL     1      18.766  10.163  29.286  0.00  0.00    +0.163 C 
ENDROOT
BRANCH   1   2
ATOM      2  O   UNL     1      17.498  10.779  29.563  0.00  0.00    -0.388 OA
ATOM      3  H   UNL     1      17.325  11.463  28.912  0.00  0.00    +0.210 HD
ENDBRANCH   1   2
BRANCH   1   4
ATOM      4  C   UNL     1      18.855   8.770  29.934  0.00  0.00    +0.175 C 
BRANCH   4   5
ATOM      5  C   UNL     1      18.056   8.690  31.243  0.00  0.00    +0.176 C 
ATOM      6  O   UNL     1      18.336   9.892  32.012  0.00  0.00    -0.332 OA
ATOM      7  C   UNL     1      17.575  10.042  33.255  0.00  0.00    +0.277 C 
ATOM      8  C   UNL     1      17.753   8.793  34.153  0.00  0.00    +0.110 C 
ATOM      9  C   UNL     1      17.496   7.488  33.370  0.00  0.00    +0.143 C 
ATOM     10  C   UNL     1      18.337   7.438  32.094  0.00  0.00    +0.133 C 
BRANCH  10  11
ATOM     11  N   UNL     1      18.020   6.232  31.314  0.00  0.00    -0.308 N 
ATOM     12  H   UNL     1      17.103   6.169  30.895  0.00  0.00    +0.149 HD
ATOM     13  C   UNL     1      18.864   5.215  31.124  0.00  0.00    +0.210 C 
ATOM     14  C   UNL     1      20.245   5.329  31.797  0.00  0.00    +0.109 C 
ATOM     15  O   UNL     1      18.576   4.223  30.453  0.00  0.00    -0.276 OA
ENDBRANCH  10  11
BRANCH   7  16
ATOM     16  C   UNL     1      16.076  10.251  32.957  0.00  0.00    +0.414 C 
ATOM     17  O   UNL     1      15.722  11.040  32.081  0.00  0.00    -0.240 OA
ATOM     18  O   UNL     1      15.220   9.632  33.590  0.00  0.00    -0.240 OA
ENDBRANCH   7  16
BRANCH   9  19
ATOM     19  O   UNL     1      17.818   6.363  34.190  0.00  0.00    -0.390 OA
ATOM     20  H   UNL     1      17.668   5.553  33.696  0.00  0.00    +0.210 HD
ENDBRANCH   9  19
BRANCH   7  21
ATOM     21  O   UNL     1      18.097  11.194  33.966  0.00  0.00    -0.343 OA
ATOM     22  C   UNL     1      18.731  12.193  33.129  0.00  0.00    +0.198 C 
ENDBRANCH   7  21
ENDBRANCH   4   5
BRANCH   4  23
ATOM     23  O   UNL     1      20.233   8.419  30.170  0.00  0.00    -0.387 OA
ATOM     24  H   UNL     1      20.304   7.471  30.300  0.00  0.00    +0.210 HD
ENDBRANCH   4  23
ENDBRANCH   1   4
BRANCH   1  25
ATOM     25  C   UNL     1      18.967  10.037  27.779  0.00  0.00    +0.141 C 
BRANCH  25  28
ATOM     26  C   UNL     1      19.875   8.159  26.454  0.00  0.00    +0.401 C 
ATOM     27  O   UNL     1      20.728   8.847  25.889  0.00  0.00    -0.226 OA
ATOM     28  N   UNL     1      19.006   8.634  27.347  0.00  0.00    -0.279 N 
ATOM     29  H   UNL     1      18.336   7.993  27.749  0.00  0.00    +0.152 HD
BRANCH  26  30
ATOM     30  O   UNL     1      19.790   6.765  26.145  0.00  0.00    -0.444 OA
BRANCH  30  31
ATOM     31  C   UNL     1      20.201   6.550  24.793  0.00  0.00    +0.292 C 
BRANCH  31  33
ATOM     32  N   UNL     1      18.252   6.618  23.270  0.00  0.00    -0.131 NA
ATOM     33  C   UNL     1      19.129   5.886  24.028  0.00  0.00    +0.120 A 
ATOM     34  C   UNL     1      18.810   4.552  23.919  0.00  0.00    +0.137 A 
ATOM     35  N   UNL     1      17.733   4.538  23.087  0.00  0.00    -0.251 N 
ATOM     36  N   UNL     1      17.397   5.779  22.700  0.00  0.00    -0.065 NA
BRANCH  35  37
ATOM     37  C   UNL     1      16.985   3.396  22.610  0.00  0.00    +0.150 C 
BRANCH  37  38
ATOM     38  C   UNL     1      17.732   2.072  22.752  0.00  0.00    +0.084 C 
BRANCH  38  39
ATOM     39  C   UNL     1      17.533   1.435  24.119  0.00  0.00    +0.252 C 
ATOM     40  O   UNL     1      16.254   1.797  24.652  0.00  0.00    -0.349 OA
ATOM     41  C   UNL     1      15.917   0.682  25.473  0.00  0.00    +0.191 C 
ATOM     42  C   UNL     1      16.466  -0.493  24.706  0.00  0.00    +0.191 C 
ATOM     43  O   UNL     1      17.615   0.009  24.022  0.00  0.00    -0.349 OA
ENDBRANCH  38  39
ENDBRANCH  37  38
ENDBRANCH  35  37
ENDBRANCH  31  33
ENDBRANCH  30  31
ENDBRANCH  26  30
ENDBRANCH  25  28
ENDBRANCH   1  25
TORSDOF 16
