REMARK VINA RESULT:    -5.873     21.522     24.506
REMARK INTER + INTRA:         -12.079
REMARK INTER:                  -9.280
REMARK INTRA:                  -2.799
REMARK UNBOUND:                -1.914
REMARK  Name = lig_assembled_56.pdb
REMARK  16 active torsions:
REMARK  status: ('A' for Active; 'I' for Inactive)
REMARK    1  A    between atoms: _2  and  _10
REMARK    2  A    between atoms: _5  and  _18
REMARK    3  A    between atoms: _7  and  _8
REMARK    4  A    between atoms: _7  and  _18
REMARK    5  A    between atoms: _14  and  _34
REMARK    6  A    between atoms: _16  and  _22
REMARK    7  A    between atoms: _17  and  _21
REMARK    8  A    between atoms: _21  and  _22
REMARK    9  A    between atoms: _24  and  _25
REMARK   10  A    between atoms: _26  and  _27
REMARK   11  A    between atoms: _28  and  _30
REMARK   12  A    between atoms: _30  and  _31
REMARK   13  A    between atoms: _30  and  _32
REMARK   14  A    between atoms: _32  and  _33
REMARK   15  A    between atoms: _32  and  _34
REMARK   16  A    between atoms: _35  and  _37
REMARK                            x       y       z     vdW  Elec       q    Type
REMARK                         _______ _______ _______ _____ _____    ______ ____
ROOT
ATOM      1  C   UNL     1      19.592   6.562  24.128  0.00  0.00    +0.163 C 
ENDROOT
BRANCH   1   2
ATOM      2  O   UNL     1      18.542   6.643  23.151  0.00  0.00    -0.388 OA
ATOM      3  H   UNL     1      18.154   7.521  23.169  0.00  0.00    +0.210 HD
ENDBRANCH   1   2
BRANCH   1   4
ATOM      4  C   UNL     1      20.510   7.774  24.010  0.00  0.00    +0.141 C 
BRANCH   4   7
ATOM      5  C   UNL     1      21.535   8.472  26.147  0.00  0.00    +0.401 C 
ATOM      6  O   UNL     1      22.510   7.725  26.031  0.00  0.00    -0.226 OA
ATOM      7  N   UNL     1      20.549   8.554  25.253  0.00  0.00    -0.279 N 
ATOM      8  H   UNL     1      19.787   9.190  25.441  0.00  0.00    +0.152 HD
BRANCH   5   9
ATOM      9  O   UNL     1      21.432   9.305  27.304  0.00  0.00    -0.444 OA
BRANCH   9  10
ATOM     10  C   UNL     1      20.436  10.307  27.084  0.00  0.00    +0.292 C 
BRANCH  10  12
ATOM     11  N   UNL     1      18.250  10.954  28.046  0.00  0.00    -0.131 NA
ATOM     12  C   UNL     1      19.424  10.268  28.157  0.00  0.00    +0.121 A 
ATOM     13  C   UNL     1      19.442   9.601  29.361  0.00  0.00    +0.143 A 
ATOM     14  N   UNL     1      18.235   9.900  29.951  0.00  0.00    -0.220 N 
ATOM     15  N   UNL     1      17.535  10.730  29.139  0.00  0.00    -0.060 NA
BRANCH  14  16
ATOM     16  C   UNL     1      17.718   9.454  31.192  0.00  0.00    +0.070 A 
ATOM     17  C   UNL     1      17.591   8.090  31.469  0.00  0.00    +0.047 A 
ATOM     18  C   UNL     1      17.062   7.724  32.697  0.00  0.00    +0.113 A 
ATOM     19  N   UNL     1      16.665   8.604  33.639  0.00  0.00    -0.263 NA
ATOM     20  C   UNL     1      16.801   9.916  33.346  0.00  0.00    +0.113 A 
ATOM     21  C   UNL     1      17.318  10.387  32.152  0.00  0.00    +0.047 A 
ENDBRANCH  14  16
ENDBRANCH  10  12
ENDBRANCH   9  10
ENDBRANCH   5   9
ENDBRANCH   4   7
ENDBRANCH   1   4
BRANCH   1  22
ATOM     22  C   UNL     1      20.414   5.274  23.947  0.00  0.00    +0.175 C 
BRANCH  22  23
ATOM     23  C   UNL     1      19.664   4.033  24.452  0.00  0.00    +0.176 C 
ATOM     24  O   UNL     1      18.589   3.748  23.514  0.00  0.00    -0.332 OA
ATOM     25  C   UNL     1      17.825   2.526  23.779  0.00  0.00    +0.277 C 
ATOM     26  C   UNL     1      17.270   2.537  25.225  0.00  0.00    +0.110 C 
ATOM     27  C   UNL     1      18.371   2.867  26.255  0.00  0.00    +0.143 C 
ATOM     28  C   UNL     1      19.104   4.156  25.881  0.00  0.00    +0.133 C 
BRANCH  28  29
ATOM     29  N   UNL     1      20.206   4.413  26.821  0.00  0.00    -0.308 N 
ATOM     30  H   UNL     1      21.005   3.796  26.790  0.00  0.00    +0.149 HD
ATOM     31  C   UNL     1      20.219   5.409  27.711  0.00  0.00    +0.210 C 
ATOM     32  C   UNL     1      18.975   6.316  27.750  0.00  0.00    +0.109 C 
ATOM     33  O   UNL     1      21.163   5.609  28.476  0.00  0.00    -0.276 OA
ENDBRANCH  28  29
BRANCH  25  34
ATOM     34  C   UNL     1      18.705   1.275  23.575  0.00  0.00    +0.414 C 
ATOM     35  O   UNL     1      18.613   0.319  24.344  0.00  0.00    -0.240 OA
ATOM     36  O   UNL     1      19.507   1.222  22.642  0.00  0.00    -0.240 OA
ENDBRANCH  25  34
BRANCH  27  37
ATOM     37  O   UNL     1      17.789   3.017  27.551  0.00  0.00    -0.390 OA
ATOM     38  H   UNL     1      17.962   2.230  28.073  0.00  0.00    +0.210 HD
ENDBRANCH  27  37
BRANCH  25  39
ATOM     39  O   UNL     1      16.704   2.490  22.859  0.00  0.00    -0.343 OA
ATOM     40  C   UNL     1      16.802   3.403  21.737  0.00  0.00    +0.198 C 
ENDBRANCH  25  39
ENDBRANCH  22  23
BRANCH  22  41
ATOM     41  O   UNL     1      21.683   5.397  24.620  0.00  0.00    -0.387 OA
ATOM     42  H   UNL     1      22.239   4.647  24.395  0.00  0.00    +0.210 HD
ENDBRANCH  22  41
ENDBRANCH   1  22
TORSDOF 14
