REMARK VINA RESULT:    -6.177     13.221     17.877
REMARK INTER + INTRA:         -12.969
REMARK INTER:                 -10.242
REMARK INTRA:                  -2.727
REMARK UNBOUND:                -1.736
REMARK  Name = lig_assembled_59.pdb
REMARK  18 active torsions:
REMARK  status: ('A' for Active; 'I' for Inactive)
REMARK    1  A    between atoms: _2  and  _10
REMARK    2  A    between atoms: _5  and  _20
REMARK    3  A    between atoms: _7  and  _8
REMARK    4  A    between atoms: _7  and  _20
REMARK    5  A    between atoms: _13  and  _14
REMARK    6  A    between atoms: _14  and  _15
REMARK    7  A    between atoms: _16  and  _36
REMARK    8  A    between atoms: _18  and  _24
REMARK    9  A    between atoms: _19  and  _23
REMARK   10  A    between atoms: _23  and  _24
REMARK   11  A    between atoms: _26  and  _27
REMARK   12  A    between atoms: _28  and  _29
REMARK   13  A    between atoms: _30  and  _32
REMARK   14  A    between atoms: _32  and  _33
REMARK   15  A    between atoms: _32  and  _34
REMARK   16  A    between atoms: _34  and  _35
REMARK   17  A    between atoms: _34  and  _36
REMARK   18  A    between atoms: _37  and  _39
REMARK                            x       y       z     vdW  Elec       q    Type
REMARK                         _______ _______ _______ _____ _____    ______ ____
ROOT
ATOM      1  C   UNL     1      19.078   6.481  24.817  0.00  0.00    +0.163 C 
ENDROOT
BRANCH   1   2
ATOM      2  O   UNL     1      18.048   6.718  23.843  0.00  0.00    -0.388 OA
ATOM      3  H   UNL     1      17.196   6.768  24.284  0.00  0.00    +0.210 HD
ENDBRANCH   1   2
BRANCH   1   4
ATOM      4  C   UNL     1      20.071   5.417  24.319  0.00  0.00    +0.175 C 
BRANCH   4   5
ATOM      5  C   UNL     1      19.524   3.992  24.487  0.00  0.00    +0.176 C 
ATOM      6  O   UNL     1      18.446   3.811  23.528  0.00  0.00    -0.332 OA
ATOM      7  C   UNL     1      17.869   2.464  23.470  0.00  0.00    +0.277 C 
ATOM      8  C   UNL     1      17.400   2.016  24.876  0.00  0.00    +0.110 C 
ATOM      9  C   UNL     1      18.502   2.220  25.936  0.00  0.00    +0.143 C 
ATOM     10  C   UNL     1      19.034   3.653  25.907  0.00  0.00    +0.133 C 
BRANCH  10  11
ATOM     11  N   UNL     1      20.143   3.811  26.861  0.00  0.00    -0.308 N 
ATOM     12  H   UNL     1      21.020   3.360  26.643  0.00  0.00    +0.149 HD
ATOM     13  C   UNL     1      20.065   4.511  27.996  0.00  0.00    +0.210 C 
ATOM     14  C   UNL     1      18.707   5.164  28.312  0.00  0.00    +0.109 C 
ATOM     15  O   UNL     1      21.015   4.638  28.769  0.00  0.00    -0.276 OA
ENDBRANCH  10  11
BRANCH   7  16
ATOM     16  C   UNL     1      18.896   1.452  22.922  0.00  0.00    +0.414 C 
ATOM     17  O   UNL     1      18.973   0.323  23.406  0.00  0.00    -0.240 OA
ATOM     18  O   UNL     1      19.646   1.763  21.996  0.00  0.00    -0.240 OA
ENDBRANCH   7  16
BRANCH   7  19
ATOM     19  O   UNL     1      16.713   2.509  22.594  0.00  0.00    -0.343 OA
ATOM     20  C   UNL     1      16.685   3.629  21.674  0.00  0.00    +0.198 C 
ENDBRANCH   7  19
BRANCH   9  21
ATOM     21  O   UNL     1      17.979   1.938  27.235  0.00  0.00    -0.390 OA
ATOM     22  H   UNL     1      18.635   2.161  27.900  0.00  0.00    +0.210 HD
ENDBRANCH   9  21
ENDBRANCH   4   5
BRANCH   4  23
ATOM     23  O   UNL     1      21.330   5.550  25.009  0.00  0.00    -0.387 OA
ATOM     24  H   UNL     1      21.616   6.466  24.979  0.00  0.00    +0.210 HD
ENDBRANCH   4  23
ENDBRANCH   1   4
BRANCH   1  25
ATOM     25  C   UNL     1      19.825   7.777  25.112  0.00  0.00    +0.141 C 
BRANCH  25  28
ATOM     26  C   UNL     1      20.774   8.030  27.380  0.00  0.00    +0.401 C 
ATOM     27  O   UNL     1      21.886   7.600  27.064  0.00  0.00    -0.226 OA
ATOM     28  N   UNL     1      19.750   8.141  26.532  0.00  0.00    -0.279 N 
ATOM     29  H   UNL     1      18.874   8.496  26.888  0.00  0.00    +0.152 HD
BRANCH  26  30
ATOM     30  O   UNL     1      20.544   8.435  28.731  0.00  0.00    -0.444 OA
BRANCH  30  31
ATOM     31  C   UNL     1      19.564   9.476  28.758  0.00  0.00    +0.292 C 
BRANCH  31  33
ATOM     32  N   UNL     1      17.868  10.307  30.352  0.00  0.00    -0.131 NA
ATOM     33  C   UNL     1      18.636   9.276  29.887  0.00  0.00    +0.121 A 
ATOM     34  C   UNL     1      18.374   8.149  30.630  0.00  0.00    +0.145 A 
ATOM     35  N   UNL     1      17.428   8.544  31.548  0.00  0.00    -0.202 N 
ATOM     36  N   UNL     1      17.133   9.855  31.359  0.00  0.00    -0.059 NA
BRANCH  35  37
ATOM     37  C   UNL     1      16.830   7.752  32.565  0.00  0.00    +0.156 A 
ATOM     38  C   UNL     1      17.191   6.411  32.681  0.00  0.00    +0.048 A 
ATOM     39  C   UNL     1      16.570   5.631  33.655  0.00  0.00    +0.011 A 
ATOM     40  C   UNL     1      15.609   6.197  34.496  0.00  0.00    -0.004 A 
ATOM     41  C   UNL     1      15.313   7.545  34.306  0.00  0.00    +0.119 A 
ATOM     42  N   UNL     1      15.903   8.333  33.376  0.00  0.00    -0.236 NA
BRANCH  40  43
ATOM     43  C   UNL     1      14.862   5.354  35.486  0.00  0.00    +0.192 C 
BRANCH  43  44
ATOM     44  O   UNL     1      14.187   4.281  34.848  0.00  0.00    -0.390 OA
ATOM     45  H   UNL     1      14.188   3.534  35.473  0.00  0.00    +0.210 HD
ENDBRANCH  43  44
ENDBRANCH  40  43
ENDBRANCH  35  37
ENDBRANCH  31  33
ENDBRANCH  30  31
ENDBRANCH  26  30
ENDBRANCH  25  28
ENDBRANCH   1  25
TORSDOF 16
