REMARK VINA RESULT:    -6.058      4.885      6.593
REMARK INTER + INTRA:         -13.085
REMARK INTER:                 -10.759
REMARK INTRA:                  -2.326
REMARK UNBOUND:                -2.246
REMARK  Name = lig_assembled_5.pdb
REMARK  18 active torsions:
REMARK  status: ('A' for Active; 'I' for Inactive)
REMARK    1  A    between atoms: _2  and  _9
REMARK    2  A    between atoms: _4  and  _20
REMARK    3  A    between atoms: _6  and  _7
REMARK    4  A    between atoms: _6  and  _20
REMARK    5  A    between atoms: _12  and  _15
REMARK    6  A    between atoms: _13  and  _15
REMARK    7  A    between atoms: _16  and  _36
REMARK    8  A    between atoms: _18  and  _24
REMARK    9  A    between atoms: _19  and  _23
REMARK   10  A    between atoms: _23  and  _24
REMARK   11  A    between atoms: _26  and  _27
REMARK   12  A    between atoms: _28  and  _29
REMARK   13  A    between atoms: _30  and  _32
REMARK   14  A    between atoms: _32  and  _33
REMARK   15  A    between atoms: _32  and  _34
REMARK   16  A    between atoms: _34  and  _35
REMARK   17  A    between atoms: _34  and  _36
REMARK   18  A    between atoms: _37  and  _39
REMARK                            x       y       z     vdW  Elec       q    Type
REMARK                         _______ _______ _______ _____ _____    ______ ____
ROOT
ATOM      1  C   UNL     1       8.041   2.148  36.014  0.00  0.00    +0.163 C 
ENDROOT
BRANCH   1   2
ATOM      2  O   UNL     1       7.997   2.367  37.434  0.00  0.00    -0.388 OA
ATOM      3  H   UNL     1       8.861   2.187  37.813  0.00  0.00    +0.210 HD
ENDBRANCH   1   2
BRANCH   1   4
ATOM      4  C   UNL     1       8.768   0.841  35.710  0.00  0.00    +0.141 C 
BRANCH   4   7
ATOM      5  C   UNL     1       7.264  -0.957  34.929  0.00  0.00    +0.401 C 
ATOM      6  O   UNL     1       7.004  -1.362  36.064  0.00  0.00    -0.226 OA
ATOM      7  N   UNL     1       8.083   0.064  34.670  0.00  0.00    -0.279 N 
ATOM      8  H   UNL     1       8.240   0.316  33.705  0.00  0.00    +0.152 HD
BRANCH   5   9
ATOM      9  O   UNL     1       6.665  -1.608  33.805  0.00  0.00    -0.444 OA
BRANCH   9  10
ATOM     10  C   UNL     1       7.637  -1.761  32.768  0.00  0.00    +0.292 C 
BRANCH  10  12
ATOM     11  N   UNL     1       5.781  -1.064  31.288  0.00  0.00    -0.131 NA
ATOM     12  C   UNL     1       6.992  -1.673  31.444  0.00  0.00    +0.121 A 
ATOM     13  C   UNL     1       7.427  -2.128  30.222  0.00  0.00    +0.143 A 
ATOM     14  N   UNL     1       6.451  -1.745  29.330  0.00  0.00    -0.220 N 
ATOM     15  N   UNL     1       5.455  -1.118  30.003  0.00  0.00    -0.060 NA
BRANCH  14  16
ATOM     16  C   UNL     1       6.422  -1.907  27.920  0.00  0.00    +0.067 A 
ATOM     17  C   UNL     1       5.247  -1.674  27.196  0.00  0.00    +0.031 A 
ATOM     18  C   UNL     1       5.223  -1.898  25.817  0.00  0.00    +0.048 A 
ATOM     19  C   UNL     1       6.364  -2.333  25.142  0.00  0.00    +0.120 A 
ATOM     20  C   UNL     1       7.541  -2.550  25.857  0.00  0.00    +0.048 A 
ATOM     21  C   UNL     1       7.572  -2.339  27.243  0.00  0.00    +0.031 A 
BRANCH  19  22
ATOM     22  O   UNL     1       6.186  -2.572  23.807  0.00  0.00    -0.495 OA
ATOM     23  C   UNL     1       4.907  -3.054  23.418  0.00  0.00    +0.277 C 
ENDBRANCH  19  22
ENDBRANCH  14  16
ENDBRANCH  10  12
ENDBRANCH   9  10
ENDBRANCH   5   9
ENDBRANCH   4   7
ENDBRANCH   1   4
BRANCH   1  24
ATOM     24  C   UNL     1       8.753   3.310  35.300  0.00  0.00    +0.175 C 
BRANCH  24  25
ATOM     25  C   UNL     1       7.838   4.532  35.133  0.00  0.00    +0.176 C 
ATOM     26  O   UNL     1       7.711   5.176  36.430  0.00  0.00    -0.332 OA
ATOM     27  C   UNL     1       6.953   6.431  36.443  0.00  0.00    +0.277 C 
ATOM     28  C   UNL     1       5.550   6.222  35.822  0.00  0.00    +0.110 C 
ATOM     29  C   UNL     1       5.632   5.511  34.455  0.00  0.00    +0.143 C 
ATOM     30  C   UNL     1       6.445   4.220  34.556  0.00  0.00    +0.133 C 
BRANCH  30  31
ATOM     31  N   UNL     1       6.589   3.597  33.231  0.00  0.00    -0.308 N 
ATOM     32  H   UNL     1       7.194   4.051  32.560  0.00  0.00    +0.149 HD
ATOM     33  C   UNL     1       5.974   2.472  32.857  0.00  0.00    +0.210 C 
ATOM     34  C   UNL     1       5.040   1.820  33.893  0.00  0.00    +0.109 C 
ATOM     35  O   UNL     1       6.126   1.965  31.745  0.00  0.00    -0.276 OA
ENDBRANCH  30  31
BRANCH  27  36
ATOM     36  C   UNL     1       7.703   7.531  35.663  0.00  0.00    +0.414 C 
ATOM     37  O   UNL     1       8.883   7.773  35.913  0.00  0.00    -0.240 OA
ATOM     38  O   UNL     1       7.129   8.176  34.785  0.00  0.00    -0.240 OA
ENDBRANCH  27  36
BRANCH  27  39
ATOM     39  O   UNL     1       6.786   6.840  37.825  0.00  0.00    -0.343 OA
ATOM     40  C   UNL     1       6.021   5.922  38.647  0.00  0.00    +0.198 C 
ENDBRANCH  27  39
BRANCH  29  41
ATOM     41  O   UNL     1       4.316   5.204  33.992  0.00  0.00    -0.390 OA
ATOM     42  H   UNL     1       4.372   4.745  33.151  0.00  0.00    +0.210 HD
ENDBRANCH  29  41
ENDBRANCH  24  25
BRANCH  24  43
ATOM     43  O   UNL     1       9.244   2.877  34.016  0.00  0.00    -0.387 OA
ATOM     44  H   UNL     1       9.865   2.155  34.137  0.00  0.00    +0.210 HD
ENDBRANCH  24  43
ENDBRANCH   1  24
TORSDOF 15
