REMARK VINA RESULT:    -6.343     12.540     14.060
REMARK INTER + INTRA:         -12.614
REMARK INTER:                 -10.363
REMARK INTRA:                  -2.251
REMARK UNBOUND:                -1.636
REMARK  Name = lig_assembled_52.pdb
REMARK  16 active torsions:
REMARK  status: ('A' for Active; 'I' for Inactive)
REMARK    1  A    between atoms: _2  and  _10
REMARK    2  A    between atoms: _5  and  _18
REMARK    3  A    between atoms: _7  and  _8
REMARK    4  A    between atoms: _7  and  _18
REMARK    5  A    between atoms: _14  and  _34
REMARK    6  A    between atoms: _16  and  _22
REMARK    7  A    between atoms: _17  and  _21
REMARK    8  A    between atoms: _21  and  _22
REMARK    9  A    between atoms: _24  and  _25
REMARK   10  A    between atoms: _26  and  _27
REMARK   11  A    between atoms: _28  and  _30
REMARK   12  A    between atoms: _30  and  _31
REMARK   13  A    between atoms: _30  and  _32
REMARK   14  A    between atoms: _32  and  _33
REMARK   15  A    between atoms: _32  and  _34
REMARK   16  A    between atoms: _35  and  _37
REMARK                            x       y       z     vdW  Elec       q    Type
REMARK                         _______ _______ _______ _____ _____    ______ ____
ROOT
ATOM      1  C   UNL     1      20.546   6.363  30.144  0.00  0.00    +0.163 C 
ENDROOT
BRANCH   1   2
ATOM      2  O   UNL     1      21.443   7.390  30.598  0.00  0.00    -0.388 OA
ATOM      3  H   UNL     1      21.069   8.252  30.401  0.00  0.00    +0.210 HD
ENDBRANCH   1   2
BRANCH   1   4
ATOM      4  C   UNL     1      21.312   5.065  29.915  0.00  0.00    +0.141 C 
BRANCH   4   7
ATOM      5  C   UNL     1      19.871   3.109  29.462  0.00  0.00    +0.401 C 
ATOM      6  O   UNL     1      19.755   2.801  30.650  0.00  0.00    -0.226 OA
ATOM      7  N   UNL     1      20.584   4.149  29.028  0.00  0.00    -0.279 N 
ATOM      8  H   UNL     1      20.627   4.316  28.032  0.00  0.00    +0.152 HD
BRANCH   5   9
ATOM      9  O   UNL     1      19.211   2.317  28.471  0.00  0.00    -0.444 OA
BRANCH   9  10
ATOM     10  C   UNL     1      17.920   2.867  28.201  0.00  0.00    +0.292 C 
BRANCH  10  12
ATOM     11  N   UNL     1      16.259   1.831  26.689  0.00  0.00    -0.131 NA
ATOM     12  C   UNL     1      17.459   2.459  26.861  0.00  0.00    +0.121 A 
ATOM     13  C   UNL     1      18.065   2.609  25.635  0.00  0.00    +0.143 A 
ATOM     14  N   UNL     1      17.180   2.070  24.730  0.00  0.00    -0.218 N 
ATOM     15  N   UNL     1      16.098   1.595  25.393  0.00  0.00    -0.060 NA
BRANCH  14  16
ATOM     16  C   UNL     1      17.288   1.996  23.326  0.00  0.00    +0.085 A 
ATOM     17  C   UNL     1      16.615   2.886  22.484  0.00  0.00    +0.031 A 
ATOM     18  C   UNL     1      16.746   2.747  21.103  0.00  0.00    +0.022 A 
ATOM     19  C   UNL     1      17.547   1.729  20.614  0.00  0.00    +0.111 A 
ATOM     20  N   UNL     1      18.216   0.859  21.401  0.00  0.00    -0.261 NA
ATOM     21  C   UNL     1      18.074   1.009  22.741  0.00  0.00    +0.138 A 
ENDBRANCH  14  16
ENDBRANCH  10  12
ENDBRANCH   9  10
ENDBRANCH   5   9
ENDBRANCH   4   7
ENDBRANCH   1   4
BRANCH   1  22
ATOM     22  C   UNL     1      19.844   6.783  28.841  0.00  0.00    +0.175 C 
BRANCH  22  23
ATOM     23  C   UNL     1      19.690   8.307  28.733  0.00  0.00    +0.176 C 
ATOM     24  O   UNL     1      18.799   8.743  29.796  0.00  0.00    -0.332 OA
ATOM     25  C   UNL     1      18.616  10.192  29.916  0.00  0.00    +0.277 C 
ATOM     26  C   UNL     1      18.152  10.792  28.566  0.00  0.00    +0.110 C 
ATOM     27  C   UNL     1      19.051  10.331  27.399  0.00  0.00    +0.143 C 
ATOM     28  C   UNL     1      19.174   8.807  27.371  0.00  0.00    +0.133 C 
BRANCH  28  29
ATOM     29  N   UNL     1      20.102   8.385  26.309  0.00  0.00    -0.308 N 
ATOM     30  H   UNL     1      21.041   8.757  26.328  0.00  0.00    +0.149 HD
ATOM     31  C   UNL     1      19.783   7.544  25.322  0.00  0.00    +0.210 C 
ATOM     32  C   UNL     1      18.336   7.016  25.306  0.00  0.00    +0.109 C 
ATOM     33  O   UNL     1      20.585   7.196  24.455  0.00  0.00    -0.276 OA
ENDBRANCH  28  29
BRANCH  25  34
ATOM     34  C   UNL     1      19.927  10.874  30.360  0.00  0.00    +0.414 C 
ATOM     35  O   UNL     1      20.212  11.998  29.946  0.00  0.00    -0.240 OA
ATOM     36  O   UNL     1      20.698  10.302  31.131  0.00  0.00    -0.240 OA
ENDBRANCH  25  34
BRANCH  27  37
ATOM     37  O   UNL     1      18.501  10.782  26.160  0.00  0.00    -0.390 OA
ATOM     38  H   UNL     1      17.668  11.231  26.323  0.00  0.00    +0.210 HD
ENDBRANCH  27  37
BRANCH  25  39
ATOM     39  O   UNL     1      17.581  10.434  30.903  0.00  0.00    -0.343 OA
ATOM     40  C   UNL     1      17.337   9.335  31.817  0.00  0.00    +0.198 C 
ENDBRANCH  25  39
ENDBRANCH  22  23
BRANCH  22  41
ATOM     41  O   UNL     1      18.555   6.145  28.743  0.00  0.00    -0.387 OA
ATOM     42  H   UNL     1      18.271   5.862  29.616  0.00  0.00    +0.210 HD
ENDBRANCH  22  41
ENDBRANCH   1  22
TORSDOF 14
