REMARK VINA RESULT:    -5.425     11.632     16.018
REMARK INTER + INTRA:         -13.574
REMARK INTER:                 -11.016
REMARK INTRA:                  -2.557
REMARK UNBOUND:                -3.868
REMARK  Name = lig_assembled_85.pdb
REMARK  19 active torsions:
REMARK  status: ('A' for Active; 'I' for Inactive)
REMARK    1  A    between atoms: _2  and  _10
REMARK    2  A    between atoms: _3  and  _6
REMARK    3  A    between atoms: _3  and  _17
REMARK    4  A    between atoms: _5  and  _23
REMARK    5  A    between atoms: _7  and  _8
REMARK    6  A    between atoms: _7  and  _23
REMARK    7  A    between atoms: _15  and  _16
REMARK    8  A    between atoms: _19  and  _39
REMARK    9  A    between atoms: _21  and  _27
REMARK   10  A    between atoms: _22  and  _26
REMARK   11  A    between atoms: _26  and  _27
REMARK   12  A    between atoms: _29  and  _30
REMARK   13  A    between atoms: _31  and  _32
REMARK   14  A    between atoms: _33  and  _35
REMARK   15  A    between atoms: _35  and  _36
REMARK   16  A    between atoms: _35  and  _37
REMARK   17  A    between atoms: _37  and  _38
REMARK   18  A    between atoms: _37  and  _39
REMARK   19  A    between atoms: _40  and  _42
REMARK                            x       y       z     vdW  Elec       q    Type
REMARK                         _______ _______ _______ _____ _____    ______ ____
ROOT
ATOM      1  C   UNL     1      10.894   2.488  36.151  0.00  0.00    +0.141 C 
ENDROOT
BRANCH   1   4
ATOM      2  C   UNL     1      11.809   4.485  37.284  0.00  0.00    +0.401 C 
ATOM      3  O   UNL     1      10.776   4.715  37.916  0.00  0.00    -0.226 OA
ATOM      4  N   UNL     1      11.950   3.469  36.431  0.00  0.00    -0.279 N 
ATOM      5  H   UNL     1      12.834   3.368  35.952  0.00  0.00    +0.152 HD
BRANCH   2   6
ATOM      6  O   UNL     1      12.935   5.348  37.455  0.00  0.00    -0.444 OA
BRANCH   6   7
ATOM      7  C   UNL     1      14.134   4.643  37.122  0.00  0.00    +0.292 C 
BRANCH   7   9
ATOM      8  N   UNL     1      14.352   4.547  34.665  0.00  0.00    -0.131 NA
ATOM      9  C   UNL     1      14.682   5.142  35.849  0.00  0.00    +0.121 A 
ATOM     10  C   UNL     1      15.499   6.222  35.605  0.00  0.00    +0.143 A 
ATOM     11  N   UNL     1      15.637   6.251  34.239  0.00  0.00    -0.219 N 
ATOM     12  N   UNL     1      14.915   5.245  33.690  0.00  0.00    -0.060 NA
BRANCH  11  13
ATOM     13  C   UNL     1      16.306   7.188  33.422  0.00  0.00    +0.080 A 
ATOM     14  C   UNL     1      17.542   6.952  32.800  0.00  0.00    +0.062 A 
ATOM     15  C   UNL     1      18.209   8.058  32.224  0.00  0.00    +0.016 A 
ATOM     16  C   UNL     1      17.660   9.344  32.239  0.00  0.00    +0.021 A 
ATOM     17  C   UNL     1      16.404   9.542  32.793  0.00  0.00    +0.043 A 
ATOM     18 CL   UNL     1      15.728  11.122  32.853  0.00  0.00    -0.083 Cl
ATOM     19  C   UNL     1      15.716   8.471  33.357  0.00  0.00    +0.048 A 
BRANCH  14  20
ATOM     20  C   UNL     1      18.318   5.678  32.724  0.00  0.00    +0.248 C 
ATOM     21  O   UNL     1      18.300   5.122  31.623  0.00  0.00    -0.270 OA
ATOM     22  N   UNL     1      18.971   5.096  33.816  0.00  0.00    -0.304 N 
ATOM     23  C   UNL     1      19.198   5.673  35.134  0.00  0.00    +0.132 C 
ATOM     24  C   UNL     1      19.672   3.842  33.558  0.00  0.00    +0.132 C 
ENDBRANCH  14  20
ENDBRANCH  11  13
ENDBRANCH   7   9
ENDBRANCH   6   7
ENDBRANCH   2   6
ENDBRANCH   1   4
BRANCH   1  25
ATOM     25  C   UNL     1       9.873   3.023  35.152  0.00  0.00    +0.163 C 
BRANCH  25  26
ATOM     26  O   UNL     1       9.836   2.181  33.988  0.00  0.00    -0.388 OA
ATOM     27  H   UNL     1       9.634   2.712  33.214  0.00  0.00    +0.210 HD
ENDBRANCH  25  26
BRANCH  25  28
ATOM     28  C   UNL     1       8.490   3.098  35.822  0.00  0.00    +0.175 C 
BRANCH  28  29
ATOM     29  C   UNL     1       7.704   4.344  35.387  0.00  0.00    +0.176 C 
ATOM     30  O   UNL     1       7.395   5.116  36.580  0.00  0.00    -0.332 OA
ATOM     31  C   UNL     1       6.733   6.403  36.348  0.00  0.00    +0.277 C 
ATOM     32  C   UNL     1       5.450   6.208  35.504  0.00  0.00    +0.110 C 
ATOM     33  C   UNL     1       5.722   5.365  34.240  0.00  0.00    +0.143 C 
ATOM     34  C   UNL     1       6.415   4.049  34.597  0.00  0.00    +0.133 C 
BRANCH  34  35
ATOM     35  N   UNL     1       6.747   3.295  33.378  0.00  0.00    -0.308 N 
ATOM     36  H   UNL     1       7.384   3.721  32.719  0.00  0.00    +0.149 HD
ATOM     37  C   UNL     1       6.263   2.085  33.087  0.00  0.00    +0.210 C 
ATOM     38  C   UNL     1       5.276   1.475  34.099  0.00  0.00    +0.109 C 
ATOM     39  O   UNL     1       6.571   1.470  32.065  0.00  0.00    -0.276 OA
ENDBRANCH  34  35
BRANCH  31  40
ATOM     40  C   UNL     1       7.681   7.383  35.626  0.00  0.00    +0.414 C 
ATOM     41  O   UNL     1       7.264   8.084  34.704  0.00  0.00    -0.240 OA
ATOM     42  O   UNL     1       8.862   7.473  35.964  0.00  0.00    -0.240 OA
ENDBRANCH  31  40
BRANCH  33  43
ATOM     43  O   UNL     1       4.491   5.083  33.575  0.00  0.00    -0.390 OA
ATOM     44  H   UNL     1       4.024   4.388  34.045  0.00  0.00    +0.210 HD
ENDBRANCH  33  43
BRANCH  31  45
ATOM     45  O   UNL     1       6.354   6.952  37.637  0.00  0.00    -0.343 OA
ATOM     46  C   UNL     1       7.017   6.350  38.777  0.00  0.00    +0.198 C 
ENDBRANCH  31  45
ENDBRANCH  28  29
BRANCH  28  47
ATOM     47  O   UNL     1       8.631   3.074  37.256  0.00  0.00    -0.387 OA
ATOM     48  H   UNL     1       8.735   3.971  37.583  0.00  0.00    +0.210 HD
ENDBRANCH  28  47
ENDBRANCH  25  28
ENDBRANCH   1  25
TORSDOF 15
