REMARK VINA RESULT:    -4.520     21.942     25.017
REMARK INTER + INTRA:         -12.793
REMARK INTER:                  -8.943
REMARK INTRA:                  -3.850
REMARK UNBOUND:                -4.177
REMARK  Name = lig_assembled_50.pdb
REMARK  20 active torsions:
REMARK  status: ('A' for Active; 'I' for Inactive)
REMARK    1  A    between atoms: _2  and  _9
REMARK    2  A    between atoms: _4  and  _17
REMARK    3  A    between atoms: _5  and  _10
REMARK    4  A    between atoms: _5  and  _11
REMARK    5  A    between atoms: _6  and  _7
REMARK    6  A    between atoms: _6  and  _17
REMARK    7  A    between atoms: _9  and  _10
REMARK    8  A    between atoms: _10  and  _12
REMARK    9  A    between atoms: _13  and  _33
REMARK   10  A    between atoms: _15  and  _21
REMARK   11  A    between atoms: _16  and  _20
REMARK   12  A    between atoms: _20  and  _21
REMARK   13  A    between atoms: _23  and  _24
REMARK   14  A    between atoms: _25  and  _26
REMARK   15  A    between atoms: _27  and  _29
REMARK   16  A    between atoms: _29  and  _30
REMARK   17  A    between atoms: _29  and  _31
REMARK   18  A    between atoms: _31  and  _32
REMARK   19  A    between atoms: _31  and  _33
REMARK   20  A    between atoms: _34  and  _36
REMARK                            x       y       z     vdW  Elec       q    Type
REMARK                         _______ _______ _______ _____ _____    ______ ____
ROOT
ATOM      1  C   UNL     1      11.148  26.795  21.230  0.00  0.00    +0.163 C 
ENDROOT
BRANCH   1   2
ATOM      2  O   UNL     1       9.905  27.514  21.302  0.00  0.00    -0.388 OA
ATOM      3  H   UNL     1       9.200  26.910  21.549  0.00  0.00    +0.210 HD
ENDBRANCH   1   2
BRANCH   1   4
ATOM      4  C   UNL     1      10.909  25.277  21.285  0.00  0.00    +0.175 C 
BRANCH   4   5
ATOM      5  C   UNL     1      10.188  24.851  22.572  0.00  0.00    +0.176 C 
ATOM      6  O   UNL     1       8.814  25.322  22.491  0.00  0.00    -0.332 OA
ATOM      7  C   UNL     1       7.938  24.914  23.594  0.00  0.00    +0.277 C 
ATOM      8  C   UNL     1       8.553  25.326  24.954  0.00  0.00    +0.110 C 
ATOM      9  C   UNL     1      10.024  24.875  25.074  0.00  0.00    +0.143 C 
ATOM     10  C   UNL     1      10.843  25.350  23.873  0.00  0.00    +0.133 C 
BRANCH  10  11
ATOM     11  N   UNL     1      12.221  24.841  23.956  0.00  0.00    -0.308 N 
ATOM     12  H   UNL     1      12.367  23.850  23.825  0.00  0.00    +0.149 HD
ATOM     13  C   UNL     1      13.293  25.603  24.193  0.00  0.00    +0.210 C 
ATOM     14  C   UNL     1      13.035  27.106  24.414  0.00  0.00    +0.109 C 
ATOM     15  O   UNL     1      14.437  25.151  24.242  0.00  0.00    -0.276 OA
ENDBRANCH  10  11
BRANCH   7  16
ATOM     16  C   UNL     1       7.707  23.389  23.573  0.00  0.00    +0.414 C 
ATOM     17  O   UNL     1       7.001  22.880  22.704  0.00  0.00    -0.240 OA
ATOM     18  O   UNL     1       8.226  22.667  24.426  0.00  0.00    -0.240 OA
ENDBRANCH   7  16
BRANCH   9  19
ATOM     19  O   UNL     1      10.594  25.405  26.272  0.00  0.00    -0.390 OA
ATOM     20  H   UNL     1      11.121  26.179  26.061  0.00  0.00    +0.210 HD
ENDBRANCH   9  19
BRANCH   7  21
ATOM     21  O   UNL     1       6.671  25.602  23.438  0.00  0.00    -0.343 OA
ATOM     22  C   UNL     1       6.592  26.489  22.293  0.00  0.00    +0.198 C 
ENDBRANCH   7  21
ENDBRANCH   4   5
BRANCH   4  23
ATOM     23  O   UNL     1      12.161  24.573  21.162  0.00  0.00    -0.387 OA
ATOM     24  H   UNL     1      12.490  24.659  20.264  0.00  0.00    +0.210 HD
ENDBRANCH   4  23
ENDBRANCH   1   4
BRANCH   1  25
ATOM     25  C   UNL     1      11.881  27.149  19.940  0.00  0.00    +0.141 C 
BRANCH  25  28
ATOM     26  C   UNL     1      12.267  26.172  17.704  0.00  0.00    +0.401 C 
ATOM     27  O   UNL     1      13.049  27.057  17.348  0.00  0.00    -0.226 OA
ATOM     28  N   UNL     1      11.670  26.139  18.896  0.00  0.00    -0.279 N 
ATOM     29  H   UNL     1      11.037  25.377  19.091  0.00  0.00    +0.152 HD
BRANCH  26  30
ATOM     30  O   UNL     1      11.964  25.108  16.798  0.00  0.00    -0.444 OA
BRANCH  30  31
ATOM     31  C   UNL     1      13.155  24.369  16.514  0.00  0.00    +0.292 C 
BRANCH  31  33
ATOM     32  N   UNL     1      12.653  22.986  18.509  0.00  0.00    -0.131 NA
ATOM     33  C   UNL     1      13.578  23.597  17.700  0.00  0.00    +0.120 A 
ATOM     34  C   UNL     1      14.843  23.340  18.188  0.00  0.00    +0.137 A 
ATOM     35  N   UNL     1      14.618  22.581  19.291  0.00  0.00    -0.249 N 
ATOM     36  N   UNL     1      13.303  22.354  19.474  0.00  0.00    -0.065 NA
BRANCH  35  37
ATOM     37  C   UNL     1      15.583  22.043  20.223  0.00  0.00    +0.178 C 
BRANCH  37  38
ATOM     38  C   UNL     1      16.005  23.024  21.323  0.00  0.00    +0.161 C 
BRANCH  38  39
ATOM     39  O   UNL     1      14.999  24.000  21.605  0.00  0.00    -0.388 OA
ATOM     40  H   UNL     1      15.384  24.684  22.191  0.00  0.00    +0.210 HD
ENDBRANCH  38  39
BRANCH  38  41
ATOM     41  C   UNL     1      16.441  22.338  22.624  0.00  0.00    +0.189 C 
BRANCH  41  42
ATOM     42  O   UNL     1      15.422  22.419  23.621  0.00  0.00    -0.392 OA
ATOM     43  H   UNL     1      15.389  21.565  24.091  0.00  0.00    +0.210 HD
ENDBRANCH  41  42
ENDBRANCH  38  41
ENDBRANCH  37  38
ENDBRANCH  35  37
ENDBRANCH  31  33
ENDBRANCH  30  31
ENDBRANCH  26  30
ENDBRANCH  25  28
ENDBRANCH   1  25
TORSDOF 18
