REMARK VINA RESULT:    -5.394     12.275     19.450
REMARK INTER + INTRA:         -13.538
REMARK INTER:                 -11.553
REMARK INTRA:                  -1.985
REMARK UNBOUND:                -3.888
REMARK  Name = lig_assembled_46.pdb
REMARK  17 active torsions:
REMARK  status: ('A' for Active; 'I' for Inactive)
REMARK    1  A    between atoms: _2  and  _9
REMARK    2  A    between atoms: _4  and  _19
REMARK    3  A    between atoms: _6  and  _7
REMARK    4  A    between atoms: _6  and  _19
REMARK    5  A    between atoms: _9  and  _10
REMARK    6  A    between atoms: _15  and  _35
REMARK    7  A    between atoms: _17  and  _23
REMARK    8  A    between atoms: _18  and  _22
REMARK    9  A    between atoms: _22  and  _23
REMARK   10  A    between atoms: _25  and  _26
REMARK   11  A    between atoms: _27  and  _28
REMARK   12  A    between atoms: _29  and  _31
REMARK   13  A    between atoms: _31  and  _32
REMARK   14  A    between atoms: _31  and  _33
REMARK   15  A    between atoms: _33  and  _34
REMARK   16  A    between atoms: _33  and  _35
REMARK   17  A    between atoms: _36  and  _38
REMARK                            x       y       z     vdW  Elec       q    Type
REMARK                         _______ _______ _______ _____ _____    ______ ____
ROOT
ATOM      1  C   UNL     1      -2.302   8.326  13.476  0.00  0.00    +0.163 C 
ENDROOT
BRANCH   1   2
ATOM      2  O   UNL     1      -2.337   8.468  12.047  0.00  0.00    -0.388 OA
ATOM      3  H   UNL     1      -3.136   8.935  11.790  0.00  0.00    +0.210 HD
ENDBRANCH   1   2
BRANCH   1   4
ATOM      4  C   UNL     1      -3.043   7.060  13.893  0.00  0.00    +0.141 C 
BRANCH   4   7
ATOM      5  C   UNL     1      -2.738   6.651  16.311  0.00  0.00    +0.401 C 
ATOM      6  O   UNL     1      -3.605   7.458  16.653  0.00  0.00    -0.226 OA
ATOM      7  N   UNL     1      -2.405   6.406  15.043  0.00  0.00    -0.279 N 
ATOM      8  H   UNL     1      -1.673   5.733  14.863  0.00  0.00    +0.152 HD
BRANCH   5   9
ATOM      9  O   UNL     1      -2.029   5.925  17.319  0.00  0.00    -0.444 OA
BRANCH   9  10
ATOM     10  C   UNL     1      -0.678   5.717  16.897  0.00  0.00    +0.292 C 
BRANCH  10  12
ATOM     11  N   UNL     1       1.161   4.116  17.320  0.00  0.00    -0.131 NA
ATOM     12  C   UNL     1      -0.061   4.623  17.670  0.00  0.00    +0.120 A 
ATOM     13  C   UNL     1      -0.508   3.979  18.804  0.00  0.00    +0.137 A 
ATOM     14  N   UNL     1       0.513   3.133  19.129  0.00  0.00    -0.247 N 
ATOM     15  N   UNL     1       1.510   3.208  18.225  0.00  0.00    -0.065 NA
BRANCH  14  16
ATOM     16  C   UNL     1       0.717   2.431  20.385  0.00  0.00    +0.180 C 
BRANCH  16  17
ATOM     17  C   UNL     1       0.889   3.347  21.571  0.00  0.00    -0.026 A 
ATOM     18  C   UNL     1       1.768   4.440  21.518  0.00  0.00    +0.005 A 
ATOM     19  C   UNL     1       1.848   5.337  22.586  0.00  0.00    +0.000 A 
ATOM     20  C   UNL     1       1.053   5.155  23.714  0.00  0.00    +0.000 A 
ATOM     21  C   UNL     1       0.182   4.069  23.783  0.00  0.00    +0.000 A 
ATOM     22  C   UNL     1       0.100   3.170  22.718  0.00  0.00    +0.005 A 
ENDBRANCH  16  17
ENDBRANCH  14  16
ENDBRANCH  10  12
ENDBRANCH   9  10
ENDBRANCH   5   9
ENDBRANCH   4   7
ENDBRANCH   1   4
BRANCH   1  23
ATOM     23  C   UNL     1      -2.939   9.545  14.166  0.00  0.00    +0.175 C 
BRANCH  23  24
ATOM     24  C   UNL     1      -3.209  10.691  13.179  0.00  0.00    +0.176 C 
ATOM     25  O   UNL     1      -1.937  11.088  12.596  0.00  0.00    -0.332 OA
ATOM     26  C   UNL     1      -2.013  12.107  11.545  0.00  0.00    +0.277 C 
ATOM     27  C   UNL     1      -2.767  13.359  12.058  0.00  0.00    +0.110 C 
ATOM     28  C   UNL     1      -4.112  12.983  12.716  0.00  0.00    +0.143 C 
ATOM     29  C   UNL     1      -3.917  11.914  13.791  0.00  0.00    +0.133 C 
BRANCH  29  30
ATOM     30  N   UNL     1      -5.215  11.502  14.349  0.00  0.00    -0.308 N 
ATOM     31  H   UNL     1      -5.887  11.085  13.721  0.00  0.00    +0.149 HD
ATOM     32  C   UNL     1      -5.562  11.644  15.631  0.00  0.00    +0.210 C 
ATOM     33  C   UNL     1      -4.525  12.307  16.557  0.00  0.00    +0.109 C 
ATOM     34  O   UNL     1      -6.651  11.276  16.074  0.00  0.00    -0.276 OA
ENDBRANCH  29  30
BRANCH  26  35
ATOM     35  C   UNL     1      -2.726  11.552  10.295  0.00  0.00    +0.414 C 
ATOM     36  O   UNL     1      -3.360  12.305   9.557  0.00  0.00    -0.240 OA
ATOM     37  O   UNL     1      -2.667  10.352  10.024  0.00  0.00    -0.240 OA
ENDBRANCH  26  35
BRANCH  26  38
ATOM     38  O   UNL     1      -0.659  12.499  11.202  0.00  0.00    -0.343 OA
ATOM     39  C   UNL     1      -0.340  13.890  11.455  0.00  0.00    +0.198 C 
ENDBRANCH  26  38
BRANCH  28  40
ATOM     40  O   UNL     1      -4.700  14.143  13.306  0.00  0.00    -0.390 OA
ATOM     41  H   UNL     1      -5.652  14.116  13.187  0.00  0.00    +0.210 HD
ENDBRANCH  28  40
ENDBRANCH  23  24
BRANCH  23  42
ATOM     42  O   UNL     1      -2.096  10.004  15.242  0.00  0.00    -0.387 OA
ATOM     43  H   UNL     1      -2.473  10.798  15.627  0.00  0.00    +0.210 HD
ENDBRANCH  23  42
ENDBRANCH   1  23
TORSDOF 15
