REMARK VINA RESULT:    -5.868      1.920      3.116
REMARK INTER + INTRA:         -13.640
REMARK INTER:                 -11.842
REMARK INTRA:                  -1.798
REMARK UNBOUND:                -2.111
REMARK  Name = lig_assembled_17.pdb
REMARK  22 active torsions:
REMARK  status: ('A' for Active; 'I' for Inactive)
REMARK    1  A    between atoms: _2  and  _10
REMARK    2  A    between atoms: _3  and  _11
REMARK    3  A    between atoms: _3  and  _12
REMARK    4  A    between atoms: _3  and  _14
REMARK    5  A    between atoms: _5  and  _19
REMARK    6  A    between atoms: _6  and  _14
REMARK    7  A    between atoms: _7  and  _8
REMARK    8  A    between atoms: _7  and  _19
REMARK    9  A    between atoms: _10  and  _11
REMARK   10  A    between atoms: _12  and  _13
REMARK   11  A    between atoms: _15  and  _35
REMARK   12  A    between atoms: _17  and  _23
REMARK   13  A    between atoms: _18  and  _22
REMARK   14  A    between atoms: _22  and  _23
REMARK   15  A    between atoms: _25  and  _26
REMARK   16  A    between atoms: _27  and  _28
REMARK   17  A    between atoms: _29  and  _31
REMARK   18  A    between atoms: _31  and  _32
REMARK   19  A    between atoms: _31  and  _33
REMARK   20  A    between atoms: _33  and  _34
REMARK   21  A    between atoms: _33  and  _35
REMARK   22  A    between atoms: _36  and  _38
REMARK                            x       y       z     vdW  Elec       q    Type
REMARK                         _______ _______ _______ _____ _____    ______ ____
ROOT
ATOM      1  C   UNL     1       6.529   2.896  32.793  0.00  0.00    +0.163 C 
ENDROOT
BRANCH   1   2
ATOM      2  O   UNL     1       6.312   3.257  31.419  0.00  0.00    -0.388 OA
ATOM      3  H   UNL     1       6.979   3.890  31.144  0.00  0.00    +0.210 HD
ENDBRANCH   1   2
BRANCH   1   4
ATOM      4  C   UNL     1       7.628   3.769  33.424  0.00  0.00    +0.175 C 
BRANCH   4   5
ATOM      5  C   UNL     1       7.256   4.233  34.840  0.00  0.00    +0.176 C 
ATOM      6  O   UNL     1       7.321   5.686  34.866  0.00  0.00    -0.332 OA
ATOM      7  C   UNL     1       6.892   6.317  36.117  0.00  0.00    +0.277 C 
ATOM      8  C   UNL     1       7.683   5.736  37.315  0.00  0.00    +0.110 C 
ATOM      9  C   UNL     1       7.670   4.193  37.312  0.00  0.00    +0.143 C 
ATOM     10  C   UNL     1       8.130   3.643  35.962  0.00  0.00    +0.133 C 
BRANCH  10  11
ATOM     11  N   UNL     1       8.031   2.175  35.942  0.00  0.00    -0.308 N 
ATOM     12  H   UNL     1       7.140   1.760  36.176  0.00  0.00    +0.149 HD
ATOM     13  C   UNL     1       9.040   1.356  35.635  0.00  0.00    +0.210 C 
ATOM     14  C   UNL     1      10.391   2.019  35.307  0.00  0.00    +0.109 C 
ATOM     15  O   UNL     1       8.923   0.130  35.612  0.00  0.00    -0.276 OA
ENDBRANCH  10  11
BRANCH   7  16
ATOM     16  C   UNL     1       5.381   6.106  36.347  0.00  0.00    +0.414 C 
ATOM     17  O   UNL     1       4.631   5.903  35.393  0.00  0.00    -0.240 OA
ATOM     18  O   UNL     1       4.912   6.138  37.485  0.00  0.00    -0.240 OA
ENDBRANCH   7  16
BRANCH   9  19
ATOM     19  O   UNL     1       8.532   3.702  38.339  0.00  0.00    -0.390 OA
ATOM     20  H   UNL     1       9.113   3.029  37.976  0.00  0.00    +0.210 HD
ENDBRANCH   9  19
BRANCH   7  21
ATOM     21  O   UNL     1       7.178   7.736  36.025  0.00  0.00    -0.343 OA
ATOM     22  C   UNL     1       8.587   8.076  35.995  0.00  0.00    +0.198 C 
ENDBRANCH   7  21
ENDBRANCH   4   5
BRANCH   4  23
ATOM     23  O   UNL     1       7.901   4.908  32.583  0.00  0.00    -0.387 OA
ATOM     24  H   UNL     1       8.277   5.615  33.113  0.00  0.00    +0.210 HD
ENDBRANCH   4  23
ENDBRANCH   1   4
BRANCH   1  25
ATOM     25  C   UNL     1       5.236   3.054  33.585  0.00  0.00    +0.141 C 
BRANCH  25  28
ATOM     26  C   UNL     1       3.012   3.519  32.614  0.00  0.00    +0.401 C 
ATOM     27  O   UNL     1       2.545   2.419  32.917  0.00  0.00    -0.226 OA
ATOM     28  N   UNL     1       4.262   3.898  32.882  0.00  0.00    -0.279 N 
ATOM     29  H   UNL     1       4.556   4.818  32.584  0.00  0.00    +0.152 HD
BRANCH  26  30
ATOM     30  O   UNL     1       2.182   4.461  31.929  0.00  0.00    -0.444 OA
BRANCH  30  31
ATOM     31  C   UNL     1       0.964   3.825  31.534  0.00  0.00    +0.292 C 
BRANCH  31  33
ATOM     32  N   UNL     1      -0.107   4.280  29.352  0.00  0.00    -0.131 NA
ATOM     33  C   UNL     1       0.908   3.699  30.066  0.00  0.00    +0.120 A 
ATOM     34  C   UNL     1       1.765   3.062  29.196  0.00  0.00    +0.137 A 
ATOM     35  N   UNL     1       1.225   3.310  27.970  0.00  0.00    -0.250 N 
ATOM     36  N   UNL     1       0.095   4.032  28.067  0.00  0.00    -0.065 NA
BRANCH  35  37
ATOM     37  C   UNL     1       1.737   2.939  26.667  0.00  0.00    +0.160 C 
BRANCH  37  38
ATOM     38  C   UNL     1       0.798   3.432  25.557  0.00  0.00    +0.107 C 
BRANCH  38  39
ATOM     39  N   UNL     1       1.392   3.535  24.201  0.00  0.00    -0.301 NA
BRANCH  39  40
ATOM     40  C   UNL     1       0.592   2.863  23.161  0.00  0.00    +0.081 C 
ATOM     41  C   UNL     1      -0.856   2.539  23.519  0.00  0.00    +0.020 C 
ENDBRANCH  39  40
BRANCH  39  42
ATOM     42  C   UNL     1       1.659   4.958  23.906  0.00  0.00    +0.081 C 
ATOM     43  C   UNL     1       1.689   5.311  22.422  0.00  0.00    +0.020 C 
ENDBRANCH  39  42
ENDBRANCH  38  39
ENDBRANCH  37  38
ENDBRANCH  35  37
ENDBRANCH  31  33
ENDBRANCH  30  31
ENDBRANCH  26  30
ENDBRANCH  25  28
ENDBRANCH   1  25
TORSDOF 18
