REMARK VINA RESULT:    -5.971      7.656     10.182
REMARK INTER + INTRA:         -14.022
REMARK INTER:                 -12.034
REMARK INTRA:                  -1.988
REMARK UNBOUND:                -2.640
REMARK  Name = lig_assembled_29.pdb
REMARK  21 active torsions:
REMARK  status: ('A' for Active; 'I' for Inactive)
REMARK    1  A    between atoms: _2  and  _9
REMARK    2  A    between atoms: _4  and  _23
REMARK    3  A    between atoms: _6  and  _7
REMARK    4  A    between atoms: _6  and  _23
REMARK    5  A    between atoms: _9  and  _10
REMARK    6  A    between atoms: _12  and  _18
REMARK    7  A    between atoms: _13  and  _18
REMARK    8  A    between atoms: _14  and  _17
REMARK    9  A    between atoms: _15  and  _17
REMARK   10  A    between atoms: _19  and  _39
REMARK   11  A    between atoms: _21  and  _27
REMARK   12  A    between atoms: _22  and  _26
REMARK   13  A    between atoms: _26  and  _27
REMARK   14  A    between atoms: _29  and  _30
REMARK   15  A    between atoms: _31  and  _32
REMARK   16  A    between atoms: _33  and  _35
REMARK   17  A    between atoms: _35  and  _36
REMARK   18  A    between atoms: _35  and  _37
REMARK   19  A    between atoms: _37  and  _38
REMARK   20  A    between atoms: _37  and  _39
REMARK   21  A    between atoms: _40  and  _42
REMARK                            x       y       z     vdW  Elec       q    Type
REMARK                         _______ _______ _______ _____ _____    ______ ____
ROOT
ATOM      1  C   UNL     1       7.790   2.411  34.129  0.00  0.00    +0.163 C 
ENDROOT
BRANCH   1   2
ATOM      2  O   UNL     1       8.432   2.698  35.382  0.00  0.00    -0.388 OA
ATOM      3  H   UNL     1       8.562   3.646  35.466  0.00  0.00    +0.210 HD
ENDBRANCH   1   2
BRANCH   1   4
ATOM      4  C   UNL     1       7.717   3.669  33.247  0.00  0.00    +0.175 C 
BRANCH   4   5
ATOM      5  C   UNL     1       6.905   4.793  33.909  0.00  0.00    +0.176 C 
ATOM      6  O   UNL     1       7.708   5.352  34.984  0.00  0.00    -0.332 OA
ATOM      7  C   UNL     1       7.133   6.515  35.666  0.00  0.00    +0.277 C 
ATOM      8  C   UNL     1       5.713   6.187  36.190  0.00  0.00    +0.110 C 
ATOM      9  C   UNL     1       4.831   5.561  35.089  0.00  0.00    +0.143 C 
ATOM     10  C   UNL     1       5.527   4.362  34.445  0.00  0.00    +0.133 C 
BRANCH  10  11
ATOM     11  N   UNL     1       4.715   3.827  33.340  0.00  0.00    -0.308 N 
ATOM     12  H   UNL     1       4.620   4.392  32.508  0.00  0.00    +0.149 HD
ATOM     13  C   UNL     1       4.095   2.644  33.365  0.00  0.00    +0.210 C 
ATOM     14  C   UNL     1       4.237   1.819  34.658  0.00  0.00    +0.109 C 
ATOM     15  O   UNL     1       3.433   2.216  32.419  0.00  0.00    -0.276 OA
ENDBRANCH  10  11
BRANCH   7  16
ATOM     16  C   UNL     1       7.065   7.728  34.716  0.00  0.00    +0.414 C 
ATOM     17  O   UNL     1       8.099   8.277  34.337  0.00  0.00    -0.240 OA
ATOM     18  O   UNL     1       5.978   8.158  34.329  0.00  0.00    -0.240 OA
ENDBRANCH   7  16
BRANCH   7  19
ATOM     19  O   UNL     1       7.977   6.831  36.803  0.00  0.00    -0.343 OA
ATOM     20  C   UNL     1       9.018   5.860  37.082  0.00  0.00    +0.198 C 
ENDBRANCH   7  19
BRANCH   9  21
ATOM     21  O   UNL     1       3.588   5.138  35.651  0.00  0.00    -0.390 OA
ATOM     22  H   UNL     1       3.324   4.305  35.254  0.00  0.00    +0.210 HD
ENDBRANCH   9  21
ENDBRANCH   4   5
BRANCH   4  23
ATOM     23  O   UNL     1       7.155   3.342  31.960  0.00  0.00    -0.387 OA
ATOM     24  H   UNL     1       6.208   3.496  31.976  0.00  0.00    +0.210 HD
ENDBRANCH   4  23
ENDBRANCH   1   4
BRANCH   1  25
ATOM     25  C   UNL     1       8.552   1.315  33.391  0.00  0.00    +0.141 C 
BRANCH  25  28
ATOM     26  C   UNL     1       6.798  -0.239  32.610  0.00  0.00    +0.401 C 
ATOM     27  O   UNL     1       6.336   0.549  31.781  0.00  0.00    -0.226 OA
ATOM     28  N   UNL     1       7.828   0.038  33.409  0.00  0.00    -0.279 N 
ATOM     29  H   UNL     1       8.129  -0.671  34.064  0.00  0.00    +0.152 HD
BRANCH  26  30
ATOM     30  O   UNL     1       6.204  -1.534  32.743  0.00  0.00    -0.444 OA
BRANCH  30  31
ATOM     31  C   UNL     1       7.198  -2.539  32.525  0.00  0.00    +0.292 C 
BRANCH  31  33
ATOM     32  N   UNL     1       6.901  -4.166  30.678  0.00  0.00    -0.131 NA
ATOM     33  C   UNL     1       7.252  -2.911  31.099  0.00  0.00    +0.120 A 
ATOM     34  C   UNL     1       7.599  -2.151  30.006  0.00  0.00    +0.137 A 
ATOM     35  N   UNL     1       7.349  -2.971  28.944  0.00  0.00    -0.247 N 
ATOM     36  N   UNL     1       6.974  -4.196  29.353  0.00  0.00    -0.065 NA
BRANCH  35  37
ATOM     37  C   UNL     1       7.396  -2.645  27.531  0.00  0.00    +0.180 C 
BRANCH  37  38
ATOM     38  C   UNL     1       6.081  -2.056  27.072  0.00  0.00    -0.022 A 
ATOM     39  C   UNL     1       5.696  -2.153  25.723  0.00  0.00    +0.054 A 
ATOM     40  C   UNL     1       4.445  -1.682  25.299  0.00  0.00    +0.162 A 
ATOM     41  C   UNL     1       3.569  -1.096  26.235  0.00  0.00    +0.162 A 
ATOM     42  C   UNL     1       3.954  -1.001  27.574  0.00  0.00    +0.050 A 
ATOM     43  C   UNL     1       5.201  -1.475  27.989  0.00  0.00    +0.009 A 
BRANCH  40  44
ATOM     44  O   UNL     1       3.987  -1.759  24.007  0.00  0.00    -0.491 OA
ATOM     45  C   UNL     1       4.083  -3.011  23.342  0.00  0.00    +0.277 C 
ENDBRANCH  40  44
BRANCH  41  46
ATOM     46  O   UNL     1       2.365  -0.653  25.741  0.00  0.00    -0.491 OA
ATOM     47  C   UNL     1       2.258   0.721  25.398  0.00  0.00    +0.277 C 
ENDBRANCH  41  46
ENDBRANCH  37  38
ENDBRANCH  35  37
ENDBRANCH  31  33
ENDBRANCH  30  31
ENDBRANCH  26  30
ENDBRANCH  25  28
ENDBRANCH   1  25
TORSDOF 17
