REMARK VINA RESULT:    -6.499     12.575     14.357
REMARK INTER + INTRA:         -12.884
REMARK INTER:                 -10.449
REMARK INTRA:                  -2.435
REMARK UNBOUND:                -1.636
REMARK  Name = lig_assembled_52.pdb
REMARK  16 active torsions:
REMARK  status: ('A' for Active; 'I' for Inactive)
REMARK    1  A    between atoms: _2  and  _10
REMARK    2  A    between atoms: _5  and  _18
REMARK    3  A    between atoms: _7  and  _8
REMARK    4  A    between atoms: _7  and  _18
REMARK    5  A    between atoms: _14  and  _34
REMARK    6  A    between atoms: _16  and  _22
REMARK    7  A    between atoms: _17  and  _21
REMARK    8  A    between atoms: _21  and  _22
REMARK    9  A    between atoms: _24  and  _25
REMARK   10  A    between atoms: _26  and  _27
REMARK   11  A    between atoms: _28  and  _30
REMARK   12  A    between atoms: _30  and  _31
REMARK   13  A    between atoms: _30  and  _32
REMARK   14  A    between atoms: _32  and  _33
REMARK   15  A    between atoms: _32  and  _34
REMARK   16  A    between atoms: _35  and  _37
REMARK                            x       y       z     vdW  Elec       q    Type
REMARK                         _______ _______ _______ _____ _____    ______ ____
ROOT
ATOM      1  C   UNL     1      18.721  10.750  28.717  0.00  0.00    +0.163 C 
ENDROOT
BRANCH   1   2
ATOM      2  O   UNL     1      17.432  11.115  29.238  0.00  0.00    -0.388 OA
ATOM      3  H   UNL     1      16.785  10.452  28.986  0.00  0.00    +0.210 HD
ENDBRANCH   1   2
BRANCH   1   4
ATOM      4  C   UNL     1      18.707  10.820  27.193  0.00  0.00    +0.141 C 
BRANCH   4   7
ATOM      5  C   UNL     1      20.261   9.494  25.804  0.00  0.00    +0.401 C 
ATOM      6  O   UNL     1      20.967  10.460  25.504  0.00  0.00    -0.226 OA
ATOM      7  N   UNL     1      19.182   9.572  26.583  0.00  0.00    -0.279 N 
ATOM      8  H   UNL     1      18.662   8.725  26.765  0.00  0.00    +0.152 HD
BRANCH   5   9
ATOM      9  O   UNL     1      20.600   8.202  25.293  0.00  0.00    -0.444 OA
BRANCH   9  10
ATOM     10  C   UNL     1      19.754   7.216  25.891  0.00  0.00    +0.292 C 
BRANCH  10  12
ATOM     11  N   UNL     1      18.302   7.032  23.898  0.00  0.00    -0.131 NA
ATOM     12  C   UNL     1      19.072   6.427  24.849  0.00  0.00    +0.121 A 
ATOM     13  C   UNL     1      19.068   5.068  24.630  0.00  0.00    +0.143 A 
ATOM     14  N   UNL     1      18.289   4.889  23.510  0.00  0.00    -0.218 N 
ATOM     15  N   UNL     1      17.827   6.092  23.091  0.00  0.00    -0.060 NA
BRANCH  14  16
ATOM     16  C   UNL     1      17.983   3.691  22.831  0.00  0.00    +0.085 A 
ATOM     17  C   UNL     1      16.976   3.626  21.864  0.00  0.00    +0.031 A 
ATOM     18  C   UNL     1      16.706   2.407  21.243  0.00  0.00    +0.022 A 
ATOM     19  C   UNL     1      17.454   1.300  21.608  0.00  0.00    +0.111 A 
ATOM     20  N   UNL     1      18.439   1.334  22.532  0.00  0.00    -0.261 NA
ATOM     21  C   UNL     1      18.684   2.527  23.125  0.00  0.00    +0.138 A 
ENDBRANCH  14  16
ENDBRANCH  10  12
ENDBRANCH   9  10
ENDBRANCH   5   9
ENDBRANCH   4   7
ENDBRANCH   1   4
BRANCH   1  22
ATOM     22  C   UNL     1      19.113   9.331  29.162  0.00  0.00    +0.175 C 
BRANCH  22  23
ATOM     23  C   UNL     1      18.365   8.897  30.432  0.00  0.00    +0.176 C 
ATOM     24  O   UNL     1      18.662   9.862  31.478  0.00  0.00    -0.332 OA
ATOM     25  C   UNL     1      17.946   9.667  32.742  0.00  0.00    +0.277 C 
ATOM     26  C   UNL     1      18.172   8.232  33.276  0.00  0.00    +0.110 C 
ATOM     27  C   UNL     1      17.900   7.170  32.189  0.00  0.00    +0.143 C 
ATOM     28  C   UNL     1      18.692   7.472  30.917  0.00  0.00    +0.133 C 
BRANCH  28  29
ATOM     29  N   UNL     1      18.358   6.504  29.860  0.00  0.00    -0.308 N 
ATOM     30  H   UNL     1      17.401   6.468  29.539  0.00  0.00    +0.149 HD
ATOM     31  C   UNL     1      19.237   5.671  29.297  0.00  0.00    +0.210 C 
ATOM     32  C   UNL     1      20.683   5.733  29.826  0.00  0.00    +0.109 C 
ATOM     33  O   UNL     1      18.932   4.881  28.403  0.00  0.00    -0.276 OA
ENDBRANCH  28  29
BRANCH  25  34
ATOM     34  C   UNL     1      16.434   9.917  32.559  0.00  0.00    +0.414 C 
ATOM     35  O   UNL     1      16.037  10.957  32.036  0.00  0.00    -0.240 OA
ATOM     36  O   UNL     1      15.613   9.079  32.934  0.00  0.00    -0.240 OA
ENDBRANCH  25  34
BRANCH  27  37
ATOM     37  O   UNL     1      18.265   5.878  32.675  0.00  0.00    -0.390 OA
ATOM     38  H   UNL     1      17.847   5.203  32.136  0.00  0.00    +0.210 HD
ENDBRANCH  27  37
BRANCH  25  39
ATOM     39  O   UNL     1      18.482  10.605  33.711  0.00  0.00    -0.343 OA
ATOM     40  C   UNL     1      19.404  11.585  33.169  0.00  0.00    +0.198 C 
ENDBRANCH  25  39
ENDBRANCH  22  23
BRANCH  22  41
ATOM     41  O   UNL     1      20.536   9.251  29.373  0.00  0.00    -0.387 OA
ATOM     42  H   UNL     1      20.861   8.408  29.050  0.00  0.00    +0.210 HD
ENDBRANCH  22  41
ENDBRANCH   1  22
TORSDOF 14
