REMARK VINA RESULT:    -6.523     15.225     17.953
REMARK INTER + INTRA:         -13.439
REMARK INTER:                 -11.404
REMARK INTRA:                  -2.035
REMARK UNBOUND:                -2.150
REMARK  Name = lig_assembled_80.pdb
REMARK  16 active torsions:
REMARK  status: ('A' for Active; 'I' for Inactive)
REMARK    1  A    between atoms: _2  and  _10
REMARK    2  A    between atoms: _5  and  _24
REMARK    3  A    between atoms: _7  and  _8
REMARK    4  A    between atoms: _7  and  _24
REMARK    5  A    between atoms: _20  and  _40
REMARK    6  A    between atoms: _22  and  _28
REMARK    7  A    between atoms: _23  and  _27
REMARK    8  A    between atoms: _27  and  _28
REMARK    9  A    between atoms: _30  and  _31
REMARK   10  A    between atoms: _32  and  _33
REMARK   11  A    between atoms: _34  and  _36
REMARK   12  A    between atoms: _36  and  _37
REMARK   13  A    between atoms: _36  and  _38
REMARK   14  A    between atoms: _38  and  _39
REMARK   15  A    between atoms: _38  and  _40
REMARK   16  A    between atoms: _41  and  _43
REMARK                            x       y       z     vdW  Elec       q    Type
REMARK                         _______ _______ _______ _____ _____    ______ ____
ROOT
ATOM      1  C   UNL     1      18.656  -0.923  21.435  0.00  0.00    +0.141 C 
ENDROOT
BRANCH   1   4
ATOM      2  C   UNL     1      17.799   1.388  21.600  0.00  0.00    +0.401 C 
ATOM      3  O   UNL     1      18.284   1.745  20.524  0.00  0.00    -0.226 OA
ATOM      4  N   UNL     1      17.928   0.161  22.106  0.00  0.00    -0.279 N 
ATOM      5  H   UNL     1      17.502  -0.033  23.001  0.00  0.00    +0.152 HD
BRANCH   2   6
ATOM      6  O   UNL     1      17.051   2.332  22.372  0.00  0.00    -0.444 OA
BRANCH   6   7
ATOM      7  C   UNL     1      17.180   3.633  21.791  0.00  0.00    +0.292 C 
BRANCH   7   9
ATOM      8  N   UNL     1      17.329   5.909  22.724  0.00  0.00    -0.131 NA
ATOM      9  C   UNL     1      17.697   4.593  22.787  0.00  0.00    +0.120 A 
ATOM     10  C   UNL     1      18.542   4.403  23.857  0.00  0.00    +0.138 A 
ATOM     11  N   UNL     1      18.697   5.660  24.377  0.00  0.00    -0.239 N 
ATOM     12  N   UNL     1      17.934   6.555  23.711  0.00  0.00    -0.065 NA
BRANCH  11  13
ATOM     13  C   UNL     1      19.395   6.095  25.593  0.00  0.00    +0.195 C 
ATOM     14  C   UNL     1      19.414   7.617  25.619  0.00  0.00    +0.041 C 
ATOM     15  C   UNL     1      20.361   8.131  26.683  0.00  0.00    +0.039 C 
ATOM     16  C   UNL     1      19.660   8.186  28.004  0.00  0.00    -0.026 A 
ATOM     17  C   UNL     1      19.197   7.041  28.657  0.00  0.00    +0.037 A 
ATOM     18  C   UNL     1      18.658   7.160  29.949  0.00  0.00    +0.023 A 
ATOM     19  C   UNL     1      18.471   8.409  30.539  0.00  0.00    +0.002 A 
ATOM     20  C   UNL     1      18.862   9.553  29.861  0.00  0.00    +0.000 A 
ATOM     21  N   UNL     1      19.138   5.750  28.104  0.00  0.00    -0.284 N 
ATOM     22  H   UNL     1      18.796   5.034  28.738  0.00  0.00    +0.155 HD
ATOM     23  C   UNL     1      19.476   9.441  28.614  0.00  0.00    +0.005 A 
ATOM     24  C   UNL     1      18.877   5.358  26.823  0.00  0.00    +0.242 C 
ATOM     25  O   UNL     1      18.276   4.282  26.726  0.00  0.00    -0.273 OA
ENDBRANCH  11  13
ENDBRANCH   7   9
ENDBRANCH   6   7
ENDBRANCH   2   6
ENDBRANCH   1   4
BRANCH   1  26
ATOM     26  C   UNL     1      19.527  -1.710  22.409  0.00  0.00    +0.163 C 
BRANCH  26  27
ATOM     27  O   UNL     1      20.188  -0.811  23.314  0.00  0.00    -0.388 OA
ATOM     28  H   UNL     1      19.777   0.056  23.262  0.00  0.00    +0.210 HD
ENDBRANCH  26  27
BRANCH  26  29
ATOM     29  C   UNL     1      18.658  -2.722  23.175  0.00  0.00    +0.175 C 
BRANCH  29  30
ATOM     30  C   UNL     1      17.919  -2.072  24.354  0.00  0.00    +0.176 C 
ATOM     31  O   UNL     1      18.882  -1.858  25.422  0.00  0.00    -0.332 OA
ATOM     32  C   UNL     1      18.375  -1.146  26.599  0.00  0.00    +0.277 C 
ATOM     33  C   UNL     1      17.118  -1.854  27.161  0.00  0.00    +0.110 C 
ATOM     34  C   UNL     1      16.078  -2.132  26.055  0.00  0.00    +0.143 C 
ATOM     35  C   UNL     1      16.713  -2.874  24.879  0.00  0.00    +0.133 C 
BRANCH  35  36
ATOM     36  N   UNL     1      15.734  -3.056  23.796  0.00  0.00    -0.308 N 
ATOM     37  H   UNL     1      15.301  -2.229  23.408  0.00  0.00    +0.149 HD
ATOM     38  C   UNL     1      15.382  -4.241  23.291  0.00  0.00    +0.210 C 
ATOM     39  C   UNL     1      16.041  -5.483  23.920  0.00  0.00    +0.109 C 
ATOM     40  O   UNL     1      14.569  -4.362  22.373  0.00  0.00    -0.276 OA
ENDBRANCH  35  36
BRANCH  32  41
ATOM     41  C   UNL     1      18.029   0.316  26.246  0.00  0.00    +0.414 C 
ATOM     42  O   UNL     1      18.476   0.829  25.221  0.00  0.00    -0.240 OA
ATOM     43  O   UNL     1      17.302   0.981  26.986  0.00  0.00    -0.240 OA
ENDBRANCH  32  41
BRANCH  34  44
ATOM     44  O   UNL     1      15.009  -2.917  26.585  0.00  0.00    -0.390 OA
ATOM     45  H   UNL     1      14.850  -2.666  27.499  0.00  0.00    +0.210 HD
ENDBRANCH  34  44
BRANCH  32  46
ATOM     46  O   UNL     1      19.408  -1.170  27.618  0.00  0.00    -0.343 OA
ATOM     47  C   UNL     1      19.913  -2.489  27.947  0.00  0.00    +0.198 C 
ENDBRANCH  32  46
ENDBRANCH  29  30
BRANCH  29  48
ATOM     48  O   UNL     1      19.468  -3.820  23.640  0.00  0.00    -0.387 OA
ATOM     49  H   UNL     1      20.221  -3.478  24.128  0.00  0.00    +0.210 HD
ENDBRANCH  29  48
ENDBRANCH  26  29
ENDBRANCH   1  26
TORSDOF 14
