REMARK VINA RESULT:    -6.101     21.690     23.678
REMARK INTER + INTRA:         -13.162
REMARK INTER:                 -11.243
REMARK INTRA:                  -1.919
REMARK UNBOUND:                -2.246
REMARK  Name = lig_assembled_5.pdb
REMARK  18 active torsions:
REMARK  status: ('A' for Active; 'I' for Inactive)
REMARK    1  A    between atoms: _2  and  _9
REMARK    2  A    between atoms: _4  and  _20
REMARK    3  A    between atoms: _6  and  _7
REMARK    4  A    between atoms: _6  and  _20
REMARK    5  A    between atoms: _12  and  _15
REMARK    6  A    between atoms: _13  and  _15
REMARK    7  A    between atoms: _16  and  _36
REMARK    8  A    between atoms: _18  and  _24
REMARK    9  A    between atoms: _19  and  _23
REMARK   10  A    between atoms: _23  and  _24
REMARK   11  A    between atoms: _26  and  _27
REMARK   12  A    between atoms: _28  and  _29
REMARK   13  A    between atoms: _30  and  _32
REMARK   14  A    between atoms: _32  and  _33
REMARK   15  A    between atoms: _32  and  _34
REMARK   16  A    between atoms: _34  and  _35
REMARK   17  A    between atoms: _34  and  _36
REMARK   18  A    between atoms: _37  and  _39
REMARK                            x       y       z     vdW  Elec       q    Type
REMARK                         _______ _______ _______ _____ _____    ______ ____
ROOT
ATOM      1  C   UNL     1      11.670  23.401  25.926  0.00  0.00    +0.163 C 
ENDROOT
BRANCH   1   2
ATOM      2  O   UNL     1      11.001  22.164  25.630  0.00  0.00    -0.388 OA
ATOM      3  H   UNL     1      11.373  21.461  26.169  0.00  0.00    +0.210 HD
ENDBRANCH   1   2
BRANCH   1   4
ATOM      4  C   UNL     1      12.919  23.132  26.759  0.00  0.00    +0.141 C 
BRANCH   4   7
ATOM      5  C   UNL     1      14.918  22.732  25.362  0.00  0.00    +0.401 C 
ATOM      6  O   UNL     1      15.186  23.929  25.237  0.00  0.00    -0.226 OA
ATOM      7  N   UNL     1      13.874  22.270  26.051  0.00  0.00    -0.279 N 
ATOM      8  H   UNL     1      13.731  21.271  26.088  0.00  0.00    +0.152 HD
BRANCH   5   9
ATOM      9  O   UNL     1      15.761  21.763  24.735  0.00  0.00    -0.444 OA
BRANCH   9  10
ATOM     10  C   UNL     1      16.675  22.422  23.854  0.00  0.00    +0.292 C 
BRANCH  10  12
ATOM     11  N   UNL     1      16.392  21.019  21.836  0.00  0.00    -0.131 NA
ATOM     12  C   UNL     1      16.263  22.230  22.451  0.00  0.00    +0.121 A 
ATOM     13  C   UNL     1      15.715  23.127  21.565  0.00  0.00    +0.143 A 
ATOM     14  N   UNL     1      15.496  22.404  20.414  0.00  0.00    -0.220 N 
ATOM     15  N   UNL     1      15.932  21.133  20.598  0.00  0.00    -0.060 NA
BRANCH  14  16
ATOM     16  C   UNL     1      14.891  22.825  19.201  0.00  0.00    +0.067 A 
ATOM     17  C   UNL     1      13.625  22.358  18.831  0.00  0.00    +0.031 A 
ATOM     18  C   UNL     1      13.073  22.737  17.605  0.00  0.00    +0.048 A 
ATOM     19  C   UNL     1      13.760  23.596  16.745  0.00  0.00    +0.120 A 
ATOM     20  C   UNL     1      15.014  24.077  17.118  0.00  0.00    +0.048 A 
ATOM     21  C   UNL     1      15.581  23.693  18.341  0.00  0.00    +0.031 A 
BRANCH  19  22
ATOM     22  O   UNL     1      13.135  23.836  15.553  0.00  0.00    -0.495 OA
ATOM     23  C   UNL     1      11.946  23.099  15.304  0.00  0.00    +0.277 C 
ENDBRANCH  19  22
ENDBRANCH  14  16
ENDBRANCH  10  12
ENDBRANCH   9  10
ENDBRANCH   5   9
ENDBRANCH   4   7
ENDBRANCH   1   4
BRANCH   1  24
ATOM     24  C   UNL     1      10.740  24.359  26.690  0.00  0.00    +0.175 C 
BRANCH  24  25
ATOM     25  C   UNL     1       9.405  24.573  25.961  0.00  0.00    +0.176 C 
ATOM     26  O   UNL     1       9.701  24.932  24.583  0.00  0.00    -0.332 OA
ATOM     27  C   UNL     1       8.538  25.072  23.702  0.00  0.00    +0.277 C 
ATOM     28  C   UNL     1       7.525  26.080  24.299  0.00  0.00    +0.110 C 
ATOM     29  C   UNL     1       7.204  25.758  25.774  0.00  0.00    +0.143 C 
ATOM     30  C   UNL     1       8.485  25.630  26.599  0.00  0.00    +0.133 C 
BRANCH  30  31
ATOM     31  N   UNL     1       8.170  25.238  27.982  0.00  0.00    -0.308 N 
ATOM     32  H   UNL     1       7.750  24.331  28.131  0.00  0.00    +0.149 HD
ATOM     33  C   UNL     1       8.402  26.002  29.052  0.00  0.00    +0.210 C 
ATOM     34  C   UNL     1       9.018  27.389  28.789  0.00  0.00    +0.109 C 
ATOM     35  O   UNL     1       8.141  25.641  30.200  0.00  0.00    -0.276 OA
ENDBRANCH  30  31
BRANCH  27  36
ATOM     36  C   UNL     1       7.845  23.710  23.488  0.00  0.00    +0.414 C 
ATOM     37  O   UNL     1       8.399  22.671  23.843  0.00  0.00    -0.240 OA
ATOM     38  O   UNL     1       6.734  23.651  22.960  0.00  0.00    -0.240 OA
ENDBRANCH  27  36
BRANCH  27  39
ATOM     39  O   UNL     1       9.001  25.590  22.428  0.00  0.00    -0.343 OA
ATOM     40  C   UNL     1      10.343  25.188  22.055  0.00  0.00    +0.198 C 
ENDBRANCH  27  39
BRANCH  29  41
ATOM     41  O   UNL     1       6.389  26.792  26.326  0.00  0.00    -0.390 OA
ATOM     42  H   UNL     1       6.307  26.664  27.274  0.00  0.00    +0.210 HD
ENDBRANCH  29  41
ENDBRANCH  24  25
BRANCH  24  43
ATOM     43  O   UNL     1      11.397  25.624  26.903  0.00  0.00    -0.387 OA
ATOM     44  H   UNL     1      12.082  25.745  26.242  0.00  0.00    +0.210 HD
ENDBRANCH  24  43
ENDBRANCH   1  24
TORSDOF 15
