REMARK VINA RESULT:    -6.065      1.686      2.053
REMARK INTER + INTRA:         -12.866
REMARK INTER:                 -10.962
REMARK INTRA:                  -1.905
REMARK UNBOUND:                -2.370
REMARK  Name = lig_assembled_87.pdb
REMARK  17 active torsions:
REMARK  status: ('A' for Active; 'I' for Inactive)
REMARK    1  A    between atoms: _2  and  _10
REMARK    2  A    between atoms: _3  and  _13
REMARK    3  A    between atoms: _5  and  _21
REMARK    4  A    between atoms: _7  and  _8
REMARK    5  A    between atoms: _7  and  _21
REMARK    6  A    between atoms: _17  and  _37
REMARK    7  A    between atoms: _19  and  _25
REMARK    8  A    between atoms: _20  and  _24
REMARK    9  A    between atoms: _24  and  _25
REMARK   10  A    between atoms: _27  and  _28
REMARK   11  A    between atoms: _29  and  _30
REMARK   12  A    between atoms: _31  and  _33
REMARK   13  A    between atoms: _33  and  _34
REMARK   14  A    between atoms: _33  and  _35
REMARK   15  A    between atoms: _35  and  _36
REMARK   16  A    between atoms: _35  and  _37
REMARK   17  A    between atoms: _38  and  _40
REMARK                            x       y       z     vdW  Elec       q    Type
REMARK                         _______ _______ _______ _____ _____    ______ ____
ROOT
ATOM      1  C   UNL     1       2.408   2.546  34.950  0.00  0.00    +0.163 C 
ENDROOT
BRANCH   1   2
ATOM      2  O   UNL     1       2.586   1.178  34.550  0.00  0.00    -0.388 OA
ATOM      3  H   UNL     1       2.475   1.104  33.599  0.00  0.00    +0.210 HD
ENDBRANCH   1   2
BRANCH   1   4
ATOM      4  C   UNL     1       1.674   3.318  33.857  0.00  0.00    +0.141 C 
BRANCH   4   7
ATOM      5  C   UNL     1       1.661   3.474  31.391  0.00  0.00    +0.401 C 
ATOM      6  O   UNL     1       0.816   4.372  31.359  0.00  0.00    -0.226 OA
ATOM      7  N   UNL     1       2.116   2.919  32.515  0.00  0.00    -0.279 N 
ATOM      8  H   UNL     1       2.802   2.181  32.439  0.00  0.00    +0.152 HD
BRANCH   5   9
ATOM      9  O   UNL     1       2.197   2.981  30.161  0.00  0.00    -0.444 OA
BRANCH   9  10
ATOM     10  C   UNL     1       1.146   2.410  29.377  0.00  0.00    +0.292 C 
BRANCH  10  12
ATOM     11  N   UNL     1       0.358   4.124  27.781  0.00  0.00    -0.131 NA
ATOM     12  C   UNL     1       1.126   3.022  28.036  0.00  0.00    +0.120 A 
ATOM     13  C   UNL     1       1.806   2.672  26.891  0.00  0.00    +0.137 A 
ATOM     14  N   UNL     1       1.510   3.670  26.002  0.00  0.00    -0.248 N 
ATOM     15  N   UNL     1       0.549   4.465  26.518  0.00  0.00    -0.065 NA
BRANCH  14  16
ATOM     16  C   UNL     1       2.046   3.963  24.660  0.00  0.00    +0.112 C 
ATOM     17  C   UNL     1       1.498   5.263  24.008  0.00  0.00    +0.045 C 
ATOM     18  C   UNL     1       0.764   5.079  22.670  0.00  0.00    +0.059 C 
ATOM     19  C   UNL     1       1.739   4.892  21.499  0.00  0.00    +0.020 C 
ATOM     20  C   UNL     1       1.842   3.378  21.320  0.00  0.00    +0.020 C 
ATOM     21  C   UNL     1       1.065   2.813  22.510  0.00  0.00    +0.059 C 
ATOM     22  N   UNL     1       0.020   3.828  22.605  0.00  0.00    -0.299 NA
ATOM     23  C   UNL     1      -1.030   3.621  23.579  0.00  0.00    +0.105 C 
ATOM     24  C   UNL     1       1.969   2.707  23.740  0.00  0.00    +0.045 C 
ENDBRANCH  14  16
ENDBRANCH  10  12
ENDBRANCH   9  10
ENDBRANCH   5   9
ENDBRANCH   4   7
ENDBRANCH   1   4
BRANCH   1  25
ATOM     25  C   UNL     1       3.763   3.218  35.232  0.00  0.00    +0.175 C 
BRANCH  25  26
ATOM     26  C   UNL     1       4.817   2.859  34.174  0.00  0.00    +0.176 C 
ATOM     27  O   UNL     1       5.368   1.557  34.516  0.00  0.00    -0.332 OA
ATOM     28  C   UNL     1       6.322   1.000  33.553  0.00  0.00    +0.277 C 
ATOM     29  C   UNL     1       7.472   2.002  33.289  0.00  0.00    +0.110 C 
ATOM     30  C   UNL     1       6.936   3.409  32.952  0.00  0.00    +0.143 C 
ATOM     31  C   UNL     1       5.950   3.890  34.018  0.00  0.00    +0.133 C 
BRANCH  31  32
ATOM     32  N   UNL     1       5.380   5.193  33.642  0.00  0.00    -0.308 N 
ATOM     33  H   UNL     1       4.840   5.244  32.790  0.00  0.00    +0.149 HD
ATOM     34  C   UNL     1       5.531   6.314  34.353  0.00  0.00    +0.210 C 
ATOM     35  C   UNL     1       6.382   6.209  35.633  0.00  0.00    +0.109 C 
ATOM     36  O   UNL     1       5.029   7.389  34.022  0.00  0.00    -0.276 OA
ENDBRANCH  31  32
BRANCH  28  37
ATOM     37  C   UNL     1       5.619   0.659  32.222  0.00  0.00    +0.414 C 
ATOM     38  O   UNL     1       6.241   0.104  31.317  0.00  0.00    -0.240 OA
ATOM     39  O   UNL     1       4.432   0.939  32.053  0.00  0.00    -0.240 OA
ENDBRANCH  28  37
BRANCH  30  40
ATOM     40  O   UNL     1       8.023   4.331  32.866  0.00  0.00    -0.390 OA
ATOM     41  H   UNL     1       8.148   4.594  31.951  0.00  0.00    +0.210 HD
ENDBRANCH  30  40
BRANCH  28  42
ATOM     42  O   UNL     1       6.888  -0.206  34.128  0.00  0.00    -0.343 OA
ATOM     43  C   UNL     1       5.927  -1.245  34.441  0.00  0.00    +0.198 C 
ENDBRANCH  28  42
ENDBRANCH  25  26
BRANCH  25  44
ATOM     44  O   UNL     1       4.233   2.855  36.545  0.00  0.00    -0.387 OA
ATOM     45  H   UNL     1       4.562   1.953  36.530  0.00  0.00    +0.210 HD
ENDBRANCH  25  44
ENDBRANCH   1  25
TORSDOF 14
