REMARK VINA RESULT:    -6.801     12.877     15.182
REMARK INTER + INTRA:         -16.182
REMARK INTER:                 -12.921
REMARK INTRA:                  -3.261
REMARK UNBOUND:                -2.424
REMARK  Name = lig_assembled_81.pdb
REMARK  22 active torsions:
REMARK  status: ('A' for Active; 'I' for Inactive)
REMARK    1  A    between atoms: _2  and  _12
REMARK    2  A    between atoms: _7  and  _30
REMARK    3  A    between atoms: _8  and  _24
REMARK    4  A    between atoms: _9  and  _10
REMARK    5  A    between atoms: _9  and  _30
REMARK    6  A    between atoms: _14  and  _15
REMARK    7  A    between atoms: _21  and  _22
REMARK    8  A    between atoms: _22  and  _23
REMARK    9  A    between atoms: _23  and  _25
REMARK   10  A    between atoms: _24  and  _25
REMARK   11  A    between atoms: _26  and  _46
REMARK   12  A    between atoms: _28  and  _34
REMARK   13  A    between atoms: _29  and  _33
REMARK   14  A    between atoms: _33  and  _34
REMARK   15  A    between atoms: _36  and  _37
REMARK   16  A    between atoms: _38  and  _39
REMARK   17  A    between atoms: _40  and  _42
REMARK   18  A    between atoms: _42  and  _43
REMARK   19  A    between atoms: _42  and  _44
REMARK   20  A    between atoms: _44  and  _45
REMARK   21  A    between atoms: _44  and  _46
REMARK   22  A    between atoms: _47  and  _49
REMARK                            x       y       z     vdW  Elec       q    Type
REMARK                         _______ _______ _______ _____ _____    ______ ____
ROOT
ATOM      1  C   UNL     1       6.203   0.198  32.624  0.00  0.00    +0.401 C 
ATOM      2  O   UNL     1       5.906   1.077  31.812  0.00  0.00    -0.226 OA
ATOM      3  N   UNL     1       7.243   0.272  33.456  0.00  0.00    -0.279 N 
ATOM      4  H   UNL     1       7.400  -0.497  34.093  0.00  0.00    +0.152 HD
ENDROOT
BRANCH   1   5
ATOM      5  O   UNL     1       5.396  -0.980  32.698  0.00  0.00    -0.444 OA
BRANCH   5   6
ATOM      6  C   UNL     1       6.056  -2.055  32.026  0.00  0.00    +0.289 C 
BRANCH   6   8
ATOM      7  N   UNL     1       4.570  -3.098  30.377  0.00  0.00    -0.130 NA
ATOM      8  C   UNL     1       5.547  -2.187  30.646  0.00  0.00    +0.100 C 
ATOM      9  C   UNL     1       5.897  -1.555  29.468  0.00  0.00    +0.124 C 
ATOM     10  N   UNL     1       4.989  -2.029  28.530  0.00  0.00    -0.187 N 
ATOM     11  N   UNL     1       4.346  -3.082  29.074  0.00  0.00    -0.010 NA
BRANCH  10  12
ATOM     12  C   UNL     1       4.869  -1.658  27.149  0.00  0.00    +0.150 A 
ATOM     13  C   UNL     1       3.724  -1.080  26.545  0.00  0.00    +0.022 A 
ATOM     14  C   UNL     1       3.863  -0.894  25.145  0.00  0.00    +0.081 A 
ATOM     15  N   UNL     1       4.970  -1.313  24.474  0.00  0.00    -0.214 NA
ATOM     16  C   UNL     1       5.966  -1.867  25.145  0.00  0.00    +0.215 A 
ATOM     17  N   UNL     1       7.034  -2.364  24.438  0.00  0.00    -0.327 N 
ATOM     18  H   UNL     1       7.104  -1.934  23.529  0.00  0.00    +0.145 HD
ATOM     19  H   UNL     1       7.862  -2.436  25.010  0.00  0.00    +0.145 HD
ATOM     20  N   UNL     1       6.001  -1.970  26.460  0.00  0.00    -0.198 NA
BRANCH  14  21
ATOM     21  C   UNL     1       2.875  -0.267  24.186  0.00  0.00    +0.001 A 
ATOM     22  C   UNL     1       1.863  -0.963  23.500  0.00  0.00    +0.010 A 
ATOM     23  C   UNL     1       0.965  -0.321  22.630  0.00  0.00    +0.001 A 
ATOM     24  C   UNL     1       1.006   1.050  22.460  0.00  0.00    +0.000 A 
ATOM     25  C   UNL     1       1.955   1.790  23.161  0.00  0.00    +0.001 A 
ATOM     26  C   UNL     1       2.874   1.135  23.994  0.00  0.00    +0.010 A 
ENDBRANCH  14  21
BRANCH  13  27
ATOM     27  C   UNL     1       2.453  -0.552  27.218  0.00  0.00    +0.069 C 
BRANCH  27  28
ATOM     28  C   UNL     1       2.472   0.722  28.040  0.00  0.00    +0.164 C 
BRANCH  28  29
ATOM     29  O   UNL     1       1.333   0.954  28.878  0.00  0.00    -0.380 OA
BRANCH  29  30
ATOM     30  C   UNL     1       1.853   1.322  30.171  0.00  0.00    +0.156 C 
ATOM     31  C   UNL     1       2.627   0.190  30.805  0.00  0.00    +0.034 C 
ENDBRANCH  29  30
ENDBRANCH  28  29
ENDBRANCH  27  28
ENDBRANCH  13  27
ENDBRANCH  10  12
ENDBRANCH   6   8
ENDBRANCH   5   6
ENDBRANCH   1   5
BRANCH   3  32
ATOM     32  C   UNL     1       8.173   1.407  33.498  0.00  0.00    +0.141 C 
BRANCH  32  33
ATOM     33  C   UNL     1       7.646   2.541  34.371  0.00  0.00    +0.163 C 
BRANCH  33  34
ATOM     34  O   UNL     1       8.309   2.528  35.646  0.00  0.00    -0.388 OA
ATOM     35  H   UNL     1       7.667   2.352  36.339  0.00  0.00    +0.210 HD
ENDBRANCH  33  34
BRANCH  33  36
ATOM     36  C   UNL     1       7.861   3.884  33.653  0.00  0.00    +0.175 C 
BRANCH  36  37
ATOM     37  C   UNL     1       7.215   5.054  34.411  0.00  0.00    +0.176 C 
ATOM     38  O   UNL     1       7.962   5.256  35.642  0.00  0.00    -0.332 OA
ATOM     39  C   UNL     1       7.552   6.408  36.451  0.00  0.00    +0.277 C 
ATOM     40  C   UNL     1       6.037   6.337  36.763  0.00  0.00    +0.110 C 
ATOM     41  C   UNL     1       5.203   6.092  35.488  0.00  0.00    +0.143 C 
ATOM     42  C   UNL     1       5.718   4.872  34.722  0.00  0.00    +0.133 C 
BRANCH  42  43
ATOM     43  N   UNL     1       4.972   4.700  33.466  0.00  0.00    -0.308 N 
ATOM     44  H   UNL     1       5.112   5.385  32.736  0.00  0.00    +0.149 HD
ATOM     45  C   UNL     1       4.122   3.698  33.226  0.00  0.00    +0.210 C 
ATOM     46  C   UNL     1       3.911   2.685  34.367  0.00  0.00    +0.109 C 
ATOM     47  O   UNL     1       3.522   3.571  32.159  0.00  0.00    -0.276 OA
ENDBRANCH  42  43
BRANCH  39  48
ATOM     48  C   UNL     1       7.867   7.729  35.720  0.00  0.00    +0.414 C 
ATOM     49  O   UNL     1       8.156   8.739  36.361  0.00  0.00    -0.240 OA
ATOM     50  O   UNL     1       7.831   7.786  34.490  0.00  0.00    -0.240 OA
ENDBRANCH  39  48
BRANCH  39  51
ATOM     51  O   UNL     1       8.280   6.358  37.705  0.00  0.00    -0.343 OA
ATOM     52  C   UNL     1       9.306   5.336  37.777  0.00  0.00    +0.198 C 
ENDBRANCH  39  51
BRANCH  41  53
ATOM     53  O   UNL     1       3.835   5.883  35.840  0.00  0.00    -0.390 OA
ATOM     54  H   UNL     1       3.694   6.149  36.751  0.00  0.00    +0.210 HD
ENDBRANCH  41  53
ENDBRANCH  36  37
BRANCH  36  55
ATOM     55  O   UNL     1       7.344   3.817  32.309  0.00  0.00    -0.387 OA
ATOM     56  H   UNL     1       7.778   3.105  31.834  0.00  0.00    +0.210 HD
ENDBRANCH  36  55
ENDBRANCH  33  36
ENDBRANCH  32  33
ENDBRANCH   3  32
TORSDOF 19
