REMARK VINA RESULT:    -6.130      9.804     13.791
REMARK INTER + INTRA:         -13.129
REMARK INTER:                 -10.968
REMARK INTRA:                  -2.161
REMARK UNBOUND:                -1.802
REMARK  Name = lig_assembled_36.pdb
REMARK  18 active torsions:
REMARK  status: ('A' for Active; 'I' for Inactive)
REMARK    1  A    between atoms: _2  and  _10
REMARK    2  A    between atoms: _5  and  _21
REMARK    3  A    between atoms: _7  and  _8
REMARK    4  A    between atoms: _7  and  _21
REMARK    5  A    between atoms: _10  and  _11
REMARK    6  A    between atoms: _14  and  _15
REMARK    7  A    between atoms: _17  and  _37
REMARK    8  A    between atoms: _19  and  _25
REMARK    9  A    between atoms: _20  and  _24
REMARK   10  A    between atoms: _24  and  _25
REMARK   11  A    between atoms: _27  and  _28
REMARK   12  A    between atoms: _29  and  _30
REMARK   13  A    between atoms: _31  and  _33
REMARK   14  A    between atoms: _33  and  _34
REMARK   15  A    between atoms: _33  and  _35
REMARK   16  A    between atoms: _35  and  _36
REMARK   17  A    between atoms: _35  and  _37
REMARK   18  A    between atoms: _38  and  _40
REMARK                            x       y       z     vdW  Elec       q    Type
REMARK                         _______ _______ _______ _____ _____    ______ ____
ROOT
ATOM      1  C   UNL     1       7.399   3.090  33.065  0.00  0.00    +0.163 C 
ENDROOT
BRANCH   1   2
ATOM      2  O   UNL     1       7.003   3.257  31.693  0.00  0.00    -0.388 OA
ATOM      3  H   UNL     1       6.838   4.187  31.518  0.00  0.00    +0.210 HD
ENDBRANCH   1   2
BRANCH   1   4
ATOM      4  C   UNL     1       6.174   3.088  33.995  0.00  0.00    +0.175 C 
BRANCH   4   5
ATOM      5  C   UNL     1       5.883   4.482  34.571  0.00  0.00    +0.176 C 
ATOM      6  O   UNL     1       7.132   5.024  35.081  0.00  0.00    -0.332 OA
ATOM      7  C   UNL     1       7.069   6.401  35.579  0.00  0.00    +0.277 C 
ATOM      8  C   UNL     1       5.961   6.539  36.652  0.00  0.00    +0.110 C 
ATOM      9  C   UNL     1       4.621   5.947  36.167  0.00  0.00    +0.143 C 
ATOM     10  C   UNL     1       4.803   4.513  35.669  0.00  0.00    +0.133 C 
BRANCH  10  11
ATOM     11  N   UNL     1       3.538   3.990  35.128  0.00  0.00    -0.308 N 
ATOM     12  H   UNL     1       3.171   4.419  34.290  0.00  0.00    +0.149 HD
ATOM     13  C   UNL     1       2.844   2.988  35.673  0.00  0.00    +0.210 C 
ATOM     14  C   UNL     1       3.417   2.374  36.965  0.00  0.00    +0.109 C 
ATOM     15  O   UNL     1       1.794   2.561  35.191  0.00  0.00    -0.276 OA
ENDBRANCH  10  11
BRANCH   7  16
ATOM     16  C   UNL     1       6.794   7.388  34.425  0.00  0.00    +0.414 C 
ATOM     17  O   UNL     1       7.543   7.425  33.450  0.00  0.00    -0.240 OA
ATOM     18  O   UNL     1       5.823   8.145  34.469  0.00  0.00    -0.240 OA
ENDBRANCH   7  16
BRANCH   7  19
ATOM     19  O   UNL     1       8.344   6.715  36.195  0.00  0.00    -0.343 OA
ATOM     20  C   UNL     1       8.294   7.743  37.217  0.00  0.00    +0.198 C 
ENDBRANCH   7  19
BRANCH   9  21
ATOM     21  O   UNL     1       3.674   5.957  37.236  0.00  0.00    -0.390 OA
ATOM     22  H   UNL     1       3.180   5.134  37.235  0.00  0.00    +0.210 HD
ENDBRANCH   9  21
ENDBRANCH   4   5
BRANCH   4  23
ATOM     23  O   UNL     1       6.362   2.138  35.063  0.00  0.00    -0.387 OA
ATOM     24  H   UNL     1       6.212   2.571  35.907  0.00  0.00    +0.210 HD
ENDBRANCH   4  23
ENDBRANCH   1   4
BRANCH   1  25
ATOM     25  C   UNL     1       8.167   1.783  33.230  0.00  0.00    +0.141 C 
BRANCH  25  28
ATOM     26  C   UNL     1       9.664   1.236  35.118  0.00  0.00    +0.401 C 
ATOM     27  O   UNL     1       8.931   0.352  35.567  0.00  0.00    -0.226 OA
ATOM     28  N   UNL     1       9.382   1.960  34.034  0.00  0.00    -0.279 N 
ATOM     29  H   UNL     1      10.042   2.670  33.750  0.00  0.00    +0.152 HD
BRANCH  26  30
ATOM     30  O   UNL     1      10.894   1.524  35.788  0.00  0.00    -0.444 OA
BRANCH  30  31
ATOM     31  C   UNL     1      11.077   2.940  35.864  0.00  0.00    +0.292 C 
BRANCH  31  33
ATOM     32  N   UNL     1      13.269   2.797  34.719  0.00  0.00    -0.131 NA
ATOM     33  C   UNL     1      12.509   3.278  35.752  0.00  0.00    +0.120 A 
ATOM     34  C   UNL     1      13.291   4.077  36.555  0.00  0.00    +0.137 A 
ATOM     35  N   UNL     1      14.488   4.118  35.902  0.00  0.00    -0.247 N 
ATOM     36  N   UNL     1      14.489   3.304  34.831  0.00  0.00    -0.065 NA
BRANCH  35  37
ATOM     37  C   UNL     1      15.656   4.913  36.228  0.00  0.00    +0.180 C 
BRANCH  37  38
ATOM     38  C   UNL     1      16.068   5.784  35.064  0.00  0.00    -0.026 A 
ATOM     39  C   UNL     1      15.389   6.979  34.781  0.00  0.00    +0.007 A 
ATOM     40  C   UNL     1      15.781   7.781  33.705  0.00  0.00    +0.019 A 
ATOM     41  C   UNL     1      16.853   7.398  32.894  0.00  0.00    +0.052 A 
ATOM     42  C   UNL     1      17.520   6.197  33.153  0.00  0.00    +0.019 A 
ATOM     43  C   UNL     1      17.127   5.394  34.229  0.00  0.00    +0.007 A 
BRANCH  41  44
ATOM     44  C   UNL     1      17.267   8.233  31.802  0.00  0.00    +0.099 C 
ATOM     45  N   UNL     1      17.610   8.900  30.917  0.00  0.00    -0.191 NA
ENDBRANCH  41  44
ENDBRANCH  37  38
ENDBRANCH  35  37
ENDBRANCH  31  33
ENDBRANCH  30  31
ENDBRANCH  26  30
ENDBRANCH  25  28
ENDBRANCH   1  25
TORSDOF 16
