REMARK VINA RESULT:    -5.537      4.167     11.064
REMARK INTER + INTRA:         -13.059
REMARK INTER:                 -10.623
REMARK INTRA:                  -2.436
REMARK UNBOUND:                -3.800
REMARK  Name = lig_assembled_65.pdb
REMARK  16 active torsions:
REMARK  status: ('A' for Active; 'I' for Inactive)
REMARK    1  A    between atoms: _8  and  _20
REMARK    2  A    between atoms: _9  and  _15
REMARK    3  A    between atoms: _10  and  _11
REMARK    4  A    between atoms: _10  and  _20
REMARK    5  A    between atoms: _16  and  _36
REMARK    6  A    between atoms: _18  and  _24
REMARK    7  A    between atoms: _19  and  _23
REMARK    8  A    between atoms: _23  and  _24
REMARK    9  A    between atoms: _26  and  _27
REMARK   10  A    between atoms: _28  and  _29
REMARK   11  A    between atoms: _30  and  _32
REMARK   12  A    between atoms: _32  and  _33
REMARK   13  A    between atoms: _32  and  _34
REMARK   14  A    between atoms: _34  and  _35
REMARK   15  A    between atoms: _34  and  _36
REMARK   16  A    between atoms: _37  and  _39
REMARK                            x       y       z     vdW  Elec       q    Type
REMARK                         _______ _______ _______ _____ _____    ______ ____
ROOT
ATOM      1  C   UNL     1      18.499  10.487  29.567  0.00  0.00    +0.163 C 
ENDROOT
BRANCH   1   2
ATOM      2  O   UNL     1      17.168  10.756  30.035  0.00  0.00    -0.388 OA
ATOM      3  H   UNL     1      16.538  10.239  29.526  0.00  0.00    +0.210 HD
ENDBRANCH   1   2
BRANCH   1   4
ATOM      4  C   UNL     1      18.624  10.874  28.097  0.00  0.00    +0.141 C 
BRANCH   4   7
ATOM      5  C   UNL     1      19.952   9.604  26.445  0.00  0.00    +0.401 C 
ATOM      6  O   UNL     1      20.815  10.477  26.328  0.00  0.00    -0.226 OA
ATOM      7  N   UNL     1      18.890   9.709  27.244  0.00  0.00    -0.279 N 
ATOM      8  H   UNL     1      18.231   8.943  27.265  0.00  0.00    +0.152 HD
BRANCH   5   9
ATOM      9  O   UNL     1      20.074   8.400  25.683  0.00  0.00    -0.444 OA
BRANCH   9  10
ATOM     10  C   UNL     1      19.152   7.426  26.178  0.00  0.00    +0.292 C 
BRANCH  10  12
ATOM     11  N   UNL     1      18.317   6.986  23.889  0.00  0.00    -0.131 NA
ATOM     12  C   UNL     1      18.742   6.509  25.098  0.00  0.00    +0.121 A 
ATOM     13  C   UNL     1      18.703   5.135  25.077  0.00  0.00    +0.149 A 
ATOM     14  N   UNL     1      18.233   4.812  23.822  0.00  0.00    -0.155 N 
ATOM     15  C   UNL     1      17.993   3.506  23.302  0.00  0.00    +0.416 C 
ATOM     16  N   UNL     1      17.536   3.389  22.050  0.00  0.00    +0.041 NA
ATOM     17  C   UNL     1      17.320   2.140  21.643  0.00  0.00    +0.339 C 
ATOM     18  C   UNL     1      16.795   1.945  20.255  0.00  0.00    +0.149 C 
ATOM     19  N   UNL     1      17.528   1.055  22.389  0.00  0.00    +0.007 NA
ATOM     20  C   UNL     1      17.968   1.282  23.616  0.00  0.00    +0.386 C 
ATOM     21  N   UNL     1      18.186   0.187  24.425  0.00  0.00    -0.296 N 
ATOM     22  H   UNL     1      18.322  -0.647  23.870  0.00  0.00    +0.148 HD
ATOM     23  H   UNL     1      18.869   0.388  25.141  0.00  0.00    +0.148 HD
ATOM     24  N   UNL     1      18.238   2.472  24.121  0.00  0.00    -0.290 NA
ATOM     25  N   UNL     1      18.012   5.950  23.116  0.00  0.00    -0.055 NA
ENDBRANCH  10  12
ENDBRANCH   9  10
ENDBRANCH   5   9
ENDBRANCH   4   7
ENDBRANCH   1   4
BRANCH   1  26
ATOM     26  C   UNL     1      18.852   8.999  29.738  0.00  0.00    +0.175 C 
BRANCH  26  27
ATOM     27  C   UNL     1      18.144   8.373  30.948  0.00  0.00    +0.176 C 
ATOM     28  O   UNL     1      18.312   9.272  32.079  0.00  0.00    -0.332 OA
ATOM     29  C   UNL     1      17.608   8.887  33.306  0.00  0.00    +0.277 C 
ATOM     30  C   UNL     1      17.994   7.446  33.721  0.00  0.00    +0.110 C 
ATOM     31  C   UNL     1      17.862   6.459  32.542  0.00  0.00    +0.143 C 
ATOM     32  C   UNL     1      18.630   6.959  31.318  0.00  0.00    +0.133 C 
BRANCH  32  33
ATOM     33  N   UNL     1      18.425   6.055  30.176  0.00  0.00    -0.308 N 
ATOM     34  H   UNL     1      17.497   5.997  29.780  0.00  0.00    +0.149 HD
ATOM     35  C   UNL     1      19.385   5.304  29.629  0.00  0.00    +0.210 C 
ATOM     36  C   UNL     1      20.782   5.395  30.271  0.00  0.00    +0.109 C 
ATOM     37  O   UNL     1      19.188   4.567  28.663  0.00  0.00    -0.276 OA
ENDBRANCH  32  33
BRANCH  29  38
ATOM     38  C   UNL     1      16.080   8.975  33.110  0.00  0.00    +0.414 C 
ATOM     39  O   UNL     1      15.594   9.875  32.427  0.00  0.00    -0.240 OA
ATOM     40  O   UNL     1      15.335   8.147  33.635  0.00  0.00    -0.240 OA
ENDBRANCH  29  38
BRANCH  29  41
ATOM     41  O   UNL     1      18.018   9.793  34.362  0.00  0.00    -0.343 OA
ATOM     42  C   UNL     1      18.935  10.838  33.951  0.00  0.00    +0.198 C 
ENDBRANCH  29  41
BRANCH  31  43
ATOM     43  O   UNL     1      18.370   5.180  32.926  0.00  0.00    -0.390 OA
ATOM     44  H   UNL     1      18.453   5.141  33.881  0.00  0.00    +0.210 HD
ENDBRANCH  31  43
ENDBRANCH  26  27
BRANCH  26  45
ATOM     45  O   UNL     1      20.279   8.838  29.859  0.00  0.00    -0.387 OA
ATOM     46  H   UNL     1      20.470   8.101  30.444  0.00  0.00    +0.210 HD
ENDBRANCH  26  45
ENDBRANCH   1  26
TORSDOF 13
