REMARK VINA RESULT:    -6.119      8.868     13.830
REMARK INTER + INTRA:         -13.545
REMARK INTER:                 -11.719
REMARK INTRA:                  -1.827
REMARK UNBOUND:                -2.597
REMARK  Name = lig_assembled_89.pdb
REMARK  19 active torsions:
REMARK  status: ('A' for Active; 'I' for Inactive)
REMARK    1  A    between atoms: _2  and  _12
REMARK    2  A    between atoms: _5  and  _20
REMARK    3  A    between atoms: _7  and  _29
REMARK    4  A    between atoms: _9  and  _10
REMARK    5  A    between atoms: _9  and  _29
REMARK    6  A    between atoms: _20  and  _21
REMARK    7  A    between atoms: _20  and  _22
REMARK    8  A    between atoms: _25  and  _45
REMARK    9  A    between atoms: _27  and  _33
REMARK   10  A    between atoms: _28  and  _32
REMARK   11  A    between atoms: _32  and  _33
REMARK   12  A    between atoms: _35  and  _36
REMARK   13  A    between atoms: _37  and  _38
REMARK   14  A    between atoms: _39  and  _41
REMARK   15  A    between atoms: _41  and  _42
REMARK   16  A    between atoms: _41  and  _43
REMARK   17  A    between atoms: _43  and  _44
REMARK   18  A    between atoms: _43  and  _45
REMARK   19  A    between atoms: _46  and  _48
REMARK                            x       y       z     vdW  Elec       q    Type
REMARK                         _______ _______ _______ _____ _____    ______ ____
ROOT
ATOM      1  C   UNL     1      12.429   2.071  37.488  0.00  0.00    +0.401 C 
ATOM      2  O   UNL     1      12.188   0.922  37.864  0.00  0.00    -0.226 OA
ATOM      3  N   UNL     1      11.630   3.113  37.718  0.00  0.00    -0.279 N 
ATOM      4  H   UNL     1      11.918   4.020  37.378  0.00  0.00    +0.152 HD
ENDROOT
BRANCH   3   5
ATOM      5  C   UNL     1      10.355   3.018  38.440  0.00  0.00    +0.141 C 
BRANCH   5   6
ATOM      6  C   UNL     1       9.402   4.148  38.063  0.00  0.00    +0.163 C 
BRANCH   6   7
ATOM      7  O   UNL     1      10.058   5.068  37.174  0.00  0.00    -0.388 OA
ATOM      8  H   UNL     1      10.219   4.638  36.330  0.00  0.00    +0.210 HD
ENDBRANCH   6   7
BRANCH   6   9
ATOM      9  C   UNL     1       8.139   3.560  37.411  0.00  0.00    +0.175 C 
BRANCH   9  10
ATOM     10  C   UNL     1       7.688   4.372  36.188  0.00  0.00    +0.176 C 
ATOM     11  O   UNL     1       6.287   4.716  36.372  0.00  0.00    -0.332 OA
ATOM     12  C   UNL     1       5.708   5.588  35.345  0.00  0.00    +0.277 C 
ATOM     13  C   UNL     1       5.916   4.977  33.937  0.00  0.00    +0.110 C 
ATOM     14  C   UNL     1       7.386   4.565  33.707  0.00  0.00    +0.143 C 
ATOM     15  C   UNL     1       7.886   3.663  34.835  0.00  0.00    +0.133 C 
BRANCH  15  16
ATOM     16  N   UNL     1       9.311   3.348  34.650  0.00  0.00    -0.308 N 
ATOM     17  H   UNL     1       9.962   4.120  34.601  0.00  0.00    +0.149 HD
ATOM     18  C   UNL     1       9.801   2.110  34.542  0.00  0.00    +0.210 C 
ATOM     19  C   UNL     1       8.781   0.958  34.595  0.00  0.00    +0.109 C 
ATOM     20  O   UNL     1      11.002   1.876  34.402  0.00  0.00    -0.276 OA
ENDBRANCH  15  16
BRANCH  12  21
ATOM     21  C   UNL     1       6.345   6.992  35.397  0.00  0.00    +0.414 C 
ATOM     22  O   UNL     1       6.975   7.351  36.391  0.00  0.00    -0.240 OA
ATOM     23  O   UNL     1       6.230   7.765  34.445  0.00  0.00    -0.240 OA
ENDBRANCH  12  21
BRANCH  14  24
ATOM     24  O   UNL     1       7.502   3.872  32.464  0.00  0.00    -0.390 OA
ATOM     25  H   UNL     1       8.420   3.633  32.315  0.00  0.00    +0.210 HD
ENDBRANCH  14  24
BRANCH  12  26
ATOM     26  O   UNL     1       4.282   5.689  35.594  0.00  0.00    -0.343 OA
ATOM     27  C   UNL     1       3.875   5.386  36.952  0.00  0.00    +0.198 C 
ENDBRANCH  12  26
ENDBRANCH   9  10
BRANCH   9  28
ATOM     28  O   UNL     1       7.072   3.483  38.378  0.00  0.00    -0.387 OA
ATOM     29  H   UNL     1       7.443   3.415  39.260  0.00  0.00    +0.210 HD
ENDBRANCH   9  28
ENDBRANCH   6   9
ENDBRANCH   5   6
ENDBRANCH   3   5
BRANCH   1  30
ATOM     30  O   UNL     1      13.634   2.326  36.762  0.00  0.00    -0.444 OA
BRANCH  30  31
ATOM     31  C   UNL     1      14.116   3.634  37.080  0.00  0.00    +0.292 C 
BRANCH  31  33
ATOM     32  N   UNL     1      14.111   3.892  34.629  0.00  0.00    -0.131 NA
ATOM     33  C   UNL     1      14.506   4.346  35.851  0.00  0.00    +0.121 A 
ATOM     34  C   UNL     1      15.241   5.495  35.686  0.00  0.00    +0.145 A 
ATOM     35  N   UNL     1      15.250   5.727  34.324  0.00  0.00    -0.199 N 
ATOM     36  N   UNL     1      14.559   4.738  33.711  0.00  0.00    -0.059 NA
BRANCH  35  37
ATOM     37  C   UNL     1      15.805   6.870  33.677  0.00  0.00    +0.186 A 
ATOM     38  C   UNL     1      16.899   6.966  32.842  0.00  0.00    +0.158 A 
ATOM     39  C   UNL     1      17.909   6.036  32.438  0.00  0.00    +0.280 A 
ATOM     40  O   UNL     1      18.155   5.019  33.072  0.00  0.00    -0.265 OA
ATOM     41  N   UNL     1      18.622   6.391  31.275  0.00  0.00    -0.302 N 
ATOM     42  C   UNL     1      18.650   7.767  30.831  0.00  0.00    +0.069 A 
ATOM     43  C   UNL     1      19.549   8.232  29.861  0.00  0.00    +0.028 A 
ATOM     44  C   UNL     1      19.583   9.584  29.492  0.00  0.00    +0.002 A 
ATOM     45  C   UNL     1      18.713  10.499  30.075  0.00  0.00    +0.002 A 
ATOM     46  C   UNL     1      17.798  10.069  31.031  0.00  0.00    +0.028 A 
ATOM     47  C   UNL     1      17.779   8.718  31.407  0.00  0.00    +0.072 A 
ATOM     48  N   UNL     1      16.874   8.253  32.376  0.00  0.00    -0.291 N 
ATOM     49  C   UNL     1      15.854   8.903  33.023  0.00  0.00    +0.207 A 
ATOM     50  N   UNL     1      15.178   8.095  33.810  0.00  0.00    -0.216 NA
BRANCH  41  51
ATOM     51  C   UNL     1      19.495   5.366  30.658  0.00  0.00    +0.085 C 
ATOM     52  C   UNL     1      18.751   4.076  30.259  0.00  0.00    +0.030 C 
ATOM     53  C   UNL     1      20.698   5.037  31.541  0.00  0.00    +0.030 C 
ENDBRANCH  41  51
ENDBRANCH  35  37
ENDBRANCH  31  33
ENDBRANCH  30  31
ENDBRANCH   1  30
TORSDOF 15
