REMARK VINA RESULT:    -5.471      2.274      3.542
REMARK INTER + INTRA:         -13.104
REMARK INTER:                 -11.069
REMARK INTRA:                  -2.036
REMARK UNBOUND:                -2.036
REMARK  Name = lig_assembled_45.pdb
REMARK  24 active torsions:
REMARK  status: ('A' for Active; 'I' for Inactive)
REMARK    1  A    between atoms: _2  and  _10
REMARK    2  A    between atoms: _3  and  _12
REMARK    3  A    between atoms: _3  and  _13
REMARK    4  A    between atoms: _3  and  _14
REMARK    5  A    between atoms: _3  and  _16
REMARK    6  A    between atoms: _5  and  _21
REMARK    7  A    between atoms: _6  and  _16
REMARK    8  A    between atoms: _7  and  _8
REMARK    9  A    between atoms: _7  and  _21
REMARK   10  A    between atoms: _10  and  _11
REMARK   11  A    between atoms: _11  and  _12
REMARK   12  A    between atoms: _14  and  _15
REMARK   13  A    between atoms: _17  and  _37
REMARK   14  A    between atoms: _19  and  _25
REMARK   15  A    between atoms: _20  and  _24
REMARK   16  A    between atoms: _24  and  _25
REMARK   17  A    between atoms: _27  and  _28
REMARK   18  A    between atoms: _29  and  _30
REMARK   19  A    between atoms: _31  and  _33
REMARK   20  A    between atoms: _33  and  _34
REMARK   21  A    between atoms: _33  and  _35
REMARK   22  A    between atoms: _35  and  _36
REMARK   23  A    between atoms: _35  and  _37
REMARK   24  A    between atoms: _38  and  _40
REMARK                            x       y       z     vdW  Elec       q    Type
REMARK                         _______ _______ _______ _____ _____    ______ ____
ROOT
ATOM      1  C   UNL     1       6.249   2.536  32.649  0.00  0.00    +0.163 C 
ENDROOT
BRANCH   1   2
ATOM      2  O   UNL     1       5.743   3.209  31.485  0.00  0.00    -0.388 OA
ATOM      3  H   UNL     1       4.836   2.936  31.325  0.00  0.00    +0.210 HD
ENDBRANCH   1   2
BRANCH   1   4
ATOM      4  C   UNL     1       7.376   3.350  33.308  0.00  0.00    +0.175 C 
BRANCH   4   5
ATOM      5  C   UNL     1       6.968   3.892  34.685  0.00  0.00    +0.176 C 
ATOM      6  O   UNL     1       6.862   5.339  34.582  0.00  0.00    -0.332 OA
ATOM      7  C   UNL     1       6.376   6.026  35.783  0.00  0.00    +0.277 C 
ATOM      8  C   UNL     1       7.242   5.650  37.010  0.00  0.00    +0.110 C 
ATOM      9  C   UNL     1       7.409   4.122  37.142  0.00  0.00    +0.143 C 
ATOM     10  C   UNL     1       7.917   3.510  35.836  0.00  0.00    +0.133 C 
BRANCH  10  11
ATOM     11  N   UNL     1       7.989   2.045  35.948  0.00  0.00    -0.308 N 
ATOM     12  H   UNL     1       7.151   1.551  36.220  0.00  0.00    +0.149 HD
ATOM     13  C   UNL     1       9.090   1.325  35.713  0.00  0.00    +0.210 C 
ATOM     14  C   UNL     1      10.357   2.110  35.325  0.00  0.00    +0.109 C 
ATOM     15  O   UNL     1       9.117   0.097  35.799  0.00  0.00    -0.276 OA
ENDBRANCH  10  11
BRANCH   7  16
ATOM     16  C   UNL     1       4.902   5.663  36.061  0.00  0.00    +0.414 C 
ATOM     17  O   UNL     1       4.435   5.793  37.192  0.00  0.00    -0.240 OA
ATOM     18  O   UNL     1       4.182   5.241  35.156  0.00  0.00    -0.240 OA
ENDBRANCH   7  16
BRANCH   9  19
ATOM     19  O   UNL     1       8.334   3.828  38.190  0.00  0.00    -0.390 OA
ATOM     20  H   UNL     1       8.539   2.890  38.183  0.00  0.00    +0.210 HD
ENDBRANCH   9  19
BRANCH   7  21
ATOM     21  O   UNL     1       6.493   7.455  35.560  0.00  0.00    -0.343 OA
ATOM     22  C   UNL     1       7.132   7.830  34.314  0.00  0.00    +0.198 C 
ENDBRANCH   7  21
ENDBRANCH   4   5
BRANCH   4  23
ATOM     23  O   UNL     1       7.776   4.433  32.446  0.00  0.00    -0.387 OA
ATOM     24  H   UNL     1       8.061   4.081  31.599  0.00  0.00    +0.210 HD
ENDBRANCH   4  23
ENDBRANCH   1   4
BRANCH   1  25
ATOM     25  C   UNL     1       5.124   2.315  33.655  0.00  0.00    +0.141 C 
BRANCH  25  28
ATOM     26  C   UNL     1       2.956   1.613  32.700  0.00  0.00    +0.401 C 
ATOM     27  O   UNL     1       3.193   0.407  32.806  0.00  0.00    -0.226 OA
ATOM     28  N   UNL     1       3.805   2.575  33.066  0.00  0.00    -0.279 N 
ATOM     29  H   UNL     1       3.524   3.536  32.930  0.00  0.00    +0.152 HD
BRANCH  26  30
ATOM     30  O   UNL     1       1.704   2.029  32.149  0.00  0.00    -0.444 OA
BRANCH  30  31
ATOM     31  C   UNL     1       1.823   3.361  31.644  0.00  0.00    +0.292 C 
BRANCH  31  33
ATOM     32  N   UNL     1       0.463   4.123  29.715  0.00  0.00    -0.131 NA
ATOM     33  C   UNL     1       1.512   3.390  30.203  0.00  0.00    +0.120 A 
ATOM     34  C   UNL     1       2.139   2.753  29.156  0.00  0.00    +0.137 A 
ATOM     35  N   UNL     1       1.421   3.147  28.070  0.00  0.00    -0.251 N 
ATOM     36  N   UNL     1       0.415   3.960  28.399  0.00  0.00    -0.065 NA
BRANCH  35  37
ATOM     37  C   UNL     1       1.632   2.757  26.690  0.00  0.00    +0.150 C 
BRANCH  37  38
ATOM     38  C   UNL     1       1.368   3.890  25.708  0.00  0.00    +0.074 C 
BRANCH  38  39
ATOM     39  C   UNL     1       0.102   3.778  24.847  0.00  0.00    +0.134 C 
BRANCH  39  40
ATOM     40  N   UNL     1       0.254   3.235  23.387  0.00  0.00    +0.241 N 
ATOM     41  C   UNL     1       0.092   1.706  23.408  0.00  0.00    +0.192 C 
BRANCH  40  42
ATOM     42  C   UNL     1       1.719   3.572  22.951  0.00  0.00    +0.129 C 
ATOM     43  C   UNL     1       1.829   4.160  21.549  0.00  0.00    +0.060 C 
ENDBRANCH  40  42
BRANCH  40  44
ATOM     44  C   UNL     1      -0.739   3.829  22.370  0.00  0.00    +0.129 C 
ATOM     45  C   UNL     1      -1.729   4.814  22.968  0.00  0.00    +0.060 C 
ENDBRANCH  40  44
ENDBRANCH  39  40
ENDBRANCH  38  39
ENDBRANCH  37  38
ENDBRANCH  35  37
ENDBRANCH  31  33
ENDBRANCH  30  31
ENDBRANCH  26  30
ENDBRANCH  25  28
ENDBRANCH   1  25
TORSDOF 19
