REMARK VINA RESULT:    -6.259     14.729     17.382
REMARK INTER + INTRA:         -14.500
REMARK INTER:                 -10.252
REMARK INTRA:                  -4.248
REMARK UNBOUND:                -2.569
REMARK  Name = lig_assembled_18.pdb
REMARK  19 active torsions:
REMARK  status: ('A' for Active; 'I' for Inactive)
REMARK    1  A    between atoms: _2  and  _10
REMARK    2  A    between atoms: _3  and  _12
REMARK    3  A    between atoms: _5  and  _21
REMARK    4  A    between atoms: _7  and  _8
REMARK    5  A    between atoms: _7  and  _21
REMARK    6  A    between atoms: _10  and  _11
REMARK    7  A    between atoms: _12  and  _13
REMARK    8  A    between atoms: _17  and  _37
REMARK    9  A    between atoms: _19  and  _25
REMARK   10  A    between atoms: _20  and  _24
REMARK   11  A    between atoms: _24  and  _25
REMARK   12  A    between atoms: _27  and  _28
REMARK   13  A    between atoms: _29  and  _30
REMARK   14  A    between atoms: _31  and  _33
REMARK   15  A    between atoms: _33  and  _34
REMARK   16  A    between atoms: _33  and  _35
REMARK   17  A    between atoms: _35  and  _36
REMARK   18  A    between atoms: _35  and  _37
REMARK   19  A    between atoms: _38  and  _40
REMARK                            x       y       z     vdW  Elec       q    Type
REMARK                         _______ _______ _______ _____ _____    ______ ____
ROOT
ATOM      1  C   UNL     1      16.844   3.702  22.833  0.00  0.00    +0.163 C 
ENDROOT
BRANCH   1   2
ATOM      2  O   UNL     1      16.049   2.826  23.649  0.00  0.00    -0.388 OA
ATOM      3  H   UNL     1      16.315   2.915  24.568  0.00  0.00    +0.210 HD
ENDBRANCH   1   2
BRANCH   1   4
ATOM      4  C   UNL     1      18.268   3.838  23.397  0.00  0.00    +0.175 C 
BRANCH   4   5
ATOM      5  C   UNL     1      18.521   2.876  24.568  0.00  0.00    +0.176 C 
ATOM      6  O   UNL     1      18.059   3.523  25.785  0.00  0.00    -0.332 OA
ATOM      7  C   UNL     1      18.124   2.706  27.001  0.00  0.00    +0.277 C 
ATOM      8  C   UNL     1      19.558   2.159  27.209  0.00  0.00    +0.110 C 
ATOM      9  C   UNL     1      20.104   1.490  25.931  0.00  0.00    +0.143 C 
ATOM     10  C   UNL     1      19.985   2.426  24.728  0.00  0.00    +0.133 C 
BRANCH  10  11
ATOM     11  N   UNL     1      20.428   1.747  23.500  0.00  0.00    -0.308 N 
ATOM     12  H   UNL     1      19.872   0.973  23.163  0.00  0.00    +0.149 HD
ATOM     13  C   UNL     1      21.515   2.086  22.802  0.00  0.00    +0.210 C 
ATOM     14  C   UNL     1      22.354   3.253  23.356  0.00  0.00    +0.109 C 
ATOM     15  O   UNL     1      21.853   1.508  21.769  0.00  0.00    -0.276 OA
ENDBRANCH  10  11
BRANCH   7  16
ATOM     16  C   UNL     1      17.130   1.529  26.922  0.00  0.00    +0.414 C 
ATOM     17  O   UNL     1      17.456   0.413  27.326  0.00  0.00    -0.240 OA
ATOM     18  O   UNL     1      16.002   1.694  26.455  0.00  0.00    -0.240 OA
ENDBRANCH   7  16
BRANCH   7  19
ATOM     19  O   UNL     1      17.789   3.553  28.130  0.00  0.00    -0.343 OA
ATOM     20  C   UNL     1      18.587   4.758  28.249  0.00  0.00    +0.198 C 
ENDBRANCH   7  19
BRANCH   9  21
ATOM     21  O   UNL     1      21.475   1.137  26.119  0.00  0.00    -0.390 OA
ATOM     22  H   UNL     1      21.964   1.310  25.312  0.00  0.00    +0.210 HD
ENDBRANCH   9  21
ENDBRANCH   4   5
BRANCH   4  23
ATOM     23  O   UNL     1      18.512   5.197  23.810  0.00  0.00    -0.387 OA
ATOM     24  H   UNL     1      18.311   5.289  24.745  0.00  0.00    +0.210 HD
ENDBRANCH   4  23
ENDBRANCH   1   4
BRANCH   1  25
ATOM     25  C   UNL     1      16.909   3.169  21.406  0.00  0.00    +0.141 C 
BRANCH  25  28
ATOM     26  C   UNL     1      18.167   1.154  20.723  0.00  0.00    +0.401 C 
ATOM     27  O   UNL     1      19.005   1.783  20.072  0.00  0.00    -0.226 OA
ATOM     28  N   UNL     1      17.150   1.721  21.373  0.00  0.00    -0.279 N 
ATOM     29  H   UNL     1      16.508   1.120  21.872  0.00  0.00    +0.152 HD
BRANCH  26  30
ATOM     30  O   UNL     1      18.269  -0.270  20.795  0.00  0.00    -0.444 OA
BRANCH  30  31
ATOM     31  C   UNL     1      18.806  -0.647  22.066  0.00  0.00    +0.292 C 
BRANCH  31  33
ATOM     32  N   UNL     1      17.039  -0.419  23.789  0.00  0.00    -0.131 NA
ATOM     33  C   UNL     1      17.747  -1.211  22.925  0.00  0.00    +0.120 A 
ATOM     34  C   UNL     1      17.295  -2.505  23.029  0.00  0.00    +0.137 A 
ATOM     35  N   UNL     1      16.292  -2.434  23.951  0.00  0.00    -0.242 N 
ATOM     36  N   UNL     1      16.156  -1.180  24.423  0.00  0.00    -0.065 NA
BRANCH  35  37
ATOM     37  C   UNL     1      15.511  -3.507  24.520  0.00  0.00    +0.240 C 
BRANCH  37  38
ATOM     38  C   UNL     1      15.609  -3.550  26.027  0.00  0.00    +0.235 C 
ATOM     39  O   UNL     1      14.642  -3.820  26.737  0.00  0.00    -0.274 OA
ATOM     40  N   UNL     1      16.869  -3.321  26.541  0.00  0.00    -0.309 N 
ATOM     41  H   UNL     1      17.597  -2.942  25.952  0.00  0.00    +0.149 HD
BRANCH  40  42
ATOM     42  C   UNL     1      17.119  -3.346  27.967  0.00  0.00    +0.146 C 
BRANCH  42  43
ATOM     43  C   UNL     1      18.387  -2.613  28.268  0.00  0.00    +0.007 A 
ATOM     44  S   UNL     1      19.597  -2.429  27.068  0.00  0.00    -0.100 S 
ATOM     45  C   UNL     1      20.638  -1.612  28.151  0.00  0.00    +0.045 A 
ATOM     46  C   UNL     1      20.075  -1.464  29.400  0.00  0.00    +0.008 A 
ATOM     47  C   UNL     1      18.771  -2.035  29.464  0.00  0.00    +0.013 A 
ENDBRANCH  42  43
ENDBRANCH  40  42
ENDBRANCH  37  38
ENDBRANCH  35  37
ENDBRANCH  31  33
ENDBRANCH  30  31
ENDBRANCH  26  30
ENDBRANCH  25  28
ENDBRANCH   1  25
TORSDOF 17
