REMARK VINA RESULT:    -5.201      9.990     14.327
REMARK INTER + INTRA:         -13.459
REMARK INTER:                 -11.916
REMARK INTRA:                  -1.543
REMARK UNBOUND:                -3.545
REMARK  Name = lig_assembled_55.pdb
REMARK  20 active torsions:
REMARK  status: ('A' for Active; 'I' for Inactive)
REMARK    1  A    between atoms: _2  and  _10
REMARK    2  A    between atoms: _3  and  _11
REMARK    3  A    between atoms: _3  and  _38
REMARK    4  A    between atoms: _5  and  _18
REMARK    5  A    between atoms: _6  and  _38
REMARK    6  A    between atoms: _7  and  _8
REMARK    7  A    between atoms: _7  and  _18
REMARK    8  A    between atoms: _10  and  _11
REMARK    9  A    between atoms: _14  and  _34
REMARK   10  A    between atoms: _16  and  _22
REMARK   11  A    between atoms: _17  and  _21
REMARK   12  A    between atoms: _21  and  _22
REMARK   13  A    between atoms: _24  and  _25
REMARK   14  A    between atoms: _26  and  _27
REMARK   15  A    between atoms: _28  and  _30
REMARK   16  A    between atoms: _30  and  _31
REMARK   17  A    between atoms: _30  and  _32
REMARK   18  A    between atoms: _32  and  _33
REMARK   19  A    between atoms: _32  and  _34
REMARK   20  A    between atoms: _35  and  _37
REMARK                            x       y       z     vdW  Elec       q    Type
REMARK                         _______ _______ _______ _____ _____    ______ ____
ROOT
ATOM      1  C   UNL     1      18.786   2.342  24.652  0.00  0.00    +0.163 C 
ENDROOT
BRANCH   1   2
ATOM      2  O   UNL     1      19.225   2.512  26.010  0.00  0.00    -0.388 OA
ATOM      3  H   UNL     1      18.550   2.184  26.609  0.00  0.00    +0.210 HD
ENDBRANCH   1   2
BRANCH   1   4
ATOM      4  C   UNL     1      17.327   1.855  24.603  0.00  0.00    +0.175 C 
BRANCH   4   5
ATOM      5  C   UNL     1      17.229   0.355  24.289  0.00  0.00    +0.176 C 
ATOM      6  O   UNL     1      17.533  -0.378  25.507  0.00  0.00    -0.332 OA
ATOM      7  C   UNL     1      17.384  -1.834  25.425  0.00  0.00    +0.277 C 
ATOM      8  C   UNL     1      18.223  -2.398  24.252  0.00  0.00    +0.110 C 
ATOM      9  C   UNL     1      17.957  -1.629  22.940  0.00  0.00    +0.143 C 
ATOM     10  C   UNL     1      18.137  -0.124  23.141  0.00  0.00    +0.133 C 
BRANCH  10  11
ATOM     11  N   UNL     1      17.797   0.605  21.909  0.00  0.00    -0.308 N 
ATOM     12  H   UNL     1      16.822   0.663  21.649  0.00  0.00    +0.149 HD
ATOM     13  C   UNL     1      18.691   1.194  21.111  0.00  0.00    +0.210 C 
ATOM     14  C   UNL     1      20.171   1.066  21.521  0.00  0.00    +0.109 C 
ATOM     15  O   UNL     1      18.376   1.810  20.093  0.00  0.00    -0.276 OA
ENDBRANCH  10  11
BRANCH   7  16
ATOM     16  C   UNL     1      15.903  -2.223  25.234  0.00  0.00    +0.414 C 
ATOM     17  O   UNL     1      15.297  -2.813  26.127  0.00  0.00    -0.240 OA
ATOM     18  O   UNL     1      15.316  -1.947  24.187  0.00  0.00    -0.240 OA
ENDBRANCH   7  16
BRANCH   7  19
ATOM     19  O   UNL     1      17.884  -2.407  26.661  0.00  0.00    -0.343 OA
ATOM     20  C   UNL     1      18.882  -3.446  26.495  0.00  0.00    +0.198 C 
ENDBRANCH   7  19
BRANCH   9  21
ATOM     21  O   UNL     1      18.857  -2.079  21.927  0.00  0.00    -0.390 OA
ATOM     22  H   UNL     1      19.588  -1.462  21.850  0.00  0.00    +0.210 HD
ENDBRANCH   9  21
ENDBRANCH   4   5
BRANCH   4  23
ATOM     23  O   UNL     1      16.582   2.616  23.632  0.00  0.00    -0.387 OA
ATOM     24  H   UNL     1      15.935   3.164  24.082  0.00  0.00    +0.210 HD
ENDBRANCH   4  23
ENDBRANCH   1   4
BRANCH   1  25
ATOM     25  C   UNL     1      18.909   3.660  23.895  0.00  0.00    +0.141 C 
BRANCH  25  28
ATOM     26  C   UNL     1      18.363   6.035  24.303  0.00  0.00    +0.401 C 
ATOM     27  O   UNL     1      18.296   6.323  23.106  0.00  0.00    -0.226 OA
ATOM     28  N   UNL     1      18.650   4.816  24.762  0.00  0.00    -0.279 N 
ATOM     29  H   UNL     1      18.691   4.680  25.762  0.00  0.00    +0.152 HD
BRANCH  26  30
ATOM     30  O   UNL     1      18.126   7.055  25.277  0.00  0.00    -0.444 OA
BRANCH  30  31
ATOM     31  C   UNL     1      19.358   7.400  25.916  0.00  0.00    +0.292 C 
BRANCH  31  33
ATOM     32  N   UNL     1      19.032   5.955  27.896  0.00  0.00    -0.131 NA
ATOM     33  C   UNL     1      19.256   7.202  27.373  0.00  0.00    +0.120 A 
ATOM     34  C   UNL     1      19.348   8.111  28.404  0.00  0.00    +0.137 A 
ATOM     35  N   UNL     1      19.153   7.361  29.524  0.00  0.00    -0.250 N 
ATOM     36  N   UNL     1      18.966   6.065  29.214  0.00  0.00    -0.065 NA
BRANCH  35  37
ATOM     37  C   UNL     1      19.158   7.794  30.905  0.00  0.00    +0.162 C 
BRANCH  37  38
ATOM     38  C   UNL     1      18.078   7.132  31.766  0.00  0.00    +0.129 C 
BRANCH  38  39
ATOM     39  N   UNL     1      16.722   7.731  31.593  0.00  0.00    -0.193 NA
ATOM     40  H   UNL     1      16.246   7.317  30.782  0.00  0.00    +0.148 HD
BRANCH  39  41
ATOM     41  S   UNL     1      15.750   7.783  32.968  0.00  0.00    +0.027 S 
ATOM     42  O   UNL     1      14.875   8.924  32.816  0.00  0.00    -0.158 OA
ATOM     43  O   UNL     1      15.223   6.454  33.181  0.00  0.00    -0.158 OA
ATOM     44  C   UNL     1      16.942   8.157  34.233  0.00  0.00    +0.214 C 
ENDBRANCH  39  41
ENDBRANCH  38  39
ENDBRANCH  37  38
ENDBRANCH  35  37
ENDBRANCH  31  33
ENDBRANCH  30  31
ENDBRANCH  26  30
ENDBRANCH  25  28
ENDBRANCH   1  25
TORSDOF 17
