REMARK VINA RESULT:    -6.202     14.981     19.136
REMARK INTER + INTRA:         -13.152
REMARK INTER:                 -10.922
REMARK INTRA:                  -2.230
REMARK UNBOUND:                -1.873
REMARK  Name = lig_assembled_60.pdb
REMARK  18 active torsions:
REMARK  status: ('A' for Active; 'I' for Inactive)
REMARK    1  A    between atoms: _2  and  _10
REMARK    2  A    between atoms: _3  and  _41
REMARK    3  A    between atoms: _5  and  _21
REMARK    4  A    between atoms: _7  and  _8
REMARK    5  A    between atoms: _7  and  _21
REMARK    6  A    between atoms: _13  and  _41
REMARK    7  A    between atoms: _17  and  _37
REMARK    8  A    between atoms: _19  and  _25
REMARK    9  A    between atoms: _20  and  _24
REMARK   10  A    between atoms: _24  and  _25
REMARK   11  A    between atoms: _27  and  _28
REMARK   12  A    between atoms: _29  and  _30
REMARK   13  A    between atoms: _31  and  _33
REMARK   14  A    between atoms: _33  and  _34
REMARK   15  A    between atoms: _33  and  _35
REMARK   16  A    between atoms: _35  and  _36
REMARK   17  A    between atoms: _35  and  _37
REMARK   18  A    between atoms: _38  and  _40
REMARK                            x       y       z     vdW  Elec       q    Type
REMARK                         _______ _______ _______ _____ _____    ______ ____
ROOT
ATOM      1  C   UNL     1      21.627   1.891  23.497  0.00  0.00    +0.141 C 
ENDROOT
BRANCH   1   4
ATOM      2  C   UNL     1      20.780   4.099  24.214  0.00  0.00    +0.401 C 
ATOM      3  O   UNL     1      19.957   3.632  25.004  0.00  0.00    -0.226 OA
ATOM      4  N   UNL     1      21.598   3.359  23.464  0.00  0.00    -0.279 N 
ATOM      5  H   UNL     1      22.233   3.834  22.838  0.00  0.00    +0.152 HD
BRANCH   2   6
ATOM      6  O   UNL     1      20.879   5.518  24.073  0.00  0.00    -0.444 OA
BRANCH   6   7
ATOM      7  C   UNL     1      19.603   6.114  24.322  0.00  0.00    +0.292 C 
BRANCH   7   9
ATOM      8  N   UNL     1      20.539   8.146  25.382  0.00  0.00    -0.131 NA
ATOM      9  C   UNL     1      19.694   7.076  25.436  0.00  0.00    +0.121 A 
ATOM     10  C   UNL     1      19.011   7.103  26.630  0.00  0.00    +0.143 A 
ATOM     11  N   UNL     1      19.450   8.243  27.265  0.00  0.00    -0.220 N 
ATOM     12  N   UNL     1      20.392   8.845  26.499  0.00  0.00    -0.060 NA
BRANCH  11  13
ATOM     13  C   UNL     1      19.009   8.796  28.496  0.00  0.00    +0.067 A 
ATOM     14  C   UNL     1      18.836   7.979  29.624  0.00  0.00    +0.030 A 
ATOM     15  C   UNL     1      18.335   8.521  30.810  0.00  0.00    +0.030 A 
ATOM     16  C   UNL     1      18.022   9.881  30.874  0.00  0.00    +0.105 A 
ATOM     17  C   UNL     1      18.206  10.707  29.761  0.00  0.00    +0.030 A 
ATOM     18  C   UNL     1      18.706  10.165  28.574  0.00  0.00    +0.030 A 
BRANCH  16  19
ATOM     19  S   UNL     1      17.315  10.537  32.357  0.00  0.00    +0.056 S 
ATOM     20  O   UNL     1      15.925  10.851  32.124  0.00  0.00    -0.153 OA
ATOM     21  O   UNL     1      17.755   9.743  33.481  0.00  0.00    -0.153 OA
BRANCH  19  22
ATOM     22  N   UNL     1      18.108  12.009  32.489  0.00  0.00    -0.204 NA
ATOM     23  H   UNL     1      18.136  12.470  31.580  0.00  0.00    +0.144 HD
ATOM     24  H   UNL     1      19.028  11.868  32.909  0.00  0.00    +0.144 HD
ENDBRANCH  19  22
ENDBRANCH  16  19
ENDBRANCH  11  13
ENDBRANCH   7   9
ENDBRANCH   6   7
ENDBRANCH   2   6
ENDBRANCH   1   4
BRANCH   1  25
ATOM     25  C   UNL     1      21.280   1.285  22.142  0.00  0.00    +0.163 C 
BRANCH  25  26
ATOM     26  O   UNL     1      21.843  -0.033  22.034  0.00  0.00    -0.388 OA
ATOM     27  H   UNL     1      22.748  -0.023  22.354  0.00  0.00    +0.210 HD
ENDBRANCH  25  26
BRANCH  25  28
ATOM     28  C   UNL     1      19.752   1.246  21.972  0.00  0.00    +0.175 C 
BRANCH  28  29
ATOM     29  C   UNL     1      19.037   0.831  23.266  0.00  0.00    +0.176 C 
ATOM     30  O   UNL     1      19.094  -0.619  23.363  0.00  0.00    -0.332 OA
ATOM     31  C   UNL     1      18.549  -1.193  24.597  0.00  0.00    +0.277 C 
ATOM     32  C   UNL     1      17.096  -0.710  24.823  0.00  0.00    +0.110 C 
ATOM     33  C   UNL     1      16.979   0.823  24.698  0.00  0.00    +0.143 C 
ATOM     34  C   UNL     1      17.579   1.313  23.380  0.00  0.00    +0.133 C 
BRANCH  34  35
ATOM     35  N   UNL     1      17.540   2.783  23.311  0.00  0.00    -0.308 N 
ATOM     36  H   UNL     1      17.932   3.302  24.084  0.00  0.00    +0.149 HD
ATOM     37  C   UNL     1      17.022   3.475  22.293  0.00  0.00    +0.210 C 
ATOM     38  C   UNL     1      16.411   2.655  21.141  0.00  0.00    +0.109 C 
ATOM     39  O   UNL     1      17.017   4.706  22.255  0.00  0.00    -0.276 OA
ENDBRANCH  34  35
BRANCH  31  40
ATOM     40  C   UNL     1      19.417  -0.803  25.812  0.00  0.00    +0.414 C 
ATOM     41  O   UNL     1      20.644  -0.858  25.740  0.00  0.00    -0.240 OA
ATOM     42  O   UNL     1      18.891  -0.433  26.862  0.00  0.00    -0.240 OA
ENDBRANCH  31  40
BRANCH  33  43
ATOM     43  O   UNL     1      15.606   1.209  24.763  0.00  0.00    -0.390 OA
ATOM     44  H   UNL     1      15.499   2.081  24.376  0.00  0.00    +0.210 HD
ENDBRANCH  33  43
BRANCH  31  45
ATOM     45  O   UNL     1      18.534  -2.637  24.451  0.00  0.00    -0.343 OA
ATOM     46  C   UNL     1      18.066  -3.365  25.615  0.00  0.00    +0.198 C 
ENDBRANCH  31  45
ENDBRANCH  28  29
BRANCH  28  47
ATOM     47  O   UNL     1      19.394   0.353  20.898  0.00  0.00    -0.387 OA
ATOM     48  H   UNL     1      20.063   0.394  20.211  0.00  0.00    +0.210 HD
ENDBRANCH  28  47
ENDBRANCH  25  28
ENDBRANCH   1  25
TORSDOF 16
