REMARK VINA RESULT:    -5.929      1.966      3.603
REMARK INTER + INTRA:         -14.477
REMARK INTER:                 -11.628
REMARK INTRA:                  -2.848
REMARK UNBOUND:                -3.868
REMARK  Name = lig_assembled_85.pdb
REMARK  19 active torsions:
REMARK  status: ('A' for Active; 'I' for Inactive)
REMARK    1  A    between atoms: _2  and  _10
REMARK    2  A    between atoms: _3  and  _6
REMARK    3  A    between atoms: _3  and  _17
REMARK    4  A    between atoms: _5  and  _23
REMARK    5  A    between atoms: _7  and  _8
REMARK    6  A    between atoms: _7  and  _23
REMARK    7  A    between atoms: _15  and  _16
REMARK    8  A    between atoms: _19  and  _39
REMARK    9  A    between atoms: _21  and  _27
REMARK   10  A    between atoms: _22  and  _26
REMARK   11  A    between atoms: _26  and  _27
REMARK   12  A    between atoms: _29  and  _30
REMARK   13  A    between atoms: _31  and  _32
REMARK   14  A    between atoms: _33  and  _35
REMARK   15  A    between atoms: _35  and  _36
REMARK   16  A    between atoms: _35  and  _37
REMARK   17  A    between atoms: _37  and  _38
REMARK   18  A    between atoms: _37  and  _39
REMARK   19  A    between atoms: _40  and  _42
REMARK                            x       y       z     vdW  Elec       q    Type
REMARK                         _______ _______ _______ _____ _____    ______ ____
ROOT
ATOM      1  C   UNL     1      16.802   3.249  21.774  0.00  0.00    +0.141 C 
ENDROOT
BRANCH   1   4
ATOM      2  C   UNL     1      17.953   1.258  20.871  0.00  0.00    +0.401 C 
ATOM      3  O   UNL     1      18.310   1.819  19.833  0.00  0.00    -0.226 OA
ATOM      4  N   UNL     1      17.240   1.849  21.830  0.00  0.00    -0.279 N 
ATOM      5  H   UNL     1      16.987   1.302  22.642  0.00  0.00    +0.152 HD
BRANCH   2   6
ATOM      6  O   UNL     1      18.311  -0.111  21.079  0.00  0.00    -0.444 OA
BRANCH   6   7
ATOM      7  C   UNL     1      18.571  -0.331  22.468  0.00  0.00    +0.292 C 
BRANCH   7   9
ATOM      8  N   UNL     1      18.770  -2.782  22.689  0.00  0.00    -0.131 NA
ATOM      9  C   UNL     1      18.043  -1.642  22.884  0.00  0.00    +0.121 A 
ATOM     10  C   UNL     1      16.871  -1.955  23.534  0.00  0.00    +0.143 A 
ATOM     11  N   UNL     1      16.930  -3.313  23.722  0.00  0.00    -0.219 N 
ATOM     12  N   UNL     1      18.097  -3.789  23.227  0.00  0.00    -0.060 NA
BRANCH  11  13
ATOM     13  C   UNL     1      16.034  -4.168  24.402  0.00  0.00    +0.080 A 
ATOM     14  C   UNL     1      15.895  -4.215  25.798  0.00  0.00    +0.062 A 
ATOM     15  C   UNL     1      15.151  -5.285  26.348  0.00  0.00    +0.016 A 
ATOM     16  C   UNL     1      14.546  -6.256  25.543  0.00  0.00    +0.021 A 
ATOM     17  C   UNL     1      14.634  -6.150  24.163  0.00  0.00    +0.043 A 
ATOM     18 CL   UNL     1      13.927  -7.354  23.160  0.00  0.00    -0.083 Cl
ATOM     19  C   UNL     1      15.348  -5.101  23.591  0.00  0.00    +0.048 A 
BRANCH  14  20
ATOM     20  C   UNL     1      16.501  -3.316  26.825  0.00  0.00    +0.248 C 
ATOM     21  O   UNL     1      15.819  -2.332  27.125  0.00  0.00    -0.270 OA
ATOM     22  N   UNL     1      17.772  -3.508  27.377  0.00  0.00    -0.304 N 
ATOM     23  C   UNL     1      18.643  -4.667  27.233  0.00  0.00    +0.132 C 
ATOM     24  C   UNL     1      18.207  -2.522  28.361  0.00  0.00    +0.132 C 
ENDBRANCH  14  20
ENDBRANCH  11  13
ENDBRANCH   7   9
ENDBRANCH   6   7
ENDBRANCH   2   6
ENDBRANCH   1   4
BRANCH   1  25
ATOM     25  C   UNL     1      17.728   4.167  22.565  0.00  0.00    +0.163 C 
BRANCH  25  26
ATOM     26  O   UNL     1      17.022   5.353  22.963  0.00  0.00    -0.388 OA
ATOM     27  H   UNL     1      16.436   5.630  22.254  0.00  0.00    +0.210 HD
ENDBRANCH  25  26
BRANCH  25  28
ATOM     28  C   UNL     1      18.273   3.414  23.791  0.00  0.00    +0.175 C 
BRANCH  28  29
ATOM     29  C   UNL     1      18.328   4.307  25.039  0.00  0.00    +0.176 C 
ATOM     30  O   UNL     1      19.576   5.052  25.003  0.00  0.00    -0.332 OA
ATOM     31  C   UNL     1      19.755   6.041  26.069  0.00  0.00    +0.277 C 
ATOM     32  C   UNL     1      19.583   5.377  27.458  0.00  0.00    +0.110 C 
ATOM     33  C   UNL     1      18.284   4.547  27.535  0.00  0.00    +0.143 C 
ATOM     34  C   UNL     1      18.199   3.553  26.376  0.00  0.00    +0.133 C 
BRANCH  34  35
ATOM     35  N   UNL     1      16.918   2.829  26.411  0.00  0.00    -0.308 N 
ATOM     36  H   UNL     1      16.068   3.375  26.411  0.00  0.00    +0.149 HD
ATOM     37  C   UNL     1      16.806   1.499  26.444  0.00  0.00    +0.210 C 
ATOM     38  C   UNL     1      18.121   0.696  26.470  0.00  0.00    +0.109 C 
ATOM     39  O   UNL     1      15.719   0.919  26.458  0.00  0.00    -0.276 OA
ENDBRANCH  34  35
BRANCH  31  40
ATOM     40  C   UNL     1      18.743   7.196  25.920  0.00  0.00    +0.414 C 
ATOM     41  O   UNL     1      17.957   7.213  24.974  0.00  0.00    -0.240 OA
ATOM     42  O   UNL     1      18.712   8.109  26.746  0.00  0.00    -0.240 OA
ENDBRANCH  31  40
BRANCH  33  43
ATOM     43  O   UNL     1      18.241   3.834  28.771  0.00  0.00    -0.390 OA
ATOM     44  H   UNL     1      17.613   4.256  29.363  0.00  0.00    +0.210 HD
ENDBRANCH  33  43
BRANCH  31  45
ATOM     45  O   UNL     1      21.107   6.562  25.976  0.00  0.00    -0.343 OA
ATOM     46  C   UNL     1      21.487   7.045  24.663  0.00  0.00    +0.198 C 
ENDBRANCH  31  45
ENDBRANCH  28  29
BRANCH  28  47
ATOM     47  O   UNL     1      19.582   2.880  23.504  0.00  0.00    -0.387 OA
ATOM     48  H   UNL     1      19.956   3.339  22.749  0.00  0.00    +0.210 HD
ENDBRANCH  28  47
ENDBRANCH  25  28
ENDBRANCH   1  25
TORSDOF 15
