REMARK VINA RESULT:    -5.546      7.023      9.908
REMARK INTER + INTRA:         -12.562
REMARK INTER:                 -10.106
REMARK INTRA:                  -2.457
REMARK UNBOUND:                -1.667
REMARK  Name = lig_assembled_43.pdb
REMARK  20 active torsions:
REMARK  status: ('A' for Active; 'I' for Inactive)
REMARK    1  A    between atoms: _2  and  _9
REMARK    2  A    between atoms: _4  and  _18
REMARK    3  A    between atoms: _6  and  _7
REMARK    4  A    between atoms: _6  and  _18
REMARK    5  A    between atoms: _9  and  _10
REMARK    6  A    between atoms: _10  and  _11
REMARK    7  A    between atoms: _11  and  _12
REMARK    8  A    between atoms: _12  and  _13
REMARK    9  A    between atoms: _14  and  _34
REMARK   10  A    between atoms: _16  and  _22
REMARK   11  A    between atoms: _17  and  _21
REMARK   12  A    between atoms: _21  and  _22
REMARK   13  A    between atoms: _24  and  _25
REMARK   14  A    between atoms: _26  and  _27
REMARK   15  A    between atoms: _28  and  _30
REMARK   16  A    between atoms: _30  and  _31
REMARK   17  A    between atoms: _30  and  _32
REMARK   18  A    between atoms: _32  and  _33
REMARK   19  A    between atoms: _32  and  _34
REMARK   20  A    between atoms: _35  and  _37
REMARK                            x       y       z     vdW  Elec       q    Type
REMARK                         _______ _______ _______ _____ _____    ______ ____
ROOT
ATOM      1  C   UNL     1       3.123  -1.318  25.001  0.00  0.00    +0.163 C 
ENDROOT
BRANCH   1   2
ATOM      2  O   UNL     1       4.239  -1.002  24.152  0.00  0.00    -0.388 OA
ATOM      3  H   UNL     1       5.058  -1.175  24.622  0.00  0.00    +0.210 HD
ENDBRANCH   1   2
BRANCH   1   4
ATOM      4  C   UNL     1       3.524  -1.250  26.485  0.00  0.00    +0.175 C 
BRANCH   4   5
ATOM      5  C   UNL     1       4.912  -1.856  26.737  0.00  0.00    +0.176 C 
ATOM      6  O   UNL     1       5.059  -3.014  25.870  0.00  0.00    -0.332 OA
ATOM      7  C   UNL     1       6.373  -3.664  25.897  0.00  0.00    +0.277 C 
ATOM      8  C   UNL     1       6.759  -4.044  27.347  0.00  0.00    +0.110 C 
ATOM      9  C   UNL     1       6.588  -2.852  28.313  0.00  0.00    +0.143 C 
ATOM     10  C   UNL     1       5.187  -2.250  28.200  0.00  0.00    +0.133 C 
BRANCH  10  11
ATOM     11  N   UNL     1       5.066  -1.063  29.060  0.00  0.00    -0.308 N 
ATOM     12  H   UNL     1       5.575  -0.233  28.793  0.00  0.00    +0.149 HD
ATOM     13  C   UNL     1       4.326  -1.011  30.171  0.00  0.00    +0.210 C 
ATOM     14  C   UNL     1       3.583  -2.301  30.566  0.00  0.00    +0.109 C 
ATOM     15  O   UNL     1       4.231   0.002  30.865  0.00  0.00    -0.276 OA
ENDBRANCH  10  11
BRANCH   7  16
ATOM     16  C   UNL     1       7.454  -2.738  25.301  0.00  0.00    +0.414 C 
ATOM     17  O   UNL     1       8.594  -2.739  25.763  0.00  0.00    -0.240 OA
ATOM     18  O   UNL     1       7.185  -1.990  24.360  0.00  0.00    -0.240 OA
ENDBRANCH   7  16
BRANCH   9  19
ATOM     19  O   UNL     1       6.808  -3.285  29.656  0.00  0.00    -0.390 OA
ATOM     20  H   UNL     1       7.123  -2.547  30.183  0.00  0.00    +0.210 HD
ENDBRANCH   9  19
BRANCH   7  21
ATOM     21  O   UNL     1       6.287  -4.882  25.112  0.00  0.00    -0.343 OA
ATOM     22  C   UNL     1       5.118  -4.980  24.260  0.00  0.00    +0.198 C 
ENDBRANCH   7  21
ENDBRANCH   4   5
BRANCH   4  23
ATOM     23  O   UNL     1       2.537  -1.915  27.297  0.00  0.00    -0.387 OA
ATOM     24  H   UNL     1       2.618  -2.866  27.186  0.00  0.00    +0.210 HD
ENDBRANCH   4  23
ENDBRANCH   1   4
BRANCH   1  25
ATOM     25  C   UNL     1       1.976  -0.348  24.738  0.00  0.00    +0.141 C 
BRANCH  25  28
ATOM     26  C   UNL     1       0.699   1.171  26.209  0.00  0.00    +0.401 C 
ATOM     27  O   UNL     1      -0.397   0.857  25.739  0.00  0.00    -0.226 OA
ATOM     28  N   UNL     1       1.860   0.662  25.796  0.00  0.00    -0.279 N 
ATOM     29  H   UNL     1       2.708   0.990  26.237  0.00  0.00    +0.152 HD
BRANCH  26  30
ATOM     30  O   UNL     1       0.752   2.142  27.258  0.00  0.00    -0.444 OA
BRANCH  30  31
ATOM     31  C   UNL     1       1.751   3.119  26.954  0.00  0.00    +0.292 C 
BRANCH  31  33
ATOM     32  N   UNL     1       0.243   4.790  25.922  0.00  0.00    -0.131 NA
ATOM     33  C   UNL     1       1.323   3.953  25.816  0.00  0.00    +0.120 A 
ATOM     34  C   UNL     1       1.850   4.057  24.548  0.00  0.00    +0.137 A 
ATOM     35  N   UNL     1       1.042   4.966  23.933  0.00  0.00    -0.251 N 
ATOM     36  N   UNL     1       0.080   5.406  24.759  0.00  0.00    -0.065 NA
BRANCH  35  37
ATOM     37  C   UNL     1       1.105   5.435  22.565  0.00  0.00    +0.145 C 
BRANCH  37  38
ATOM     38  C   UNL     1       1.881   4.466  21.677  0.00  0.00    +0.024 C 
BRANCH  38  39
ATOM     39  C   UNL     1       1.127   4.139  20.387  0.00  0.00    +0.006 C 
BRANCH  39  40
ATOM     40  C   UNL     1       2.077   3.537  19.348  0.00  0.00    +0.026 C 
BRANCH  40  41
ATOM     41  C   UNL     1       2.004   2.039  19.321  0.00  0.00    -0.034 C 
ATOM     42  C   UNL     1       0.945   1.336  19.744  0.00  0.00    +0.004 C 
ENDBRANCH  40  41
ENDBRANCH  39  40
ENDBRANCH  38  39
ENDBRANCH  37  38
ENDBRANCH  35  37
ENDBRANCH  31  33
ENDBRANCH  30  31
ENDBRANCH  26  30
ENDBRANCH  25  28
ENDBRANCH   1  25
TORSDOF 18
