REMARK VINA RESULT:    -6.230      1.312      1.696
REMARK INTER + INTRA:         -13.312
REMARK INTER:                 -11.345
REMARK INTRA:                  -1.967
REMARK UNBOUND:                -1.802
REMARK  Name = lig_assembled_36.pdb
REMARK  18 active torsions:
REMARK  status: ('A' for Active; 'I' for Inactive)
REMARK    1  A    between atoms: _2  and  _10
REMARK    2  A    between atoms: _5  and  _21
REMARK    3  A    between atoms: _7  and  _8
REMARK    4  A    between atoms: _7  and  _21
REMARK    5  A    between atoms: _10  and  _11
REMARK    6  A    between atoms: _14  and  _15
REMARK    7  A    between atoms: _17  and  _37
REMARK    8  A    between atoms: _19  and  _25
REMARK    9  A    between atoms: _20  and  _24
REMARK   10  A    between atoms: _24  and  _25
REMARK   11  A    between atoms: _27  and  _28
REMARK   12  A    between atoms: _29  and  _30
REMARK   13  A    between atoms: _31  and  _33
REMARK   14  A    between atoms: _33  and  _34
REMARK   15  A    between atoms: _33  and  _35
REMARK   16  A    between atoms: _35  and  _36
REMARK   17  A    between atoms: _35  and  _37
REMARK   18  A    between atoms: _38  and  _40
REMARK                            x       y       z     vdW  Elec       q    Type
REMARK                         _______ _______ _______ _____ _____    ______ ____
ROOT
ATOM      1  C   UNL     1      18.554  10.757  29.057  0.00  0.00    +0.163 C 
ENDROOT
BRANCH   1   2
ATOM      2  O   UNL     1      17.221  11.051  29.505  0.00  0.00    -0.388 OA
ATOM      3  H   UNL     1      16.589  10.548  28.985  0.00  0.00    +0.210 HD
ENDBRANCH   1   2
BRANCH   1   4
ATOM      4  C   UNL     1      19.152   9.578  29.844  0.00  0.00    +0.175 C 
BRANCH   4   5
ATOM      5  C   UNL     1      18.205   9.078  30.944  0.00  0.00    +0.176 C 
ATOM      6  O   UNL     1      18.350   9.958  32.093  0.00  0.00    -0.332 OA
ATOM      7  C   UNL     1      17.440   9.695  33.212  0.00  0.00    +0.277 C 
ATOM      8  C   UNL     1      17.551   8.219  33.666  0.00  0.00    +0.110 C 
ATOM      9  C   UNL     1      17.434   7.246  32.473  0.00  0.00    +0.143 C 
ATOM     10  C   UNL     1      18.424   7.613  31.367  0.00  0.00    +0.133 C 
BRANCH  10  11
ATOM     11  N   UNL     1      18.243   6.734  30.201  0.00  0.00    -0.308 N 
ATOM     12  H   UNL     1      17.338   6.725  29.753  0.00  0.00    +0.149 HD
ATOM     13  C   UNL     1      19.197   5.947  29.697  0.00  0.00    +0.210 C 
ATOM     14  C   UNL     1      20.558   5.964  30.418  0.00  0.00    +0.109 C 
ATOM     15  O   UNL     1      19.022   5.231  28.710  0.00  0.00    -0.276 OA
ENDBRANCH  10  11
BRANCH   7  16
ATOM     16  C   UNL     1      15.981  10.004  32.814  0.00  0.00    +0.414 C 
ATOM     17  O   UNL     1      15.717  11.012  32.160  0.00  0.00    -0.240 OA
ATOM     18  O   UNL     1      15.070   9.245  33.147  0.00  0.00    -0.240 OA
ENDBRANCH   7  16
BRANCH   7  19
ATOM     19  O   UNL     1      17.834  10.545  34.320  0.00  0.00    -0.343 OA
ATOM     20  C   UNL     1      17.762   9.920  35.626  0.00  0.00    +0.198 C 
ENDBRANCH   7  19
BRANCH   9  21
ATOM     21  O   UNL     1      17.693   5.912  32.912  0.00  0.00    -0.390 OA
ATOM     22  H   UNL     1      18.196   5.446  32.241  0.00  0.00    +0.210 HD
ENDBRANCH   9  21
ENDBRANCH   4   5
BRANCH   4  23
ATOM     23  O   UNL     1      20.421   9.955  30.414  0.00  0.00    -0.387 OA
ATOM     24  H   UNL     1      21.133   9.596  29.878  0.00  0.00    +0.210 HD
ENDBRANCH   4  23
ENDBRANCH   1   4
BRANCH   1  25
ATOM     25  C   UNL     1      18.542  10.422  27.569  0.00  0.00    +0.141 C 
BRANCH  25  28
ATOM     26  C   UNL     1      19.008   8.253  26.481  0.00  0.00    +0.401 C 
ATOM     27  O   UNL     1      17.899   8.176  25.946  0.00  0.00    -0.226 OA
ATOM     28  N   UNL     1      19.391   9.265  27.261  0.00  0.00    -0.279 N 
ATOM     29  H   UNL     1      20.317   9.233  27.663  0.00  0.00    +0.152 HD
BRANCH  26  30
ATOM     30  O   UNL     1      19.955   7.203  26.271  0.00  0.00    -0.444 OA
BRANCH  30  31
ATOM     31  C   UNL     1      20.249   7.097  24.875  0.00  0.00    +0.292 C 
BRANCH  31  33
ATOM     32  N   UNL     1      20.083   4.640  24.609  0.00  0.00    -0.131 NA
ATOM     33  C   UNL     1      19.615   5.892  24.309  0.00  0.00    +0.120 A 
ATOM     34  C   UNL     1      18.526   5.778  23.473  0.00  0.00    +0.137 A 
ATOM     35  N   UNL     1      18.327   4.431  23.383  0.00  0.00    -0.247 N 
ATOM     36  N   UNL     1      19.296   3.750  24.020  0.00  0.00    -0.065 NA
BRANCH  35  37
ATOM     37  C   UNL     1      17.238   3.733  22.729  0.00  0.00    +0.180 C 
BRANCH  37  38
ATOM     38  C   UNL     1      17.472   2.239  22.721  0.00  0.00    -0.026 A 
ATOM     39  C   UNL     1      18.056   1.608  21.613  0.00  0.00    +0.007 A 
ATOM     40  C   UNL     1      18.273   0.226  21.615  0.00  0.00    +0.019 A 
ATOM     41  C   UNL     1      17.905  -0.543  22.724  0.00  0.00    +0.052 A 
ATOM     42  C   UNL     1      17.301   0.075  23.822  0.00  0.00    +0.019 A 
ATOM     43  C   UNL     1      17.082   1.456  23.818  0.00  0.00    +0.007 A 
BRANCH  41  44
ATOM     44  C   UNL     1      18.148  -1.958  22.733  0.00  0.00    +0.099 C 
ATOM     45  N   UNL     1      18.353  -3.099  22.734  0.00  0.00    -0.191 NA
ENDBRANCH  41  44
ENDBRANCH  37  38
ENDBRANCH  35  37
ENDBRANCH  31  33
ENDBRANCH  30  31
ENDBRANCH  26  30
ENDBRANCH  25  28
ENDBRANCH   1  25
TORSDOF 16
