REMARK VINA RESULT:    -5.948      2.784     11.650
REMARK INTER + INTRA:         -13.955
REMARK INTER:                 -11.307
REMARK INTRA:                  -2.648
REMARK UNBOUND:                -3.313
REMARK  Name = lig_assembled_71.pdb
REMARK  17 active torsions:
REMARK  status: ('A' for Active; 'I' for Inactive)
REMARK    1  A    between atoms: _2  and  _12
REMARK    2  A    between atoms: _7  and  _22
REMARK    3  A    between atoms: _9  and  _10
REMARK    4  A    between atoms: _9  and  _22
REMARK    5  A    between atoms: _12  and  _13
REMARK    6  A    between atoms: _18  and  _38
REMARK    7  A    between atoms: _20  and  _26
REMARK    8  A    between atoms: _21  and  _25
REMARK    9  A    between atoms: _25  and  _26
REMARK   10  A    between atoms: _28  and  _29
REMARK   11  A    between atoms: _30  and  _31
REMARK   12  A    between atoms: _32  and  _34
REMARK   13  A    between atoms: _34  and  _35
REMARK   14  A    between atoms: _34  and  _36
REMARK   15  A    between atoms: _36  and  _37
REMARK   16  A    between atoms: _36  and  _38
REMARK   17  A    between atoms: _39  and  _41
REMARK                            x       y       z     vdW  Elec       q    Type
REMARK                         _______ _______ _______ _____ _____    ______ ____
ROOT
ATOM      1  C   UNL     1      -1.391   3.920  27.183  0.00  0.00    +0.163 C 
ENDROOT
BRANCH   1   2
ATOM      2  O   UNL     1      -0.795   5.179  26.833  0.00  0.00    -0.388 OA
ATOM      3  H   UNL     1       0.070   5.250  27.245  0.00  0.00    +0.210 HD
ENDBRANCH   1   2
BRANCH   1   4
ATOM      4  C   UNL     1      -1.850   3.946  28.637  0.00  0.00    +0.141 C 
BRANCH   4   7
ATOM      5  C   UNL     1      -0.134   3.904  30.415  0.00  0.00    +0.401 C 
ATOM      6  O   UNL     1      -0.140   5.126  30.580  0.00  0.00    -0.226 OA
ATOM      7  N   UNL     1      -0.896   3.268  29.524  0.00  0.00    -0.279 N 
ATOM      8  H   UNL     1      -0.813   2.263  29.456  0.00  0.00    +0.152 HD
BRANCH   5   9
ATOM      9  O   UNL     1       0.739   3.100  31.212  0.00  0.00    -0.444 OA
BRANCH   9  10
ATOM     10  C   UNL     1       2.022   3.021  30.585  0.00  0.00    +0.292 C 
BRANCH  10  12
ATOM     11  N   UNL     1       2.976   4.185  32.559  0.00  0.00    -0.131 NA
ATOM     12  C   UNL     1       3.093   3.237  31.576  0.00  0.00    +0.120 A 
ATOM     13  C   UNL     1       4.303   2.598  31.714  0.00  0.00    +0.137 A 
ATOM     14  N   UNL     1       4.884   3.210  32.785  0.00  0.00    -0.242 N 
ATOM     15  N   UNL     1       4.076   4.154  33.300  0.00  0.00    -0.065 NA
BRANCH  14  16
ATOM     16  C   UNL     1       6.133   2.886  33.445  0.00  0.00    +0.241 C 
BRANCH  16  17
ATOM     17  C   UNL     1       6.837   4.120  33.946  0.00  0.00    +0.241 C 
ATOM     18  O   UNL     1       7.764   4.606  33.300  0.00  0.00    -0.273 OA
ATOM     19  N   UNL     1       6.404   4.566  35.177  0.00  0.00    -0.253 N 
ATOM     20  H   UNL     1       5.787   4.022  35.759  0.00  0.00    +0.158 HD
ATOM     21  C   UNL     1       6.903   5.699  35.809  0.00  0.00    +0.221 A 
ATOM     22  N   UNL     1       6.584   5.819  37.107  0.00  0.00    -0.223 NA
ATOM     23  C   UNL     1       7.122   6.875  37.756  0.00  0.00    +0.116 A 
ATOM     24  C   UNL     1       7.927   7.812  37.156  0.00  0.00    +0.039 A 
ATOM     25  C   UNL     1       8.150   7.620  35.818  0.00  0.00    +0.116 A 
ATOM     26  N   UNL     1       7.650   6.579  35.136  0.00  0.00    -0.223 NA
ENDBRANCH  16  17
ENDBRANCH  14  16
ENDBRANCH  10  12
ENDBRANCH   9  10
ENDBRANCH   5   9
ENDBRANCH   4   7
ENDBRANCH   1   4
BRANCH   1  27
ATOM     27  C   UNL     1      -0.397   2.764  26.978  0.00  0.00    +0.175 C 
BRANCH  27  28
ATOM     28  C   UNL     1       0.474   2.966  25.729  0.00  0.00    +0.176 C 
ATOM     29  O   UNL     1      -0.396   3.377  24.639  0.00  0.00    -0.332 OA
ATOM     30  C   UNL     1       0.280   3.720  23.384  0.00  0.00    +0.277 C 
ATOM     31  C   UNL     1       1.184   2.552  22.920  0.00  0.00    +0.110 C 
ATOM     32  C   UNL     1       2.105   2.059  24.055  0.00  0.00    +0.143 C 
ATOM     33  C   UNL     1       1.300   1.734  25.314  0.00  0.00    +0.133 C 
BRANCH  33  34
ATOM     34  N   UNL     1       2.196   1.349  26.415  0.00  0.00    -0.308 N 
ATOM     35  H   UNL     1       2.806   2.058  26.797  0.00  0.00    +0.149 HD
ATOM     36  C   UNL     1       2.257   0.123  26.942  0.00  0.00    +0.210 C 
ATOM     37  C   UNL     1       1.334  -0.942  26.321  0.00  0.00    +0.109 C 
ATOM     38  O   UNL     1       3.008  -0.167  27.874  0.00  0.00    -0.276 OA
ENDBRANCH  33  34
BRANCH  30  39
ATOM     39  C   UNL     1       1.131   4.996  23.552  0.00  0.00    +0.414 C 
ATOM     40  O   UNL     1       1.058   5.658  24.586  0.00  0.00    -0.240 OA
ATOM     41  O   UNL     1       1.889   5.363  22.653  0.00  0.00    -0.240 OA
ENDBRANCH  30  39
BRANCH  30  42
ATOM     42  O   UNL     1      -0.737   3.941  22.373  0.00  0.00    -0.343 OA
ATOM     43  C   UNL     1      -1.818   4.820  22.774  0.00  0.00    +0.198 C 
ENDBRANCH  30  42
BRANCH  32  44
ATOM     44  O   UNL     1       2.809   0.890  23.632  0.00  0.00    -0.390 OA
ATOM     45  H   UNL     1       3.588   1.148  23.134  0.00  0.00    +0.210 HD
ENDBRANCH  32  44
ENDBRANCH  27  28
BRANCH  27  46
ATOM     46  O   UNL     1      -1.102   1.510  26.894  0.00  0.00    -0.387 OA
ATOM     47  H   UNL     1      -0.497   0.819  26.616  0.00  0.00    +0.210 HD
ENDBRANCH  27  46
ENDBRANCH   1  27
TORSDOF 15
