REMARK VINA RESULT:    -6.747      2.577      4.676
REMARK INTER + INTRA:         -15.162
REMARK INTER:                 -11.730
REMARK INTRA:                  -3.432
REMARK UNBOUND:                -2.499
REMARK  Name = lig_assembled_64.pdb
REMARK  19 active torsions:
REMARK  status: ('A' for Active; 'I' for Inactive)
REMARK    1  A    between atoms: _2  and  _10
REMARK    2  A    between atoms: _5  and  _27
REMARK    3  A    between atoms: _7  and  _8
REMARK    4  A    between atoms: _7  and  _27
REMARK    5  A    between atoms: _12  and  _13
REMARK    6  A    between atoms: _13  and  _21
REMARK    7  A    between atoms: _14  and  _15
REMARK    8  A    between atoms: _23  and  _43
REMARK    9  A    between atoms: _25  and  _31
REMARK   10  A    between atoms: _26  and  _30
REMARK   11  A    between atoms: _30  and  _31
REMARK   12  A    between atoms: _33  and  _34
REMARK   13  A    between atoms: _35  and  _36
REMARK   14  A    between atoms: _37  and  _39
REMARK   15  A    between atoms: _39  and  _40
REMARK   16  A    between atoms: _39  and  _41
REMARK   17  A    between atoms: _41  and  _42
REMARK   18  A    between atoms: _41  and  _43
REMARK   19  A    between atoms: _44  and  _46
REMARK                            x       y       z     vdW  Elec       q    Type
REMARK                         _______ _______ _______ _____ _____    ______ ____
ROOT
ATOM      1  C   UNL     1      -0.925   2.803  34.535  0.00  0.00    +0.401 C 
ATOM      2  O   UNL     1      -1.735   3.159  35.394  0.00  0.00    -0.226 OA
ATOM      3  N   UNL     1       0.390   2.715  34.740  0.00  0.00    -0.279 N 
ATOM      4  H   UNL     1       0.972   2.404  33.975  0.00  0.00    +0.152 HD
ENDROOT
BRANCH   3   5
ATOM      5  C   UNL     1       1.039   3.045  36.014  0.00  0.00    +0.141 C 
BRANCH   5   6
ATOM      6  C   UNL     1       2.285   3.901  35.813  0.00  0.00    +0.163 C 
BRANCH   6   7
ATOM      7  O   UNL     1       3.132   3.816  36.971  0.00  0.00    -0.388 OA
ATOM      8  H   UNL     1       3.549   4.667  37.126  0.00  0.00    +0.210 HD
ENDBRANCH   6   7
BRANCH   6   9
ATOM      9  C   UNL     1       3.030   3.435  34.551  0.00  0.00    +0.175 C 
BRANCH   9  10
ATOM     10  C   UNL     1       4.528   3.768  34.608  0.00  0.00    +0.176 C 
ATOM     11  O   UNL     1       4.660   5.180  34.930  0.00  0.00    -0.332 OA
ATOM     12  C   UNL     1       6.031   5.659  35.132  0.00  0.00    +0.277 C 
ATOM     13  C   UNL     1       6.910   5.318  33.903  0.00  0.00    +0.110 C 
ATOM     14  C   UNL     1       6.778   3.833  33.503  0.00  0.00    +0.143 C 
ATOM     15  C   UNL     1       5.311   3.442  33.322  0.00  0.00    +0.133 C 
BRANCH  15  16
ATOM     16  N   UNL     1       5.194   2.005  33.027  0.00  0.00    -0.308 N 
ATOM     17  H   UNL     1       5.580   1.353  33.695  0.00  0.00    +0.149 HD
ATOM     18  C   UNL     1       4.610   1.507  31.934  0.00  0.00    +0.210 C 
ATOM     19  C   UNL     1       4.054   2.527  30.923  0.00  0.00    +0.109 C 
ATOM     20  O   UNL     1       4.513   0.298  31.720  0.00  0.00    -0.276 OA
ENDBRANCH  15  16
BRANCH  12  21
ATOM     21  C   UNL     1       6.649   5.030  36.398  0.00  0.00    +0.414 C 
ATOM     22  O   UNL     1       7.846   4.746  36.428  0.00  0.00    -0.240 OA
ATOM     23  O   UNL     1       5.952   4.808  37.388  0.00  0.00    -0.240 OA
ENDBRANCH  12  21
BRANCH  12  24
ATOM     24  O   UNL     1       5.986   7.102  35.275  0.00  0.00    -0.343 OA
ATOM     25  C   UNL     1       6.975   7.826  34.500  0.00  0.00    +0.198 C 
ENDBRANCH  12  24
BRANCH  14  26
ATOM     26  O   UNL     1       7.481   3.599  32.283  0.00  0.00    -0.390 OA
ATOM     27  H   UNL     1       7.690   2.665  32.207  0.00  0.00    +0.210 HD
ENDBRANCH  14  26
ENDBRANCH   9  10
BRANCH   9  28
ATOM     28  O   UNL     1       2.435   4.023  33.377  0.00  0.00    -0.387 OA
ATOM     29  H   UNL     1       2.548   4.976  33.404  0.00  0.00    +0.210 HD
ENDBRANCH   9  28
ENDBRANCH   6   9
ENDBRANCH   5   6
ENDBRANCH   3   5
BRANCH   1  30
ATOM     30  O   UNL     1      -1.403   2.455  33.233  0.00  0.00    -0.444 OA
BRANCH  30  31
ATOM     31  C   UNL     1      -1.518   3.636  32.434  0.00  0.00    +0.292 C 
BRANCH  31  33
ATOM     32  N   UNL     1       0.325   4.584  31.070  0.00  0.00    -0.131 NA
ATOM     33  C   UNL     1      -0.577   3.586  31.299  0.00  0.00    +0.121 A 
ATOM     34  C   UNL     1      -0.430   2.619  30.332  0.00  0.00    +0.143 A 
ATOM     35  N   UNL     1       0.580   3.079  29.520  0.00  0.00    -0.220 N 
ATOM     36  N   UNL     1       1.027   4.268  29.988  0.00  0.00    -0.060 NA
BRANCH  35  37
ATOM     37  C   UNL     1       1.128   2.468  28.366  0.00  0.00    +0.071 A 
ATOM     38  C   UNL     1       1.704   1.205  28.446  0.00  0.00    +0.063 A 
ATOM     39  CA  UNL     1       2.221   0.665  27.284  0.00  0.00    +0.150 A 
ATOM     40  N   UNL     1       2.214   1.282  26.068  0.00  0.00    -0.240 NA
ATOM     41  C   UNL     1       1.661   2.523  26.001  0.00  0.00    +0.074 A 
ATOM     42  C   UNL     1       1.101   3.132  27.129  0.00  0.00    +0.056 A 
BRANCH  41  43
ATOM     43  C   UNL     1       1.720   3.180  24.672  0.00  0.00    +0.000 A 
ATOM     44  C   UNL     1       1.783   2.441  23.476  0.00  0.00    +0.010 A 
ATOM     45  C   UNL     1       1.800   3.073  22.225  0.00  0.00    +0.001 A 
ATOM     46  C   UNL     1       1.754   4.460  22.141  0.00  0.00    +0.000 A 
ATOM     47  C   UNL     1       1.699   5.217  23.307  0.00  0.00    +0.001 A 
ATOM     48  C   UNL     1       1.683   4.583  24.555  0.00  0.00    +0.010 A 
ENDBRANCH  41  43
BRANCH  39  49
ATOM     49  C   UNL     1       2.849  -0.687  27.324  0.00  0.00    +0.355 C 
ATOM     50  OXT UNL     1       2.739  -1.525  26.447  0.00  0.00    -0.243 OA
BRANCH  49  51
ATOM     51  O   UNL     1       3.553  -0.854  28.466  0.00  0.00    -0.476 OA
ATOM     52  H   UNL     1       3.069  -1.481  29.052  0.00  0.00    +0.295 HD
ENDBRANCH  49  51
ENDBRANCH  39  49
ENDBRANCH  35  37
ENDBRANCH  31  33
ENDBRANCH  30  31
ENDBRANCH   1  30
TORSDOF 17
