REMARK VINA RESULT:    -6.858     14.340     17.232
REMARK INTER + INTRA:         -13.658
REMARK INTER:                 -11.178
REMARK INTRA:                  -2.480
REMARK UNBOUND:                -1.788
REMARK  Name = lig_assembled_20.pdb
REMARK  16 active torsions:
REMARK  status: ('A' for Active; 'I' for Inactive)
REMARK    1  A    between atoms: _2  and  _11
REMARK    2  A    between atoms: _6  and  _21
REMARK    3  A    between atoms: _8  and  _9
REMARK    4  A    between atoms: _8  and  _21
REMARK    5  A    between atoms: _17  and  _37
REMARK    6  A    between atoms: _19  and  _25
REMARK    7  A    between atoms: _20  and  _24
REMARK    8  A    between atoms: _24  and  _25
REMARK    9  A    between atoms: _27  and  _28
REMARK   10  A    between atoms: _29  and  _30
REMARK   11  A    between atoms: _31  and  _33
REMARK   12  A    between atoms: _33  and  _34
REMARK   13  A    between atoms: _33  and  _35
REMARK   14  A    between atoms: _35  and  _36
REMARK   15  A    between atoms: _35  and  _37
REMARK   16  A    between atoms: _38  and  _40
REMARK                            x       y       z     vdW  Elec       q    Type
REMARK                         _______ _______ _______ _____ _____    ______ ____
ROOT
ATOM      1  C   UNL     1      18.641   1.804  22.545  0.00  0.00    +0.163 C 
ENDROOT
BRANCH   1   2
ATOM      2  O   UNL     1      19.932   2.392  22.772  0.00  0.00    -0.388 OA
ATOM      3  H   UNL     1      20.283   2.726  21.942  0.00  0.00    +0.210 HD
ENDBRANCH   1   2
BRANCH   1   4
ATOM      4  C   UNL     1      17.544   2.774  22.972  0.00  0.00    +0.141 C 
BRANCH   4   7
ATOM      5  C   UNL     1      17.617   5.240  22.835  0.00  0.00    +0.401 C 
ATOM      6  O   UNL     1      16.689   5.316  22.027  0.00  0.00    -0.226 OA
ATOM      7  N   UNL     1      18.086   4.091  23.326  0.00  0.00    -0.279 N 
ATOM      8  H   UNL     1      18.857   4.131  23.977  0.00  0.00    +0.152 HD
BRANCH   5   9
ATOM      9  O   UNL     1      18.246   6.442  23.285  0.00  0.00    -0.444 OA
BRANCH   9  10
ATOM     10  C   UNL     1      19.518   6.129  23.859  0.00  0.00    +0.292 C 
BRANCH  10  12
ATOM     11  N   UNL     1      20.962   7.029  25.663  0.00  0.00    -0.131 NA
ATOM     12  C   UNL     1      19.724   6.888  25.107  0.00  0.00    +0.121 A 
ATOM     13  C   UNL     1      18.804   7.544  25.889  0.00  0.00    +0.143 A 
ATOM     14  N   UNL     1      19.531   8.080  26.927  0.00  0.00    -0.220 N 
ATOM     15  N   UNL     1      20.839   7.754  26.769  0.00  0.00    -0.060 NA
BRANCH  14  16
ATOM     16  C   UNL     1      19.068   8.858  28.020  0.00  0.00    +0.068 A 
ATOM     17  C   UNL     1      18.860  10.237  27.857  0.00  0.00    +0.030 A 
ATOM     18  C   UNL     1      18.398  11.034  28.915  0.00  0.00    +0.030 A 
ATOM     19  C   UNL     1      18.154  10.396  30.135  0.00  0.00    +0.066 A 
ATOM     20  C   UNL     1      18.352   9.035  30.328  0.00  0.00    +0.021 A 
ATOM     21  C   UNL     1      17.995   8.810  31.675  0.00  0.00    +0.142 A 
ATOM     22  N   UNL     1      17.601   9.924  32.296  0.00  0.00    -0.181 NA
ATOM     23  N   UNL     1      17.704  10.866  31.342  0.00  0.00    -0.277 N 
ATOM     24  H   UNL     1      17.455  11.819  31.578  0.00  0.00    +0.189 HD
ATOM     25  C   UNL     1      18.816   8.245  29.262  0.00  0.00    +0.039 A 
ENDBRANCH  14  16
ENDBRANCH  10  12
ENDBRANCH   9  10
ENDBRANCH   5   9
ENDBRANCH   4   7
ENDBRANCH   1   4
BRANCH   1  26
ATOM     26  C   UNL     1      18.492   0.485  23.323  0.00  0.00    +0.175 C 
BRANCH  26  27
ATOM     27  C   UNL     1      18.086   0.719  24.785  0.00  0.00    +0.176 C 
ATOM     28  O   UNL     1      19.240   1.253  25.490  0.00  0.00    -0.332 OA
ATOM     29  C   UNL     1      19.008   1.640  26.885  0.00  0.00    +0.277 C 
ATOM     30  C   UNL     1      18.410   0.455  27.683  0.00  0.00    +0.110 C 
ATOM     31  C   UNL     1      17.198  -0.167  26.956  0.00  0.00    +0.143 C 
ATOM     32  C   UNL     1      17.550  -0.528  25.513  0.00  0.00    +0.133 C 
BRANCH  32  33
ATOM     33  N   UNL     1      16.365  -1.039  24.806  0.00  0.00    -0.308 N 
ATOM     34  H   UNL     1      15.559  -0.434  24.740  0.00  0.00    +0.149 HD
ATOM     35  C   UNL     1      16.286  -2.249  24.246  0.00  0.00    +0.210 C 
ATOM     36  C   UNL     1      17.523  -3.156  24.386  0.00  0.00    +0.109 C 
ATOM     37  O   UNL     1      15.285  -2.644  23.647  0.00  0.00    -0.276 OA
ENDBRANCH  32  33
BRANCH  29  38
ATOM     38  C   UNL     1      18.053   2.850  26.966  0.00  0.00    +0.414 C 
ATOM     39  O   UNL     1      18.276   3.860  26.300  0.00  0.00    -0.240 OA
ATOM     40  O   UNL     1      17.062   2.815  27.696  0.00  0.00    -0.240 OA
ENDBRANCH  29  38
BRANCH  31  41
ATOM     41  O   UNL     1      16.775  -1.343  27.646  0.00  0.00    -0.390 OA
ATOM     42  H   UNL     1      17.300  -2.092  27.355  0.00  0.00    +0.210 HD
ENDBRANCH  31  41
BRANCH  29  43
ATOM     43  O   UNL     1      20.287   1.988  27.474  0.00  0.00    -0.343 OA
ATOM     44  C   UNL     1      20.281   2.122  28.917  0.00  0.00    +0.198 C 
ENDBRANCH  29  43
ENDBRANCH  26  27
BRANCH  26  45
ATOM     45  O   UNL     1      19.721  -0.268  23.263  0.00  0.00    -0.387 OA
ATOM     46  H   UNL     1      20.181  -0.197  24.103  0.00  0.00    +0.210 HD
ENDBRANCH  26  45
ENDBRANCH   1  26
TORSDOF 14
