REMARK VINA RESULT:    -6.214     14.637     17.098
REMARK INTER + INTRA:         -13.477
REMARK INTER:                 -10.629
REMARK INTRA:                  -2.847
REMARK UNBOUND:                -2.722
REMARK  Name = lig_assembled_3.pdb
REMARK  16 active torsions:
REMARK  status: ('A' for Active; 'I' for Inactive)
REMARK    1  A    between atoms: _2  and  _9
REMARK    2  A    between atoms: _4  and  _18
REMARK    3  A    between atoms: _6  and  _7
REMARK    4  A    between atoms: _6  and  _18
REMARK    5  A    between atoms: _14  and  _34
REMARK    6  A    between atoms: _16  and  _22
REMARK    7  A    between atoms: _17  and  _21
REMARK    8  A    between atoms: _21  and  _22
REMARK    9  A    between atoms: _24  and  _25
REMARK   10  A    between atoms: _26  and  _27
REMARK   11  A    between atoms: _28  and  _30
REMARK   12  A    between atoms: _30  and  _31
REMARK   13  A    between atoms: _30  and  _32
REMARK   14  A    between atoms: _32  and  _33
REMARK   15  A    between atoms: _32  and  _34
REMARK   16  A    between atoms: _35  and  _37
REMARK                            x       y       z     vdW  Elec       q    Type
REMARK                         _______ _______ _______ _____ _____    ______ ____
ROOT
ATOM      1  C   UNL     1      16.936   3.680  22.734  0.00  0.00    +0.163 C 
ENDROOT
BRANCH   1   2
ATOM      2  O   UNL     1      16.017   2.900  23.517  0.00  0.00    -0.388 OA
ATOM      3  H   UNL     1      15.679   2.175  22.986  0.00  0.00    +0.210 HD
ENDBRANCH   1   2
BRANCH   1   4
ATOM      4  C   UNL     1      17.158   3.018  21.378  0.00  0.00    +0.141 C 
BRANCH   4   7
ATOM      5  C   UNL     1      18.328   0.855  21.133  0.00  0.00    +0.401 C 
ATOM      6  O   UNL     1      19.351   1.355  20.661  0.00  0.00    -0.226 OA
ATOM      7  N   UNL     1      17.252   1.557  21.491  0.00  0.00    -0.279 N 
ATOM      8  H   UNL     1      16.456   1.056  21.860  0.00  0.00    +0.152 HD
BRANCH   5   9
ATOM      9  O   UNL     1      18.266  -0.562  21.314  0.00  0.00    -0.444 OA
BRANCH   9  10
ATOM     10  C   UNL     1      18.909  -0.915  22.542  0.00  0.00    +0.292 C 
BRANCH  10  12
ATOM     11  N   UNL     1      18.623  -3.344  22.918  0.00  0.00    -0.131 NA
ATOM     12  C   UNL     1      18.223  -2.063  23.167  0.00  0.00    +0.121 A 
ATOM     13  C   UNL     1      17.163  -2.084  24.043  0.00  0.00    +0.143 A 
ATOM     14  N   UNL     1      16.961  -3.416  24.328  0.00  0.00    -0.220 N 
ATOM     15  N   UNL     1      17.850  -4.160  23.621  0.00  0.00    -0.060 NA
BRANCH  14  16
ATOM     16  C   UNL     1      16.022  -4.003  25.214  0.00  0.00    +0.067 A 
ATOM     17  C   UNL     1      15.487  -5.273  24.958  0.00  0.00    +0.028 A 
ATOM     18  C   UNL     1      14.541  -5.822  25.827  0.00  0.00    +0.002 A 
ATOM     19  C   UNL     1      14.127  -5.111  26.952  0.00  0.00    +0.000 A 
ATOM     20  C   UNL     1      14.661  -3.852  27.217  0.00  0.00    +0.002 A 
ATOM     21  C   UNL     1      15.608  -3.296  26.353  0.00  0.00    +0.028 A 
ENDBRANCH  14  16
ENDBRANCH  10  12
ENDBRANCH   9  10
ENDBRANCH   5   9
ENDBRANCH   4   7
ENDBRANCH   1   4
BRANCH   1  22
ATOM     22  C   UNL     1      18.284   3.833  23.458  0.00  0.00    +0.175 C 
BRANCH  22  23
ATOM     23  C   UNL     1      18.487   2.757  24.535  0.00  0.00    +0.176 C 
ATOM     24  O   UNL     1      17.817   3.204  25.746  0.00  0.00    -0.332 OA
ATOM     25  C   UNL     1      17.814   2.249  26.858  0.00  0.00    +0.277 C 
ATOM     26  C   UNL     1      19.259   1.804  27.193  0.00  0.00    +0.110 C 
ATOM     27  C   UNL     1      20.022   1.350  25.931  0.00  0.00    +0.143 C 
ATOM     28  C   UNL     1      19.958   2.416  24.838  0.00  0.00    +0.133 C 
BRANCH  28  29
ATOM     29  N   UNL     1      20.614   1.937  23.611  0.00  0.00    -0.308 N 
ATOM     30  H   UNL     1      20.184   1.167  23.117  0.00  0.00    +0.149 HD
ATOM     31  C   UNL     1      21.739   2.451  23.108  0.00  0.00    +0.210 C 
ATOM     32  C   UNL     1      22.383   3.606  23.898  0.00  0.00    +0.109 C 
ATOM     33  O   UNL     1      22.258   2.039  22.070  0.00  0.00    -0.276 OA
ENDBRANCH  28  29
BRANCH  25  34
ATOM     34  C   UNL     1      16.961   1.011  26.515  0.00  0.00    +0.414 C 
ATOM     35  O   UNL     1      15.966   1.123  25.799  0.00  0.00    -0.240 OA
ATOM     36  O   UNL     1      17.266  -0.099  26.952  0.00  0.00    -0.240 OA
ENDBRANCH  25  34
BRANCH  27  37
ATOM     37  O   UNL     1      21.388   1.094  26.260  0.00  0.00    -0.390 OA
ATOM     38  H   UNL     1      21.957   1.642  25.714  0.00  0.00    +0.210 HD
ENDBRANCH  27  37
BRANCH  25  39
ATOM     39  O   UNL     1      17.260   2.917  28.021  0.00  0.00    -0.343 OA
ATOM     40  C   UNL     1      18.241   3.468  28.936  0.00  0.00    +0.198 C 
ENDBRANCH  25  39
ENDBRANCH  22  23
BRANCH  22  41
ATOM     41  O   UNL     1      18.388   5.146  24.043  0.00  0.00    -0.387 OA
ATOM     42  H   UNL     1      18.968   5.691  23.506  0.00  0.00    +0.210 HD
ENDBRANCH  22  41
ENDBRANCH   1  22
TORSDOF 14
