REMARK VINA RESULT:    -6.045     11.983     15.209
REMARK INTER + INTRA:         -13.671
REMARK INTER:                 -11.027
REMARK INTRA:                  -2.644
REMARK UNBOUND:                -2.326
REMARK  Name = lig_assembled_32.pdb
REMARK  19 active torsions:
REMARK  status: ('A' for Active; 'I' for Inactive)
REMARK    1  A    between atoms: _2  and  _9
REMARK    2  A    between atoms: _4  and  _17
REMARK    3  A    between atoms: _5  and  _10
REMARK    4  A    between atoms: _5  and  _11
REMARK    5  A    between atoms: _6  and  _7
REMARK    6  A    between atoms: _6  and  _17
REMARK    7  A    between atoms: _9  and  _10
REMARK    8  A    between atoms: _13  and  _33
REMARK    9  A    between atoms: _15  and  _21
REMARK   10  A    between atoms: _16  and  _20
REMARK   11  A    between atoms: _20  and  _21
REMARK   12  A    between atoms: _23  and  _24
REMARK   13  A    between atoms: _25  and  _26
REMARK   14  A    between atoms: _27  and  _29
REMARK   15  A    between atoms: _29  and  _30
REMARK   16  A    between atoms: _29  and  _31
REMARK   17  A    between atoms: _31  and  _32
REMARK   18  A    between atoms: _31  and  _33
REMARK   19  A    between atoms: _34  and  _36
REMARK                            x       y       z     vdW  Elec       q    Type
REMARK                         _______ _______ _______ _____ _____    ______ ____
ROOT
ATOM      1  C   UNL     1      17.705   4.072  22.552  0.00  0.00    +0.163 C 
ENDROOT
BRANCH   1   2
ATOM      2  O   UNL     1      16.997   5.245  22.985  0.00  0.00    -0.388 OA
ATOM      3  H   UNL     1      16.056   5.123  22.840  0.00  0.00    +0.210 HD
ENDBRANCH   1   2
BRANCH   1   4
ATOM      4  C   UNL     1      18.242   3.278  23.755  0.00  0.00    +0.175 C 
BRANCH   4   5
ATOM      5  C   UNL     1      18.335   4.141  25.022  0.00  0.00    +0.176 C 
ATOM      6  O   UNL     1      19.583   4.884  24.966  0.00  0.00    -0.332 OA
ATOM      7  C   UNL     1      19.796   5.848  26.050  0.00  0.00    +0.277 C 
ATOM      8  C   UNL     1      19.662   5.152  27.427  0.00  0.00    +0.110 C 
ATOM      9  C   UNL     1      18.364   4.324  27.522  0.00  0.00    +0.143 C 
ATOM     10  C   UNL     1      18.243   3.356  26.344  0.00  0.00    +0.133 C 
BRANCH  10  11
ATOM     11  N   UNL     1      16.962   2.635  26.400  0.00  0.00    -0.308 N 
ATOM     12  H   UNL     1      16.112   3.181  26.379  0.00  0.00    +0.149 HD
ATOM     13  C   UNL     1      16.849   1.306  26.476  0.00  0.00    +0.210 C 
ATOM     14  C   UNL     1      18.163   0.504  26.532  0.00  0.00    +0.109 C 
ATOM     15  O   UNL     1      15.762   0.728  26.506  0.00  0.00    -0.276 OA
ENDBRANCH  10  11
BRANCH   7  16
ATOM     16  C   UNL     1      18.783   7.008  25.957  0.00  0.00    +0.414 C 
ATOM     17  O   UNL     1      18.715   7.845  26.856  0.00  0.00    -0.240 OA
ATOM     18  O   UNL     1      18.035   7.106  24.984  0.00  0.00    -0.240 OA
ENDBRANCH   7  16
BRANCH   7  19
ATOM     19  O   UNL     1      21.146   6.368  25.929  0.00  0.00    -0.343 OA
ATOM     20  C   UNL     1      22.189   5.478  26.401  0.00  0.00    +0.198 C 
ENDBRANCH   7  19
BRANCH   9  21
ATOM     21  O   UNL     1      18.355   3.582  28.743  0.00  0.00    -0.390 OA
ATOM     22  H   UNL     1      17.729   3.978  29.354  0.00  0.00    +0.210 HD
ENDBRANCH   9  21
ENDBRANCH   4   5
BRANCH   4  23
ATOM     23  O   UNL     1      19.531   2.713  23.443  0.00  0.00    -0.387 OA
ATOM     24  H   UNL     1      20.186   3.052  24.057  0.00  0.00    +0.210 HD
ENDBRANCH   4  23
ENDBRANCH   1   4
BRANCH   1  25
ATOM     25  C   UNL     1      16.783   3.182  21.724  0.00  0.00    +0.141 C 
BRANCH  25  28
ATOM     26  C   UNL     1      17.641   1.243  20.456  0.00  0.00    +0.401 C 
ATOM     27  O   UNL     1      17.548   1.799  19.359  0.00  0.00    -0.226 OA
ATOM     28  N   UNL     1      17.300   1.813  21.612  0.00  0.00    -0.279 N 
ATOM     29  H   UNL     1      17.403   1.272  22.459  0.00  0.00    +0.152 HD
BRANCH  26  30
ATOM     30  O   UNL     1      18.138  -0.097  20.515  0.00  0.00    -0.444 OA
BRANCH  30  31
ATOM     31  C   UNL     1      19.017  -0.231  21.634  0.00  0.00    +0.292 C 
BRANCH  31  33
ATOM     32  N   UNL     1      19.384  -2.575  22.342  0.00  0.00    -0.131 NA
ATOM     33  C   UNL     1      18.655  -1.418  22.432  0.00  0.00    +0.120 A 
ATOM     34  C   UNL     1      17.627  -1.603  23.329  0.00  0.00    +0.137 A 
ATOM     35  N   UNL     1      17.779  -2.892  23.738  0.00  0.00    -0.251 N 
ATOM     36  N   UNL     1      18.836  -3.474  23.146  0.00  0.00    -0.065 NA
BRANCH  35  37
ATOM     37  C   UNL     1      16.974  -3.633  24.683  0.00  0.00    +0.156 C 
BRANCH  37  38
ATOM     38  C   UNL     1      15.678  -2.910  25.019  0.00  0.00    +0.143 C 
BRANCH  38  39
ATOM     39  C   UNL     1      15.323  -3.125  26.462  0.00  0.00    +0.306 C 
ATOM     40  O   UNL     1      14.805  -4.136  26.910  0.00  0.00    -0.251 OA
BRANCH  39  41
ATOM     41  O   UNL     1      15.626  -2.061  27.239  0.00  0.00    -0.481 OA
ATOM     42  H   UNL     1      15.362  -1.200  26.860  0.00  0.00    +0.295 HD
ENDBRANCH  39  41
ENDBRANCH  38  39
ENDBRANCH  37  38
ENDBRANCH  35  37
ENDBRANCH  31  33
ENDBRANCH  30  31
ENDBRANCH  26  30
ENDBRANCH  25  28
ENDBRANCH   1  25
TORSDOF 17
