REMARK VINA RESULT:    -6.058      7.941     12.507
REMARK INTER + INTRA:         -12.995
REMARK INTER:                 -11.193
REMARK INTRA:                  -1.802
REMARK UNBOUND:                -1.802
REMARK  Name = lig_assembled_36.pdb
REMARK  18 active torsions:
REMARK  status: ('A' for Active; 'I' for Inactive)
REMARK    1  A    between atoms: _2  and  _10
REMARK    2  A    between atoms: _5  and  _21
REMARK    3  A    between atoms: _7  and  _8
REMARK    4  A    between atoms: _7  and  _21
REMARK    5  A    between atoms: _10  and  _11
REMARK    6  A    between atoms: _14  and  _15
REMARK    7  A    between atoms: _17  and  _37
REMARK    8  A    between atoms: _19  and  _25
REMARK    9  A    between atoms: _20  and  _24
REMARK   10  A    between atoms: _24  and  _25
REMARK   11  A    between atoms: _27  and  _28
REMARK   12  A    between atoms: _29  and  _30
REMARK   13  A    between atoms: _31  and  _33
REMARK   14  A    between atoms: _33  and  _34
REMARK   15  A    between atoms: _33  and  _35
REMARK   16  A    between atoms: _35  and  _36
REMARK   17  A    between atoms: _35  and  _37
REMARK   18  A    between atoms: _38  and  _40
REMARK                            x       y       z     vdW  Elec       q    Type
REMARK                         _______ _______ _______ _____ _____    ______ ____
ROOT
ATOM      1  C   UNL     1      17.275  -0.618  26.866  0.00  0.00    +0.163 C 
ENDROOT
BRANCH   1   2
ATOM      2  O   UNL     1      18.633  -0.162  26.754  0.00  0.00    -0.388 OA
ATOM      3  H   UNL     1      18.832   0.435  27.479  0.00  0.00    +0.210 HD
ENDBRANCH   1   2
BRANCH   1   4
ATOM      4  C   UNL     1      16.530  -0.461  25.529  0.00  0.00    +0.175 C 
BRANCH   4   5
ATOM      5  C   UNL     1      17.374   0.277  24.480  0.00  0.00    +0.176 C 
ATOM      6  O   UNL     1      16.660   1.485  24.100  0.00  0.00    -0.332 OA
ATOM      7  C   UNL     1      17.368   2.377  23.177  0.00  0.00    +0.277 C 
ATOM      8  C   UNL     1      17.805   1.605  21.907  0.00  0.00    +0.110 C 
ATOM      9  C   UNL     1      18.542   0.296  22.261  0.00  0.00    +0.143 C 
ATOM     10  C   UNL     1      17.716  -0.553  23.229  0.00  0.00    +0.133 C 
BRANCH  10  11
ATOM     11  N   UNL     1      18.466  -1.756  23.627  0.00  0.00    -0.308 N 
ATOM     12  H   UNL     1      19.395  -1.630  24.002  0.00  0.00    +0.149 HD
ATOM     13  C   UNL     1      17.997  -3.002  23.524  0.00  0.00    +0.210 C 
ATOM     14  C   UNL     1      16.588  -3.163  22.925  0.00  0.00    +0.109 C 
ATOM     15  O   UNL     1      18.642  -3.990  23.879  0.00  0.00    -0.276 OA
ENDBRANCH  10  11
BRANCH   7  16
ATOM     16  C   UNL     1      18.608   2.994  23.857  0.00  0.00    +0.414 C 
ATOM     17  O   UNL     1      19.711   2.925  23.316  0.00  0.00    -0.240 OA
ATOM     18  O   UNL     1      18.505   3.562  24.945  0.00  0.00    -0.240 OA
ENDBRANCH   7  16
BRANCH   7  19
ATOM     19  O   UNL     1      16.454   3.430  22.779  0.00  0.00    -0.343 OA
ATOM     20  C   UNL     1      17.053   4.504  22.011  0.00  0.00    +0.198 C 
ENDBRANCH   7  19
BRANCH   9  21
ATOM     21  O   UNL     1      18.791  -0.454  21.072  0.00  0.00    -0.390 OA
ATOM     22  H   UNL     1      19.412  -1.160  21.262  0.00  0.00    +0.210 HD
ENDBRANCH   9  21
ENDBRANCH   4   5
BRANCH   4  23
ATOM     23  O   UNL     1      15.281   0.229  25.736  0.00  0.00    -0.387 OA
ATOM     24  H   UNL     1      15.377   0.860  26.453  0.00  0.00    +0.210 HD
ENDBRANCH   4  23
ENDBRANCH   1   4
BRANCH   1  25
ATOM     25  C   UNL     1      17.250  -2.082  27.294  0.00  0.00    +0.141 C 
BRANCH  25  28
ATOM     26  C   UNL     1      16.140  -4.148  26.516  0.00  0.00    +0.401 C 
ATOM     27  O   UNL     1      17.045  -4.891  26.902  0.00  0.00    -0.226 OA
ATOM     28  N   UNL     1      16.156  -2.821  26.652  0.00  0.00    -0.279 N 
ATOM     29  H   UNL     1      15.371  -2.295  26.294  0.00  0.00    +0.152 HD
BRANCH  26  30
ATOM     30  O   UNL     1      14.997  -4.720  25.875  0.00  0.00    -0.444 OA
BRANCH  30  31
ATOM     31  C   UNL     1      14.591  -5.894  26.582  0.00  0.00    +0.292 C 
BRANCH  31  33
ATOM     32  N   UNL     1      12.960  -4.587  27.913  0.00  0.00    -0.131 NA
ATOM     33  C   UNL     1      13.251  -5.700  27.169  0.00  0.00    +0.120 A 
ATOM     34  C   UNL     1      12.128  -6.492  27.083  0.00  0.00    +0.137 A 
ATOM     35  N   UNL     1      11.166  -5.758  27.713  0.00  0.00    -0.247 N 
ATOM     36  N   UNL     1      11.682  -4.642  28.259  0.00  0.00    -0.065 NA
BRANCH  35  37
ATOM     37  C   UNL     1       9.750  -6.047  27.819  0.00  0.00    +0.180 C 
BRANCH  37  38
ATOM     38  C   UNL     1       8.927  -5.051  27.035  0.00  0.00    -0.026 A 
ATOM     39  C   UNL     1       8.544  -5.315  25.712  0.00  0.00    +0.007 A 
ATOM     40  C   UNL     1       7.778  -4.389  24.996  0.00  0.00    +0.019 A 
ATOM     41  C   UNL     1       7.389  -3.185  25.592  0.00  0.00    +0.052 A 
ATOM     42  C   UNL     1       7.787  -2.904  26.901  0.00  0.00    +0.019 A 
ATOM     43  C   UNL     1       8.554  -3.828  27.616  0.00  0.00    +0.007 A 
BRANCH  41  44
ATOM     44  C   UNL     1       6.586  -2.246  24.862  0.00  0.00    +0.099 C 
ATOM     45  N   UNL     1       5.939  -1.478  24.281  0.00  0.00    -0.191 NA
ENDBRANCH  41  44
ENDBRANCH  37  38
ENDBRANCH  35  37
ENDBRANCH  31  33
ENDBRANCH  30  31
ENDBRANCH  26  30
ENDBRANCH  25  28
ENDBRANCH   1  25
TORSDOF 16
