REMARK VINA RESULT:    -6.260      8.682     13.743
REMARK INTER + INTRA:         -12.866
REMARK INTER:                 -10.834
REMARK INTRA:                  -2.031
REMARK UNBOUND:                -2.031
REMARK  Name = lig_assembled_42.pdb
REMARK  16 active torsions:
REMARK  status: ('A' for Active; 'I' for Inactive)
REMARK    1  A    between atoms: _2  and  _9
REMARK    2  A    between atoms: _4  and  _21
REMARK    3  A    between atoms: _6  and  _7
REMARK    4  A    between atoms: _6  and  _21
REMARK    5  A    between atoms: _17  and  _37
REMARK    6  A    between atoms: _19  and  _25
REMARK    7  A    between atoms: _20  and  _24
REMARK    8  A    between atoms: _24  and  _25
REMARK    9  A    between atoms: _27  and  _28
REMARK   10  A    between atoms: _29  and  _30
REMARK   11  A    between atoms: _31  and  _33
REMARK   12  A    between atoms: _33  and  _34
REMARK   13  A    between atoms: _33  and  _35
REMARK   14  A    between atoms: _35  and  _36
REMARK   15  A    between atoms: _35  and  _37
REMARK   16  A    between atoms: _38  and  _40
REMARK                            x       y       z     vdW  Elec       q    Type
REMARK                         _______ _______ _______ _____ _____    ______ ____
ROOT
ATOM      1  C   UNL     1       1.587   3.627  19.415  0.00  0.00    +0.163 C 
ENDROOT
BRANCH   1   2
ATOM      2  O   UNL     1       0.397   3.968  18.684  0.00  0.00    -0.388 OA
ATOM      3  H   UNL     1       0.456   4.878  18.383  0.00  0.00    +0.210 HD
ENDBRANCH   1   2
BRANCH   1   4
ATOM      4  C   UNL     1       2.671   3.152  18.453  0.00  0.00    +0.141 C 
BRANCH   4   7
ATOM      5  C   UNL     1       1.762   1.428  16.935  0.00  0.00    +0.401 C 
ATOM      6  O   UNL     1       1.224   2.242  16.180  0.00  0.00    -0.226 OA
ATOM      7  N   UNL     1       2.454   1.766  18.024  0.00  0.00    -0.279 N 
ATOM      8  H   UNL     1       2.850   1.025  18.586  0.00  0.00    +0.152 HD
BRANCH   5   9
ATOM      9  O   UNL     1       1.648   0.033  16.646  0.00  0.00    -0.444 OA
BRANCH   9  10
ATOM     10  C   UNL     1       1.715  -0.170  15.232  0.00  0.00    +0.292 C 
BRANCH  10  12
ATOM     11  N   UNL     1       3.558  -1.831  15.267  0.00  0.00    -0.131 NA
ATOM     12  C   UNL     1       3.059  -0.636  14.839  0.00  0.00    +0.121 A 
ATOM     13  C   UNL     1       3.993  -0.021  14.040  0.00  0.00    +0.143 A 
ATOM     14  N   UNL     1       5.061  -0.885  14.005  0.00  0.00    -0.220 N 
ATOM     15  N   UNL     1       4.776  -1.977  14.757  0.00  0.00    -0.060 NA
BRANCH  14  16
ATOM     16  C   UNL     1       6.293  -0.730  13.322  0.00  0.00    +0.071 A 
ATOM     17  C   UNL     1       6.447  -1.244  12.026  0.00  0.00    +0.077 A 
ATOM     18  C   UNL     1       7.665  -1.068  11.404  0.00  0.00    +0.168 A 
ATOM     19  O   UNL     1       7.974  -1.499  10.153  0.00  0.00    -0.453 OA
ATOM     20  C   UNL     1       9.336  -1.038  10.039  0.00  0.00    +0.466 C 
ATOM     21  O   UNL     1       9.810  -0.353  11.219  0.00  0.00    -0.453 OA
ATOM     22  C   UNL     1       8.708  -0.414  12.013  0.00  0.00    +0.166 A 
ATOM     23  C   UNL     1       8.594   0.102  13.286  0.00  0.00    +0.051 A 
ATOM     24  C   UNL     1       7.370  -0.058  13.950  0.00  0.00    +0.031 A 
ENDBRANCH  14  16
ENDBRANCH  10  12
ENDBRANCH   9  10
ENDBRANCH   5   9
ENDBRANCH   4   7
ENDBRANCH   1   4
BRANCH   1  25
ATOM     25  C   UNL     1       1.299   2.526  20.450  0.00  0.00    +0.175 C 
BRANCH  25  26
ATOM     26  C   UNL     1       0.585   3.074  21.694  0.00  0.00    +0.176 C 
ATOM     27  O   UNL     1       1.442   2.834  22.844  0.00  0.00    -0.332 OA
ATOM     28  C   UNL     1       0.967   3.389  24.115  0.00  0.00    +0.277 C 
ATOM     29  C   UNL     1      -0.468   2.893  24.419  0.00  0.00    +0.110 C 
ATOM     30  C   UNL     1      -1.409   3.098  23.213  0.00  0.00    +0.143 C 
ATOM     31  C   UNL     1      -0.816   2.485  21.944  0.00  0.00    +0.133 C 
BRANCH  31  32
ATOM     32  N   UNL     1      -1.680   2.762  20.786  0.00  0.00    -0.308 N 
ATOM     33  H   UNL     1      -1.842   3.728  20.539  0.00  0.00    +0.149 HD
ATOM     34  C   UNL     1      -2.263   1.821  20.039  0.00  0.00    +0.210 C 
ATOM     35  C   UNL     1      -2.017   0.359  20.457  0.00  0.00    +0.109 C 
ATOM     36  O   UNL     1      -2.970   2.082  19.065  0.00  0.00    -0.276 OA
ENDBRANCH  31  32
BRANCH  28  37
ATOM     37  C   UNL     1       0.982   4.931  24.079  0.00  0.00    +0.414 C 
ATOM     38  O   UNL     1       0.204   5.576  24.781  0.00  0.00    -0.240 OA
ATOM     39  O   UNL     1       1.772   5.530  23.348  0.00  0.00    -0.240 OA
ENDBRANCH  28  37
BRANCH  30  40
ATOM     40  O   UNL     1      -2.674   2.492  23.481  0.00  0.00    -0.390 OA
ATOM     41  H   UNL     1      -2.762   2.337  24.424  0.00  0.00    +0.210 HD
ENDBRANCH  30  40
BRANCH  28  42
ATOM     42  O   UNL     1       1.847   2.916  25.167  0.00  0.00    -0.343 OA
ATOM     43  C   UNL     1       2.211   1.516  25.078  0.00  0.00    +0.198 C 
ENDBRANCH  28  42
ENDBRANCH  25  26
BRANCH  25  44
ATOM     44  O   UNL     1       2.525   1.870  20.830  0.00  0.00    -0.387 OA
ATOM     45  H   UNL     1       2.338   1.196  21.487  0.00  0.00    +0.210 HD
ENDBRANCH  25  44
ENDBRANCH   1  25
TORSDOF 14
