REMARK VINA RESULT:    -5.913      2.027      4.270
REMARK INTER + INTRA:         -14.025
REMARK INTER:                 -11.922
REMARK INTRA:                  -2.103
REMARK UNBOUND:                -2.754
REMARK  Name = lig_assembled_12.pdb
REMARK  19 active torsions:
REMARK  status: ('A' for Active; 'I' for Inactive)
REMARK    1  A    between atoms: _2  and  _9
REMARK    2  A    between atoms: _4  and  _21
REMARK    3  A    between atoms: _6  and  _7
REMARK    4  A    between atoms: _6  and  _21
REMARK    5  A    between atoms: _9  and  _16
REMARK    6  A    between atoms: _10  and  _11
REMARK    7  A    between atoms: _10  and  _16
REMARK    8  A    between atoms: _17  and  _37
REMARK    9  A    between atoms: _19  and  _25
REMARK   10  A    between atoms: _20  and  _24
REMARK   11  A    between atoms: _24  and  _25
REMARK   12  A    between atoms: _27  and  _28
REMARK   13  A    between atoms: _29  and  _30
REMARK   14  A    between atoms: _31  and  _33
REMARK   15  A    between atoms: _33  and  _34
REMARK   16  A    between atoms: _33  and  _35
REMARK   17  A    between atoms: _35  and  _36
REMARK   18  A    between atoms: _35  and  _37
REMARK   19  A    between atoms: _38  and  _40
REMARK                            x       y       z     vdW  Elec       q    Type
REMARK                         _______ _______ _______ _____ _____    ______ ____
ROOT
ATOM      1  C   UNL     1       2.346   2.605  35.030  0.00  0.00    +0.163 C 
ENDROOT
BRANCH   1   2
ATOM      2  O   UNL     1       2.514   1.236  34.627  0.00  0.00    -0.388 OA
ATOM      3  H   UNL     1       2.874   1.206  33.737  0.00  0.00    +0.210 HD
ENDBRANCH   1   2
BRANCH   1   4
ATOM      4  C   UNL     1       3.708   3.278  35.273  0.00  0.00    +0.175 C 
BRANCH   4   5
ATOM      5  C   UNL     1       4.736   2.907  34.195  0.00  0.00    +0.176 C 
ATOM      6  O   UNL     1       5.263   1.590  34.514  0.00  0.00    -0.332 OA
ATOM      7  C   UNL     1       6.189   1.022  33.529  0.00  0.00    +0.277 C 
ATOM      8  C   UNL     1       7.357   2.002  33.257  0.00  0.00    +0.110 C 
ATOM      9  C   UNL     1       6.847   3.424  32.944  0.00  0.00    +0.143 C 
ATOM     10  C   UNL     1       5.890   3.915  34.031  0.00  0.00    +0.133 C 
BRANCH  10  11
ATOM     11  N   UNL     1       5.343   5.234  33.679  0.00  0.00    -0.308 N 
ATOM     12  H   UNL     1       4.726   5.291  32.881  0.00  0.00    +0.149 HD
ATOM     13  C   UNL     1       5.609   6.362  34.344  0.00  0.00    +0.210 C 
ATOM     14  C   UNL     1       6.574   6.246  35.539  0.00  0.00    +0.109 C 
ATOM     15  O   UNL     1       5.125   7.451  34.035  0.00  0.00    -0.276 OA
ENDBRANCH  10  11
BRANCH   7  16
ATOM     16  C   UNL     1       5.458   0.712  32.206  0.00  0.00    +0.414 C 
ATOM     17  O   UNL     1       6.058   0.169  31.279  0.00  0.00    -0.240 OA
ATOM     18  O   UNL     1       4.270   1.003  32.067  0.00  0.00    -0.240 OA
ENDBRANCH   7  16
BRANCH   9  19
ATOM     19  O   UNL     1       7.953   4.323  32.851  0.00  0.00    -0.390 OA
ATOM     20  H   UNL     1       7.920   4.948  33.578  0.00  0.00    +0.210 HD
ENDBRANCH   9  19
BRANCH   7  21
ATOM     21  O   UNL     1       6.738  -0.202  34.082  0.00  0.00    -0.343 OA
ATOM     22  C   UNL     1       5.753  -1.168  34.529  0.00  0.00    +0.198 C 
ENDBRANCH   7  21
ENDBRANCH   4   5
BRANCH   4  23
ATOM     23  O   UNL     1       4.208   2.927  36.579  0.00  0.00    -0.387 OA
ATOM     24  H   UNL     1       5.098   2.575  36.497  0.00  0.00    +0.210 HD
ENDBRANCH   4  23
ENDBRANCH   1   4
BRANCH   1  25
ATOM     25  C   UNL     1       1.582   3.375  33.958  0.00  0.00    +0.141 C 
BRANCH  25  28
ATOM     26  C   UNL     1       1.783   3.572  31.503  0.00  0.00    +0.401 C 
ATOM     27  O   UNL     1       1.511   4.775  31.483  0.00  0.00    -0.226 OA
ATOM     28  N   UNL     1       1.832   2.838  32.615  0.00  0.00    -0.279 N 
ATOM     29  H   UNL     1       2.055   1.856  32.528  0.00  0.00    +0.152 HD
BRANCH  26  30
ATOM     30  O   UNL     1       2.061   2.903  30.271  0.00  0.00    -0.444 OA
BRANCH  30  31
ATOM     31  C   UNL     1       0.845   2.723  29.539  0.00  0.00    +0.292 C 
BRANCH  31  33
ATOM     32  N   UNL     1       2.206   3.647  27.683  0.00  0.00    -0.131 NA
ATOM     33  C   UNL     1       0.987   3.247  28.168  0.00  0.00    +0.120 A 
ATOM     34  C   UNL     1       0.034   3.428  27.193  0.00  0.00    +0.139 A 
ATOM     35  N   UNL     1       0.727   3.966  26.149  0.00  0.00    -0.226 N 
ATOM     36  N   UNL     1       2.037   4.075  26.439  0.00  0.00    -0.063 NA
BRANCH  35  37
ATOM     37  C   UNL     1       0.235   4.355  24.839  0.00  0.00    +0.305 C 
BRANCH  37  38
ATOM     38  O   UNL     1       1.206   4.012  23.853  0.00  0.00    -0.353 OA
BRANCH  38  39
ATOM     39  C   UNL     1       1.493   5.107  22.994  0.00  0.00    +0.197 C 
BRANCH  39  40
ATOM     40  C   UNL     1       1.100   4.702  21.599  0.00  0.00    -0.022 A 
ATOM     41  C   UNL     1      -0.169   5.018  21.095  0.00  0.00    +0.006 A 
ATOM     42  C   UNL     1      -0.546   4.608  19.815  0.00  0.00    +0.000 A 
ATOM     43  C   UNL     1       0.338   3.871  19.030  0.00  0.00    +0.000 A 
ATOM     44  C   UNL     1       1.599   3.540  19.523  0.00  0.00    +0.000 A 
ATOM     45  C   UNL     1       1.977   3.950  20.803  0.00  0.00    +0.006 A 
ENDBRANCH  39  40
ENDBRANCH  38  39
ENDBRANCH  37  38
ENDBRANCH  35  37
ENDBRANCH  31  33
ENDBRANCH  30  31
ENDBRANCH  26  30
ENDBRANCH  25  28
ENDBRANCH   1  25
TORSDOF 17
