REMARK VINA RESULT:    -6.254     13.880     16.073
REMARK INTER + INTRA:         -13.095
REMARK INTER:                 -11.392
REMARK INTRA:                  -1.703
REMARK UNBOUND:                -1.905
REMARK  Name = lig_assembled_38.pdb
REMARK  17 active torsions:
REMARK  status: ('A' for Active; 'I' for Inactive)
REMARK    1  A    between atoms: _2  and  _9
REMARK    2  A    between atoms: _4  and  _19
REMARK    3  A    between atoms: _6  and  _7
REMARK    4  A    between atoms: _6  and  _19
REMARK    5  A    between atoms: _9  and  _10
REMARK    6  A    between atoms: _15  and  _35
REMARK    7  A    between atoms: _17  and  _23
REMARK    8  A    between atoms: _18  and  _22
REMARK    9  A    between atoms: _22  and  _23
REMARK   10  A    between atoms: _25  and  _26
REMARK   11  A    between atoms: _27  and  _28
REMARK   12  A    between atoms: _29  and  _31
REMARK   13  A    between atoms: _31  and  _32
REMARK   14  A    between atoms: _31  and  _33
REMARK   15  A    between atoms: _33  and  _34
REMARK   16  A    between atoms: _33  and  _35
REMARK   17  A    between atoms: _36  and  _38
REMARK                            x       y       z     vdW  Elec       q    Type
REMARK                         _______ _______ _______ _____ _____    ______ ____
ROOT
ATOM      1  C   UNL     1      19.035   7.245  29.912  0.00  0.00    +0.163 C 
ENDROOT
BRANCH   1   2
ATOM      2  O   UNL     1      18.341   6.005  30.132  0.00  0.00    -0.388 OA
ATOM      3  H   UNL     1      17.784   5.811  29.375  0.00  0.00    +0.210 HD
ENDBRANCH   1   2
BRANCH   1   4
ATOM      4  C   UNL     1      20.093   7.065  28.829  0.00  0.00    +0.141 C 
BRANCH   4   7
ATOM      5  C   UNL     1      19.768   7.668  26.455  0.00  0.00    +0.401 C 
ATOM      6  O   UNL     1      20.543   8.626  26.494  0.00  0.00    -0.226 OA
ATOM      7  N   UNL     1      19.493   6.888  27.501  0.00  0.00    -0.279 N 
ATOM      8  H   UNL     1      18.836   6.131  27.372  0.00  0.00    +0.152 HD
BRANCH   5   9
ATOM      9  O   UNL     1      19.107   7.360  25.225  0.00  0.00    -0.444 OA
BRANCH   9  10
ATOM     10  C   UNL     1      19.531   6.073  24.765  0.00  0.00    +0.292 C 
BRANCH  10  12
ATOM     11  N   UNL     1      17.651   6.297  23.167  0.00  0.00    -0.131 NA
ATOM     12  C   UNL     1      18.522   5.495  23.855  0.00  0.00    +0.120 A 
ATOM     13  C   UNL     1      18.292   4.181  23.510  0.00  0.00    +0.137 A 
ATOM     14  N   UNL     1      17.308   4.255  22.567  0.00  0.00    -0.247 N 
ATOM     15  N   UNL     1      16.917   5.529  22.375  0.00  0.00    -0.065 NA
BRANCH  14  16
ATOM     16  C   UNL     1      16.870   3.209  21.660  0.00  0.00    +0.180 C 
BRANCH  16  17
ATOM     17  C   UNL     1      17.460   1.856  21.973  0.00  0.00    -0.025 A 
ATOM     18  C   UNL     1      18.500   1.326  21.194  0.00  0.00    +0.005 A 
ATOM     19  C   UNL     1      19.103   0.113  21.543  0.00  0.00    +0.001 A 
ATOM     20  C   UNL     1      18.674  -0.583  22.672  0.00  0.00    +0.015 A 
ATOM     21  C   UNL     1      17.636  -0.069  23.442  0.00  0.00    +0.018 A 
ATOM     22 BR   UNL     1      17.057  -1.005  24.980  0.00  0.00    -0.050 Br
ATOM     23  C   UNL     1      17.028   1.142  23.102  0.00  0.00    +0.020 A 
ENDBRANCH  16  17
ENDBRANCH  14  16
ENDBRANCH  10  12
ENDBRANCH   9  10
ENDBRANCH   5   9
ENDBRANCH   4   7
ENDBRANCH   1   4
BRANCH   1  24
ATOM     24  C   UNL     1      19.702   7.740  31.206  0.00  0.00    +0.175 C 
BRANCH  24  25
ATOM     25  C   UNL     1      18.733   8.543  32.086  0.00  0.00    +0.176 C 
ATOM     26  O   UNL     1      17.760   7.616  32.640  0.00  0.00    -0.332 OA
ATOM     27  C   UNL     1      16.810   8.192  33.597  0.00  0.00    +0.277 C 
ATOM     28  C   UNL     1      16.080   9.405  32.971  0.00  0.00    +0.110 C 
ATOM     29  C   UNL     1      17.073  10.404  32.340  0.00  0.00    +0.143 C 
ATOM     30  C   UNL     1      18.015   9.698  31.364  0.00  0.00    +0.133 C 
BRANCH  30  31
ATOM     31  N   UNL     1      19.011  10.643  30.836  0.00  0.00    -0.308 N 
ATOM     32  H   UNL     1      19.687  11.027  31.482  0.00  0.00    +0.149 HD
ATOM     33  C   UNL     1      19.082  11.027  29.559  0.00  0.00    +0.210 C 
ATOM     34  C   UNL     1      18.022  10.445  28.604  0.00  0.00    +0.109 C 
ATOM     35  O   UNL     1      19.937  11.809  29.141  0.00  0.00    -0.276 OA
ENDBRANCH  30  31
BRANCH  27  36
ATOM     36  C   UNL     1      17.532   8.633  34.887  0.00  0.00    +0.414 C 
ATOM     37  O   UNL     1      18.510   8.008  35.295  0.00  0.00    -0.240 OA
ATOM     38  O   UNL     1      17.138   9.615  35.518  0.00  0.00    -0.240 OA
ENDBRANCH  27  36
BRANCH  27  39
ATOM     39  O   UNL     1      15.822   7.177  33.914  0.00  0.00    -0.343 OA
ATOM     40  C   UNL     1      16.078   5.872  33.338  0.00  0.00    +0.198 C 
ENDBRANCH  27  39
BRANCH  29  41
ATOM     41  O   UNL     1      16.354  11.424  31.646  0.00  0.00    -0.390 OA
ATOM     42  H   UNL     1      15.920  11.045  30.879  0.00  0.00    +0.210 HD
ENDBRANCH  29  41
ENDBRANCH  24  25
BRANCH  24  43
ATOM     43  O   UNL     1      20.864   8.534  30.893  0.00  0.00    -0.387 OA
ATOM     44  H   UNL     1      20.692   9.453  31.110  0.00  0.00    +0.210 HD
ENDBRANCH  24  43
ENDBRANCH   1  24
TORSDOF 15
