REMARK VINA RESULT:    -6.271      4.052      9.817
REMARK INTER + INTRA:         -13.666
REMARK INTER:                 -11.291
REMARK INTRA:                  -2.375
REMARK UNBOUND:                -2.078
REMARK  Name = lig_assembled_14.pdb
REMARK  18 active torsions:
REMARK  status: ('A' for Active; 'I' for Inactive)
REMARK    1  A    between atoms: _2  and  _10
REMARK    2  A    between atoms: _3  and  _11
REMARK    3  A    between atoms: _5  and  _19
REMARK    4  A    between atoms: _7  and  _8
REMARK    5  A    between atoms: _7  and  _19
REMARK    6  A    between atoms: _10  and  _11
REMARK    7  A    between atoms: _15  and  _35
REMARK    8  A    between atoms: _17  and  _23
REMARK    9  A    between atoms: _18  and  _22
REMARK   10  A    between atoms: _22  and  _23
REMARK   11  A    between atoms: _25  and  _26
REMARK   12  A    between atoms: _27  and  _28
REMARK   13  A    between atoms: _29  and  _31
REMARK   14  A    between atoms: _31  and  _32
REMARK   15  A    between atoms: _31  and  _33
REMARK   16  A    between atoms: _33  and  _34
REMARK   17  A    between atoms: _33  and  _35
REMARK   18  A    between atoms: _36  and  _38
REMARK                            x       y       z     vdW  Elec       q    Type
REMARK                         _______ _______ _______ _____ _____    ______ ____
ROOT
ATOM      1  C   UNL     1      17.712   4.131  22.581  0.00  0.00    +0.163 C 
ENDROOT
BRANCH   1   2
ATOM      2  O   UNL     1      16.973   5.277  23.035  0.00  0.00    -0.388 OA
ATOM      3  H   UNL     1      16.191   4.987  23.511  0.00  0.00    +0.210 HD
ENDBRANCH   1   2
BRANCH   1   4
ATOM      4  C   UNL     1      18.299   3.349  23.769  0.00  0.00    +0.175 C 
BRANCH   4   5
ATOM      5  C   UNL     1      18.359   4.199  25.047  0.00  0.00    +0.176 C 
ATOM      6  O   UNL     1      19.617   4.929  25.040  0.00  0.00    -0.332 OA
ATOM      7  C   UNL     1      19.804   5.880  26.140  0.00  0.00    +0.277 C 
ATOM      8  C   UNL     1      19.617   5.173  27.504  0.00  0.00    +0.110 C 
ATOM      9  C   UNL     1      18.308   4.357  27.549  0.00  0.00    +0.143 C 
ATOM     10  C   UNL     1      18.215   3.403  26.357  0.00  0.00    +0.133 C 
BRANCH  10  11
ATOM     11  N   UNL     1      16.926   2.695  26.363  0.00  0.00    -0.308 N 
ATOM     12  H   UNL     1      16.086   3.242  26.233  0.00  0.00    +0.149 HD
ATOM     13  C   UNL     1      16.791   1.376  26.529  0.00  0.00    +0.210 C 
ATOM     14  C   UNL     1      18.087   0.574  26.751  0.00  0.00    +0.109 C 
ATOM     15  O   UNL     1      15.699   0.808  26.515  0.00  0.00    -0.276 OA
ENDBRANCH  10  11
BRANCH   7  16
ATOM     16  C   UNL     1      18.806   7.052  26.025  0.00  0.00    +0.414 C 
ATOM     17  O   UNL     1      18.040   7.122  25.065  0.00  0.00    -0.240 OA
ATOM     18  O   UNL     1      18.768   7.926  26.892  0.00  0.00    -0.240 OA
ENDBRANCH   7  16
BRANCH   9  19
ATOM     19  O   UNL     1      18.250   3.604  28.761  0.00  0.00    -0.390 OA
ATOM     20  H   UNL     1      18.926   2.922  28.747  0.00  0.00    +0.210 HD
ENDBRANCH   9  19
BRANCH   7  21
ATOM     21  O   UNL     1      21.162   6.386  26.069  0.00  0.00    -0.343 OA
ATOM     22  C   UNL     1      21.556   6.904  24.773  0.00  0.00    +0.198 C 
ENDBRANCH   7  21
ENDBRANCH   4   5
BRANCH   4  23
ATOM     23  O   UNL     1      19.612   2.856  23.438  0.00  0.00    -0.387 OA
ATOM     24  H   UNL     1      19.813   2.091  23.983  0.00  0.00    +0.210 HD
ENDBRANCH   4  23
ENDBRANCH   1   4
BRANCH   1  25
ATOM     25  C   UNL     1      16.805   3.215  21.766  0.00  0.00    +0.141 C 
BRANCH  25  28
ATOM     26  C   UNL     1      17.610   1.289  20.444  0.00  0.00    +0.401 C 
ATOM     27  O   UNL     1      17.365   1.813  19.356  0.00  0.00    -0.226 OA
ATOM     28  N   UNL     1      17.374   1.869  21.622  0.00  0.00    -0.279 N 
ATOM     29  H   UNL     1      17.600   1.355  22.461  0.00  0.00    +0.152 HD
BRANCH  26  30
ATOM     30  O   UNL     1      18.177  -0.024  20.471  0.00  0.00    -0.444 OA
BRANCH  30  31
ATOM     31  C   UNL     1      19.118  -0.116  21.544  0.00  0.00    +0.292 C 
BRANCH  31  33
ATOM     32  N   UNL     1      19.355  -2.511  22.119  0.00  0.00    -0.131 NA
ATOM     33  C   UNL     1      18.817  -1.282  22.395  0.00  0.00    +0.120 A 
ATOM     34  C   UNL     1      18.014  -1.381  23.510  0.00  0.00    +0.137 A 
ATOM     35  N   UNL     1      18.098  -2.696  23.854  0.00  0.00    -0.250 N 
ATOM     36  N   UNL     1      18.910  -3.371  23.022  0.00  0.00    -0.065 NA
BRANCH  35  37
ATOM     37  C   UNL     1      17.399  -3.390  24.914  0.00  0.00    +0.160 C 
BRANCH  37  38
ATOM     38  C   UNL     1      15.881  -3.198  24.819  0.00  0.00    +0.107 C 
BRANCH  38  39
ATOM     39  N   UNL     1      15.209  -4.285  24.086  0.00  0.00    -0.301 NA
ATOM     40  C   UNL     1      15.314  -4.149  22.630  0.00  0.00    +0.084 C 
ATOM     41  C   UNL     1      14.942  -5.535  22.143  0.00  0.00    +0.017 C 
ATOM     42  C   UNL     1      15.572  -6.460  23.168  0.00  0.00    +0.017 C 
ATOM     43  C   UNL     1      15.787  -5.599  24.409  0.00  0.00    +0.084 C 
ENDBRANCH  38  39
ENDBRANCH  37  38
ENDBRANCH  35  37
ENDBRANCH  31  33
ENDBRANCH  30  31
ENDBRANCH  26  30
ENDBRANCH  25  28
ENDBRANCH   1  25
TORSDOF 16
