REMARK VINA RESULT:    -5.711     18.820     20.761
REMARK INTER + INTRA:         -14.140
REMARK INTER:                 -10.370
REMARK INTRA:                  -3.770
REMARK UNBOUND:                -3.588
REMARK  Name = lig_assembled_58.pdb
REMARK  18 active torsions:
REMARK  status: ('A' for Active; 'I' for Inactive)
REMARK    1  A    between atoms: _2  and  _9
REMARK    2  A    between atoms: _4  and  _25
REMARK    3  A    between atoms: _6  and  _7
REMARK    4  A    between atoms: _6  and  _25
REMARK    5  A    between atoms: _9  and  _10
REMARK    6  A    between atoms: _9  and  _16
REMARK    7  A    between atoms: _21  and  _41
REMARK    8  A    between atoms: _23  and  _29
REMARK    9  A    between atoms: _24  and  _28
REMARK   10  A    between atoms: _28  and  _29
REMARK   11  A    between atoms: _31  and  _32
REMARK   12  A    between atoms: _33  and  _34
REMARK   13  A    between atoms: _35  and  _37
REMARK   14  A    between atoms: _37  and  _38
REMARK   15  A    between atoms: _37  and  _39
REMARK   16  A    between atoms: _39  and  _40
REMARK   17  A    between atoms: _39  and  _41
REMARK   18  A    between atoms: _42  and  _44
REMARK                            x       y       z     vdW  Elec       q    Type
REMARK                         _______ _______ _______ _____ _____    ______ ____
ROOT
ATOM      1  C   UNL     1      -5.171   1.150  25.711  0.00  0.00    +0.141 C 
ENDROOT
BRANCH   1   4
ATOM      2  C   UNL     1      -4.968   3.539  25.116  0.00  0.00    +0.401 C 
ATOM      3  O   UNL     1      -5.457   3.941  26.174  0.00  0.00    -0.226 OA
ATOM      4  N   UNL     1      -4.803   2.251  24.813  0.00  0.00    -0.279 N 
ATOM      5  H   UNL     1      -4.401   2.020  23.915  0.00  0.00    +0.152 HD
BRANCH   2   6
ATOM      6  O   UNL     1      -4.550   4.494  24.137  0.00  0.00    -0.444 OA
BRANCH   6   7
ATOM      7  C   UNL     1      -4.114   3.811  22.959  0.00  0.00    +0.292 C 
BRANCH   7   9
ATOM      8  N   UNL     1      -2.628   5.744  22.475  0.00  0.00    -0.131 NA
ATOM      9  C   UNL     1      -2.851   4.393  22.468  0.00  0.00    +0.120 A 
ATOM     10  C   UNL     1      -1.731   3.758  21.985  0.00  0.00    +0.138 A 
ATOM     11  N   UNL     1      -0.803   4.757  21.863  0.00  0.00    -0.240 N 
ATOM     12  N   UNL     1      -1.379   5.961  22.083  0.00  0.00    -0.064 NA
BRANCH  11  13
ATOM     13  C   UNL     1       0.641   4.663  21.581  0.00  0.00    +0.169 C 
BRANCH  13  14
ATOM     14  C   UNL     1       1.346   3.892  22.706  0.00  0.00    -0.019 A 
ATOM     15  C   UNL     1       1.464   2.493  22.637  0.00  0.00    +0.006 A 
ATOM     16  C   UNL     1       2.052   1.776  23.683  0.00  0.00    +0.000 A 
ATOM     17  C   UNL     1       2.542   2.442  24.805  0.00  0.00    +0.000 A 
ATOM     18  C   UNL     1       2.432   3.825  24.893  0.00  0.00    +0.000 A 
ATOM     19  C   UNL     1       1.829   4.541  23.859  0.00  0.00    +0.006 A 
ENDBRANCH  13  14
BRANCH  13  20
ATOM     20  C   UNL     1       0.937   4.153  20.163  0.00  0.00    -0.019 A 
ATOM     21  C   UNL     1       2.113   3.436  19.878  0.00  0.00    +0.006 A 
ATOM     22  C   UNL     1       2.378   2.976  18.585  0.00  0.00    +0.000 A 
ATOM     23  C   UNL     1       1.465   3.204  17.560  0.00  0.00    +0.000 A 
ATOM     24  C   UNL     1       0.272   3.862  17.830  0.00  0.00    +0.000 A 
ATOM     25  C   UNL     1       0.003   4.314  19.121  0.00  0.00    +0.006 A 
ENDBRANCH  13  20
ENDBRANCH  11  13
ENDBRANCH   7   9
ENDBRANCH   6   7
ENDBRANCH   2   6
ENDBRANCH   1   4
BRANCH   1  26
ATOM     26  C   UNL     1      -3.944   0.458  26.296  0.00  0.00    +0.163 C 
BRANCH  26  27
ATOM     27  O   UNL     1      -2.784   0.761  25.503  0.00  0.00    -0.388 OA
ATOM     28  H   UNL     1      -3.041   1.304  24.754  0.00  0.00    +0.210 HD
ENDBRANCH  26  27
BRANCH  26  29
ATOM     29  C   UNL     1      -3.746   0.909  27.754  0.00  0.00    +0.175 C 
BRANCH  29  30
ATOM     30  C   UNL     1      -2.964   2.227  27.850  0.00  0.00    +0.176 C 
ATOM     31  O   UNL     1      -1.546   1.912  27.783  0.00  0.00    -0.332 OA
ATOM     32  C   UNL     1      -0.641   3.064  27.755  0.00  0.00    +0.277 C 
ATOM     33  C   UNL     1      -0.913   3.997  28.960  0.00  0.00    +0.110 C 
ATOM     34  C   UNL     1      -2.413   4.335  29.091  0.00  0.00    +0.143 C 
ATOM     35  C   UNL     1      -3.263   3.064  29.108  0.00  0.00    +0.133 C 
BRANCH  35  36
ATOM     36  N   UNL     1      -4.695   3.401  29.145  0.00  0.00    -0.308 N 
ATOM     37  H   UNL     1      -5.080   3.909  28.361  0.00  0.00    +0.149 HD
ATOM     38  C   UNL     1      -5.518   3.081  30.147  0.00  0.00    +0.210 C 
ATOM     39  C   UNL     1      -4.894   2.330  31.339  0.00  0.00    +0.109 C 
ATOM     40  O   UNL     1      -6.716   3.364  30.144  0.00  0.00    -0.276 OA
ENDBRANCH  35  36
BRANCH  32  41
ATOM     41  C   UNL     1      -0.807   3.857  26.442  0.00  0.00    +0.414 C 
ATOM     42  O   UNL     1      -1.131   3.279  25.405  0.00  0.00    -0.240 OA
ATOM     43  O   UNL     1      -0.617   5.074  26.419  0.00  0.00    -0.240 OA
ENDBRANCH  32  41
BRANCH  34  44
ATOM     44  O   UNL     1      -2.639   5.068  30.296  0.00  0.00    -0.390 OA
ATOM     45  H   UNL     1      -2.838   4.458  31.010  0.00  0.00    +0.210 HD
ENDBRANCH  34  44
BRANCH  32  46
ATOM     46  O   UNL     1       0.719   2.569  27.858  0.00  0.00    -0.343 OA
ATOM     47  C   UNL     1       1.552   3.262  28.822  0.00  0.00    +0.198 C 
ENDBRANCH  32  46
ENDBRANCH  29  30
BRANCH  29  48
ATOM     48  O   UNL     1      -3.077  -0.122  28.506  0.00  0.00    -0.387 OA
ATOM     49  H   UNL     1      -2.556  -0.666  27.911  0.00  0.00    +0.210 HD
ENDBRANCH  29  48
ENDBRANCH  26  29
ENDBRANCH   1  26
TORSDOF 16
