REMARK VINA RESULT:    -5.225      6.387     10.538
REMARK INTER + INTRA:         -12.808
REMARK INTER:                  -9.218
REMARK INTRA:                  -3.590
REMARK UNBOUND:                -3.154
REMARK  Name = lig_assembled_67.pdb
REMARK  18 active torsions:
REMARK  status: ('A' for Active; 'I' for Inactive)
REMARK    1  A    between atoms: _2  and  _9
REMARK    2  A    between atoms: _4  and  _19
REMARK    3  A    between atoms: _6  and  _7
REMARK    4  A    between atoms: _6  and  _19
REMARK    5  A    between atoms: _9  and  _10
REMARK    6  A    between atoms: _10  and  _11
REMARK    7  A    between atoms: _15  and  _35
REMARK    8  A    between atoms: _17  and  _23
REMARK    9  A    between atoms: _18  and  _22
REMARK   10  A    between atoms: _22  and  _23
REMARK   11  A    between atoms: _25  and  _26
REMARK   12  A    between atoms: _27  and  _28
REMARK   13  A    between atoms: _29  and  _31
REMARK   14  A    between atoms: _31  and  _32
REMARK   15  A    between atoms: _31  and  _33
REMARK   16  A    between atoms: _33  and  _34
REMARK   17  A    between atoms: _33  and  _35
REMARK   18  A    between atoms: _36  and  _38
REMARK                            x       y       z     vdW  Elec       q    Type
REMARK                         _______ _______ _______ _____ _____    ______ ____
ROOT
ATOM      1  C   UNL     1       5.498   2.282  31.815  0.00  0.00    +0.163 C 
ENDROOT
BRANCH   1   2
ATOM      2  O   UNL     1       6.493   3.319  31.800  0.00  0.00    -0.388 OA
ATOM      3  H   UNL     1       6.088   4.155  32.041  0.00  0.00    +0.210 HD
ENDBRANCH   1   2
BRANCH   1   4
ATOM      4  C   UNL     1       5.939   1.110  32.709  0.00  0.00    +0.175 C 
BRANCH   4   5
ATOM      5  C   UNL     1       6.697   1.588  33.956  0.00  0.00    +0.176 C 
ATOM      6  O   UNL     1       8.115   1.621  33.632  0.00  0.00    -0.332 OA
ATOM      7  C   UNL     1       8.991   2.158  34.678  0.00  0.00    +0.277 C 
ATOM      8  C   UNL     1       8.776   1.396  36.008  0.00  0.00    +0.110 C 
ATOM      9  C   UNL     1       7.281   1.307  36.378  0.00  0.00    +0.143 C 
ATOM     10  C   UNL     1       6.462   0.738  35.219  0.00  0.00    +0.133 C 
BRANCH  10  11
ATOM     11  N   UNL     1       5.028   0.740  35.551  0.00  0.00    -0.308 N 
ATOM     12  H   UNL     1       4.605   1.620  35.809  0.00  0.00    +0.149 HD
ATOM     13  C   UNL     1       4.251  -0.346  35.535  0.00  0.00    +0.210 C 
ATOM     14  C   UNL     1       4.932  -1.677  35.163  0.00  0.00    +0.109 C 
ATOM     15  O   UNL     1       3.049  -0.313  35.804  0.00  0.00    -0.276 OA
ENDBRANCH  10  11
BRANCH   7  16
ATOM     16  C   UNL     1       8.725   3.662  34.896  0.00  0.00    +0.414 C 
ATOM     17  O   UNL     1       9.001   4.191  35.972  0.00  0.00    -0.240 OA
ATOM     18  O   UNL     1       8.234   4.346  33.997  0.00  0.00    -0.240 OA
ENDBRANCH   7  16
BRANCH   9  19
ATOM     19  O   UNL     1       7.117   0.471  37.524  0.00  0.00    -0.390 OA
ATOM     20  H   UNL     1       6.257   0.633  37.919  0.00  0.00    +0.210 HD
ENDBRANCH   9  19
BRANCH   7  21
ATOM     21  O   UNL     1      10.365   1.962  34.255  0.00  0.00    -0.343 OA
ATOM     22  C   UNL     1      11.265   1.497  35.293  0.00  0.00    +0.198 C 
ENDBRANCH   7  21
ENDBRANCH   4   5
BRANCH   4  23
ATOM     23  O   UNL     1       6.753   0.189  31.956  0.00  0.00    -0.387 OA
ATOM     24  H   UNL     1       7.056  -0.516  32.532  0.00  0.00    +0.210 HD
ENDBRANCH   4  23
ENDBRANCH   1   4
BRANCH   1  25
ATOM     25  C   UNL     1       4.172   2.839  32.322  0.00  0.00    +0.141 C 
BRANCH  25  28
ATOM     26  C   UNL     1       4.111   4.198  34.384  0.00  0.00    +0.401 C 
ATOM     27  O   UNL     1       3.698   3.277  35.092  0.00  0.00    -0.226 OA
ATOM     28  N   UNL     1       4.354   4.084  33.078  0.00  0.00    -0.279 N 
ATOM     29  H   UNL     1       4.682   4.900  32.580  0.00  0.00    +0.152 HD
BRANCH  26  30
ATOM     30  O   UNL     1       4.347   5.478  34.977  0.00  0.00    -0.444 OA
BRANCH  30  31
ATOM     31  C   UNL     1       5.211   6.244  34.133  0.00  0.00    +0.292 C 
BRANCH  31  33
ATOM     32  N   UNL     1       7.142   7.775  34.358  0.00  0.00    -0.131 NA
ATOM     33  C   UNL     1       6.288   6.865  34.926  0.00  0.00    +0.120 A 
ATOM     34  C   UNL     1       6.634   6.690  36.247  0.00  0.00    +0.137 A 
ATOM     35  N   UNL     1       7.703   7.515  36.419  0.00  0.00    -0.251 N 
ATOM     36  N   UNL     1       8.008   8.164  35.284  0.00  0.00    -0.065 NA
BRANCH  35  37
ATOM     37  C   UNL     1       8.470   7.747  37.623  0.00  0.00    +0.150 C 
BRANCH  37  38
ATOM     38  C   UNL     1       7.718   7.396  38.904  0.00  0.00    +0.084 C 
BRANCH  38  39
ATOM     39  C   UNL     1       8.411   6.303  39.705  0.00  0.00    +0.252 C 
ATOM     40  O   UNL     1       7.937   5.015  39.295  0.00  0.00    -0.349 OA
ATOM     41  C   UNL     1       9.054   4.164  39.542  0.00  0.00    +0.191 C 
ATOM     42  C   UNL     1      10.236   5.033  39.197  0.00  0.00    +0.191 C 
ATOM     43  O   UNL     1       9.827   6.365  39.514  0.00  0.00    -0.349 OA
ENDBRANCH  38  39
ENDBRANCH  37  38
ENDBRANCH  35  37
ENDBRANCH  31  33
ENDBRANCH  30  31
ENDBRANCH  26  30
ENDBRANCH  25  28
ENDBRANCH   1  25
TORSDOF 16
