REMARK VINA RESULT:    -6.248     12.332     14.664
REMARK INTER + INTRA:         -13.475
REMARK INTER:                 -12.062
REMARK INTRA:                  -1.413
REMARK UNBOUND:                -2.296
REMARK  Name = lig_assembled_63.pdb
REMARK  17 active torsions:
REMARK  status: ('A' for Active; 'I' for Inactive)
REMARK    1  A    between atoms: _2  and  _11
REMARK    2  A    between atoms: _6  and  _20
REMARK    3  A    between atoms: _7  and  _15
REMARK    4  A    between atoms: _8  and  _9
REMARK    5  A    between atoms: _8  and  _20
REMARK    6  A    between atoms: _16  and  _36
REMARK    7  A    between atoms: _18  and  _24
REMARK    8  A    between atoms: _19  and  _23
REMARK    9  A    between atoms: _23  and  _24
REMARK   10  A    between atoms: _26  and  _27
REMARK   11  A    between atoms: _28  and  _29
REMARK   12  A    between atoms: _30  and  _32
REMARK   13  A    between atoms: _32  and  _33
REMARK   14  A    between atoms: _32  and  _34
REMARK   15  A    between atoms: _34  and  _35
REMARK   16  A    between atoms: _34  and  _36
REMARK   17  A    between atoms: _37  and  _39
REMARK                            x       y       z     vdW  Elec       q    Type
REMARK                         _______ _______ _______ _____ _____    ______ ____
ROOT
ATOM      1  C   UNL     1       7.605   2.559  34.443  0.00  0.00    +0.163 C 
ENDROOT
BRANCH   1   2
ATOM      2  O   UNL     1       8.250   2.484  35.725  0.00  0.00    -0.388 OA
ATOM      3  H   UNL     1       8.900   3.187  35.799  0.00  0.00    +0.210 HD
ENDBRANCH   1   2
BRANCH   1   4
ATOM      4  C   UNL     1       8.114   1.443  33.537  0.00  0.00    +0.141 C 
BRANCH   4   7
ATOM      5  C   UNL     1       6.115   0.396  32.528  0.00  0.00    +0.401 C 
ATOM      6  O   UNL     1       5.891   1.339  31.766  0.00  0.00    -0.226 OA
ATOM      7  N   UNL     1       7.129   0.363  33.394  0.00  0.00    -0.279 N 
ATOM      8  H   UNL     1       7.226  -0.451  33.985  0.00  0.00    +0.152 HD
BRANCH   5   9
ATOM      9  O   UNL     1       5.247  -0.740  32.503  0.00  0.00    -0.444 OA
BRANCH   9  10
ATOM     10  C   UNL     1       5.987  -1.898  32.109  0.00  0.00    +0.292 C 
BRANCH  10  12
ATOM     11  N   UNL     1       7.410  -1.948  30.089  0.00  0.00    -0.131 NA
ATOM     12  C   UNL     1       6.164  -1.922  30.645  0.00  0.00    +0.121 A 
ATOM     13  C   UNL     1       5.227  -1.908  29.639  0.00  0.00    +0.145 A 
ATOM     14  N   UNL     1       5.960  -1.888  28.469  0.00  0.00    -0.200 N 
ATOM     15  N   UNL     1       7.276  -1.935  28.770  0.00  0.00    -0.059 NA
BRANCH  14  16
ATOM     16  C   UNL     1       5.441  -1.773  27.145  0.00  0.00    +0.173 A 
ATOM     17  C   UNL     1       6.171  -2.161  26.019  0.00  0.00    +0.096 A 
ATOM     18  C   UNL     1       5.603  -1.913  24.757  0.00  0.00    +0.024 A 
ATOM     19  C   UNL     1       4.345  -1.325  24.651  0.00  0.00    +0.021 A 
ATOM     20  C   UNL     1       3.677  -1.009  25.816  0.00  0.00    +0.113 A 
ATOM     21  N   UNL     1       4.193  -1.213  27.046  0.00  0.00    -0.235 NA
BRANCH  17  22
ATOM     22  C   UNL     1       7.448  -2.812  26.037  0.00  0.00    +0.103 C 
ATOM     23  N   UNL     1       8.523  -3.247  26.088  0.00  0.00    -0.191 NA
ENDBRANCH  17  22
ENDBRANCH  14  16
ENDBRANCH  10  12
ENDBRANCH   9  10
ENDBRANCH   5   9
ENDBRANCH   4   7
ENDBRANCH   1   4
BRANCH   1  24
ATOM     24  C   UNL     1       7.865   3.921  33.776  0.00  0.00    +0.175 C 
BRANCH  24  25
ATOM     25  C   UNL     1       7.229   5.079  34.559  0.00  0.00    +0.176 C 
ATOM     26  O   UNL     1       7.970   5.241  35.800  0.00  0.00    -0.332 OA
ATOM     27  C   UNL     1       7.568   6.376  36.635  0.00  0.00    +0.277 C 
ATOM     28  C   UNL     1       6.051   6.316  36.936  0.00  0.00    +0.110 C 
ATOM     29  C   UNL     1       5.222   6.113  35.650  0.00  0.00    +0.143 C 
ATOM     30  C   UNL     1       5.728   4.907  34.857  0.00  0.00    +0.133 C 
BRANCH  30  31
ATOM     31  N   UNL     1       4.988   4.776  33.591  0.00  0.00    -0.308 N 
ATOM     32  H   UNL     1       5.147   5.473  32.877  0.00  0.00    +0.149 HD
ATOM     33  C   UNL     1       4.119   3.797  33.326  0.00  0.00    +0.210 C 
ATOM     34  C   UNL     1       3.879   2.766  34.444  0.00  0.00    +0.109 C 
ATOM     35  O   UNL     1       3.525   3.704  32.251  0.00  0.00    -0.276 OA
ENDBRANCH  30  31
BRANCH  27  36
ATOM     36  C   UNL     1       7.903   7.712  35.939  0.00  0.00    +0.414 C 
ATOM     37  O   UNL     1       8.210   8.699  36.607  0.00  0.00    -0.240 OA
ATOM     38  O   UNL     1       7.867   7.803  34.712  0.00  0.00    -0.240 OA
ENDBRANCH  27  36
BRANCH  27  39
ATOM     39  O   UNL     1       8.288   6.286  37.891  0.00  0.00    -0.343 OA
ATOM     40  C   UNL     1       9.547   5.569  37.826  0.00  0.00    +0.198 C 
ENDBRANCH  27  39
BRANCH  29  41
ATOM     41  O   UNL     1       3.849   5.912  35.988  0.00  0.00    -0.390 OA
ATOM     42  H   UNL     1       3.785   5.279  36.706  0.00  0.00    +0.210 HD
ENDBRANCH  29  41
ENDBRANCH  24  25
BRANCH  24  43
ATOM     43  O   UNL     1       7.377   3.911  32.420  0.00  0.00    -0.387 OA
ATOM     44  H   UNL     1       6.672   3.264  32.338  0.00  0.00    +0.210 HD
ENDBRANCH  24  43
ENDBRANCH   1  24
TORSDOF 15
