REMARK VINA RESULT:    -6.493     18.675     22.703
REMARK INTER + INTRA:         -14.327
REMARK INTER:                 -10.819
REMARK INTRA:                  -3.507
REMARK UNBOUND:                -3.089
REMARK  Name = lig_assembled_91.pdb
REMARK  16 active torsions:
REMARK  status: ('A' for Active; 'I' for Inactive)
REMARK    1  A    between atoms: _2  and  _10
REMARK    2  A    between atoms: _5  and  _26
REMARK    3  A    between atoms: _7  and  _8
REMARK    4  A    between atoms: _7  and  _26
REMARK    5  A    between atoms: _22  and  _42
REMARK    6  A    between atoms: _24  and  _30
REMARK    7  A    between atoms: _25  and  _29
REMARK    8  A    between atoms: _29  and  _30
REMARK    9  A    between atoms: _32  and  _33
REMARK   10  A    between atoms: _34  and  _35
REMARK   11  A    between atoms: _36  and  _38
REMARK   12  A    between atoms: _38  and  _39
REMARK   13  A    between atoms: _38  and  _40
REMARK   14  A    between atoms: _40  and  _41
REMARK   15  A    between atoms: _40  and  _42
REMARK   16  A    between atoms: _43  and  _45
REMARK                            x       y       z     vdW  Elec       q    Type
REMARK                         _______ _______ _______ _____ _____    ______ ____
ROOT
ATOM      1  C   UNL     1      -4.322  24.282  23.075  0.00  0.00    +0.401 C 
ATOM      2  O   UNL     1      -4.749  23.769  22.039  0.00  0.00    -0.226 OA
ATOM      3  N   UNL     1      -3.084  24.758  23.217  0.00  0.00    -0.279 N 
ATOM      4  H   UNL     1      -2.830  25.170  24.104  0.00  0.00    +0.152 HD
ENDROOT
BRANCH   3   5
ATOM      5  C   UNL     1      -2.070  24.717  22.156  0.00  0.00    +0.141 C 
BRANCH   5   6
ATOM      6  C   UNL     1      -1.104  23.551  22.338  0.00  0.00    +0.163 C 
BRANCH   6   7
ATOM      7  O   UNL     1      -1.500  22.756  23.468  0.00  0.00    -0.388 OA
ATOM      8  H   UNL     1      -1.180  23.167  24.276  0.00  0.00    +0.210 HD
ENDBRANCH   6   7
BRANCH   6   9
ATOM      9  C   UNL     1      -1.074  22.704  21.054  0.00  0.00    +0.175 C 
BRANCH   9  10
ATOM     10  C   UNL     1      -2.074  21.539  21.107  0.00  0.00    +0.176 C 
ATOM     11  O   UNL     1      -1.353  20.350  21.533  0.00  0.00    -0.332 OA
ATOM     12  C   UNL     1      -2.173  19.153  21.743  0.00  0.00    +0.277 C 
ATOM     13  C   UNL     1      -3.002  18.835  20.475  0.00  0.00    +0.110 C 
ATOM     14  C   UNL     1      -3.762  20.078  19.965  0.00  0.00    +0.143 C 
ATOM     15  C   UNL     1      -2.814  21.265  19.784  0.00  0.00    +0.133 C 
BRANCH  15  16
ATOM     16  N   UNL     1      -3.563  22.466  19.382  0.00  0.00    -0.308 N 
ATOM     17  H   UNL     1      -4.270  22.814  20.013  0.00  0.00    +0.149 HD
ATOM     18  C   UNL     1      -3.368  23.126  18.237  0.00  0.00    +0.210 C 
ATOM     19  C   UNL     1      -2.301  22.555  17.285  0.00  0.00    +0.109 C 
ATOM     20  O   UNL     1      -4.000  24.138  17.933  0.00  0.00    -0.276 OA
ENDBRANCH  15  16
BRANCH  12  21
ATOM     21  C   UNL     1      -3.122  19.344  22.945  0.00  0.00    +0.414 C 
ATOM     22  O   UNL     1      -2.761  19.998  23.922  0.00  0.00    -0.240 OA
ATOM     23  O   UNL     1      -4.248  18.844  22.937  0.00  0.00    -0.240 OA
ENDBRANCH  12  21
BRANCH  14  24
ATOM     24  O   UNL     1      -4.387  19.782  18.716  0.00  0.00    -0.390 OA
ATOM     25  H   UNL     1      -4.815  20.571  18.376  0.00  0.00    +0.210 HD
ENDBRANCH  14  24
BRANCH  12  26
ATOM     26  O   UNL     1      -1.281  18.037  21.998  0.00  0.00    -0.343 OA
ATOM     27  C   UNL     1       0.099  18.255  21.608  0.00  0.00    +0.198 C 
ENDBRANCH  12  26
ENDBRANCH   9  10
BRANCH   9  28
ATOM     28  O   UNL     1       0.258  22.205  20.819  0.00  0.00    -0.387 OA
ATOM     29  H   UNL     1       0.812  22.402  21.578  0.00  0.00    +0.210 HD
ENDBRANCH   9  28
ENDBRANCH   6   9
ENDBRANCH   5   6
ENDBRANCH   3   5
BRANCH   1  30
ATOM     30  O   UNL     1      -5.191  24.388  24.206  0.00  0.00    -0.444 OA
BRANCH  30  31
ATOM     31  C   UNL     1      -4.413  24.600  25.388  0.00  0.00    +0.292 C 
BRANCH  31  33
ATOM     32  N   UNL     1      -2.993  22.686  26.033  0.00  0.00    -0.131 NA
ATOM     33  C   UNL     1      -4.193  23.325  26.099  0.00  0.00    +0.121 A 
ATOM     34  C   UNL     1      -5.041  22.598  26.904  0.00  0.00    +0.143 A 
ATOM     35  N   UNL     1      -4.325  21.480  27.281  0.00  0.00    -0.218 N 
ATOM     36  N   UNL     1      -3.079  21.575  26.751  0.00  0.00    -0.060 NA
BRANCH  35  37
ATOM     37  C   UNL     1      -4.732  20.363  28.073  0.00  0.00    +0.085 A 
ATOM     38  C   UNL     1      -4.356  20.284  29.462  0.00  0.00    +0.026 A 
ATOM     39  C   UNL     1      -4.786  19.130  30.146  0.00  0.00    +0.074 A 
ATOM     40  C   UNL     1      -4.483  18.942  31.486  0.00  0.00    +0.028 A 
ATOM     41  C   UNL     1      -3.754  19.871  32.219  0.00  0.00    +0.002 A 
ATOM     42  C   UNL     1      -3.341  21.034  31.601  0.00  0.00    +0.001 A 
ATOM     43  N   UNL     1      -5.516  18.167  29.587  0.00  0.00    -0.247 NA
ATOM     44  C   UNL     1      -5.886  18.257  28.311  0.00  0.00    +0.074 A 
ATOM     45  C   UNL     1      -6.643  17.194  27.829  0.00  0.00    +0.028 A 
ATOM     46  C   UNL     1      -7.074  17.126  26.508  0.00  0.00    +0.002 A 
ATOM     47  C   UNL     1      -6.728  18.141  25.639  0.00  0.00    +0.001 A 
ATOM     48  C   UNL     1      -5.961  19.214  26.106  0.00  0.00    +0.012 A 
ATOM     49  C   UNL     1      -3.654  21.248  30.254  0.00  0.00    +0.012 A 
ATOM     50  C   UNL     1      -5.529  19.321  27.468  0.00  0.00    +0.026 A 
ENDBRANCH  35  37
ENDBRANCH  31  33
ENDBRANCH  30  31
ENDBRANCH   1  30
TORSDOF 14
