REMARK VINA RESULT:    -6.608      1.891      2.419
REMARK INTER + INTRA:         -13.399
REMARK INTER:                 -11.880
REMARK INTRA:                  -1.519
REMARK UNBOUND:                -1.575
REMARK  Name = lig_assembled_0.pdb
REMARK  17 active torsions:
REMARK  status: ('A' for Active; 'I' for Inactive)
REMARK    1  A    between atoms: _2  and  _10
REMARK    2  A    between atoms: _5  and  _21
REMARK    3  A    between atoms: _7  and  _8
REMARK    4  A    between atoms: _7  and  _21
REMARK    5  A    between atoms: _11  and  _12
REMARK    6  A    between atoms: _17  and  _37
REMARK    7  A    between atoms: _19  and  _25
REMARK    8  A    between atoms: _20  and  _24
REMARK    9  A    between atoms: _24  and  _25
REMARK   10  A    between atoms: _27  and  _28
REMARK   11  A    between atoms: _29  and  _30
REMARK   12  A    between atoms: _31  and  _33
REMARK   13  A    between atoms: _33  and  _34
REMARK   14  A    between atoms: _33  and  _35
REMARK   15  A    between atoms: _35  and  _36
REMARK   16  A    between atoms: _35  and  _37
REMARK   17  A    between atoms: _38  and  _40
REMARK                            x       y       z     vdW  Elec       q    Type
REMARK                         _______ _______ _______ _____ _____    ______ ____
ROOT
ATOM      1  C   UNL     1       2.804   2.942  32.553  0.00  0.00    +0.163 C 
ENDROOT
BRANCH   1   2
ATOM      2  O   UNL     1       2.479   1.762  33.307  0.00  0.00    -0.388 OA
ATOM      3  H   UNL     1       2.690   1.905  34.233  0.00  0.00    +0.210 HD
ENDBRANCH   1   2
BRANCH   1   4
ATOM      4  C   UNL     1       3.497   2.554  31.251  0.00  0.00    +0.141 C 
BRANCH   4   7
ATOM      5  C   UNL     1       1.922   2.748  29.357  0.00  0.00    +0.401 C 
ATOM      6  O   UNL     1       1.395   1.652  29.561  0.00  0.00    -0.226 OA
ATOM      7  N   UNL     1       2.915   3.246  30.094  0.00  0.00    -0.279 N 
ATOM      8  H   UNL     1       3.289   4.150  29.842  0.00  0.00    +0.152 HD
BRANCH   5   9
ATOM      9  O   UNL     1       1.458   3.549  28.267  0.00  0.00    -0.444 OA
BRANCH   9  10
ATOM     10  C   UNL     1       0.883   2.706  27.265  0.00  0.00    +0.292 C 
BRANCH  10  12
ATOM     11  N   UNL     1       0.924   4.763  25.904  0.00  0.00    -0.131 NA
ATOM     12  C   UNL     1       0.846   3.404  25.967  0.00  0.00    +0.121 A 
ATOM     13  C   UNL     1       0.761   2.898  24.690  0.00  0.00    +0.143 A 
ATOM     14  N   UNL     1       0.694   4.001  23.869  0.00  0.00    -0.219 N 
ATOM     15  N   UNL     1       0.884   5.115  24.629  0.00  0.00    -0.060 NA
BRANCH  14  16
ATOM     16  C   UNL     1       0.588   4.103  22.453  0.00  0.00    +0.079 A 
ATOM     17  C   UNL     1      -0.595   4.424  21.757  0.00  0.00    +0.062 A 
ATOM     18  C   UNL     1      -0.567   4.450  20.345  0.00  0.00    +0.015 A 
ATOM     19  C   UNL     1       0.597   4.153  19.635  0.00  0.00    +0.001 A 
ATOM     20  C   UNL     1       1.764   3.853  20.322  0.00  0.00    +0.002 A 
ATOM     21  C   UNL     1       1.765   3.839  21.716  0.00  0.00    +0.028 A 
BRANCH  17  22
ATOM     22  C   UNL     1      -1.839   4.922  22.408  0.00  0.00    +0.244 C 
ATOM     23  O   UNL     1      -2.141   6.105  22.418  0.00  0.00    -0.270 OA
ATOM     24  N   UNL     1      -2.673   3.995  22.973  0.00  0.00    -0.325 N 
ATOM     25  H   UNL     1      -3.541   4.337  23.369  0.00  0.00    +0.145 HD
ATOM     26  H   UNL     1      -2.503   3.001  22.994  0.00  0.00    +0.145 HD
ENDBRANCH  17  22
ENDBRANCH  14  16
ENDBRANCH  10  12
ENDBRANCH   9  10
ENDBRANCH   5   9
ENDBRANCH   4   7
ENDBRANCH   1   4
BRANCH   1  27
ATOM     27  C   UNL     1       3.718   3.878  33.363  0.00  0.00    +0.175 C 
BRANCH  27  28
ATOM     28  C   UNL     1       5.129   3.297  33.540  0.00  0.00    +0.176 C 
ATOM     29  O   UNL     1       4.992   1.924  34.001  0.00  0.00    -0.332 OA
ATOM     30  C   UNL     1       6.244   1.171  34.126  0.00  0.00    +0.277 C 
ATOM     31  C   UNL     1       7.245   1.930  35.031  0.00  0.00    +0.110 C 
ATOM     32  C   UNL     1       7.398   3.403  34.599  0.00  0.00    +0.143 C 
ATOM     33  C   UNL     1       6.036   4.091  34.498  0.00  0.00    +0.133 C 
BRANCH  33  34
ATOM     34  N   UNL     1       6.189   5.468  34.003  0.00  0.00    -0.308 N 
ATOM     35  H   UNL     1       6.482   5.594  33.044  0.00  0.00    +0.149 HD
ATOM     36  C   UNL     1       5.967   6.561  34.737  0.00  0.00    +0.210 C 
ATOM     37  C   UNL     1       5.547   6.334  36.202  0.00  0.00    +0.109 C 
ATOM     38  O   UNL     1       6.089   7.702  34.291  0.00  0.00    -0.276 OA
ENDBRANCH  33  34
BRANCH  30  39
ATOM     39  C   UNL     1       6.880   0.933  32.740  0.00  0.00    +0.414 C 
ATOM     40  O   UNL     1       8.075   1.162  32.559  0.00  0.00    -0.240 OA
ATOM     41  O   UNL     1       6.198   0.512  31.804  0.00  0.00    -0.240 OA
ENDBRANCH  30  39
BRANCH  32  42
ATOM     42  O   UNL     1       8.208   4.101  35.547  0.00  0.00    -0.390 OA
ATOM     43  H   UNL     1       7.699   4.813  35.941  0.00  0.00    +0.210 HD
ENDBRANCH  32  42
BRANCH  30  44
ATOM     44  O   UNL     1       5.939  -0.104  34.748  0.00  0.00    -0.343 OA
ATOM     45  C   UNL     1       7.089  -0.827  35.257  0.00  0.00    +0.198 C 
ENDBRANCH  30  44
ENDBRANCH  27  28
BRANCH  27  46
ATOM     46  O   UNL     1       3.130   4.155  34.649  0.00  0.00    -0.387 OA
ATOM     47  H   UNL     1       2.616   3.397  34.937  0.00  0.00    +0.210 HD
ENDBRANCH  27  46
ENDBRANCH   1  27
TORSDOF 15
