REMARK VINA RESULT:    -5.719      5.233      6.514
REMARK INTER + INTRA:         -12.995
REMARK INTER:                 -10.967
REMARK INTRA:                  -2.028
REMARK UNBOUND:                -2.094
REMARK  Name = lig_assembled_19.pdb
REMARK  20 active torsions:
REMARK  status: ('A' for Active; 'I' for Inactive)
REMARK    1  A    between atoms: _2  and  _9
REMARK    2  A    between atoms: _4  and  _18
REMARK    3  A    between atoms: _5  and  _11
REMARK    4  A    between atoms: _6  and  _7
REMARK    5  A    between atoms: _6  and  _18
REMARK    6  A    between atoms: _9  and  _10
REMARK    7  A    between atoms: _10  and  _13
REMARK    8  A    between atoms: _11  and  _13
REMARK    9  A    between atoms: _14  and  _34
REMARK   10  A    between atoms: _16  and  _22
REMARK   11  A    between atoms: _17  and  _21
REMARK   12  A    between atoms: _21  and  _22
REMARK   13  A    between atoms: _24  and  _25
REMARK   14  A    between atoms: _26  and  _27
REMARK   15  A    between atoms: _28  and  _30
REMARK   16  A    between atoms: _30  and  _31
REMARK   17  A    between atoms: _30  and  _32
REMARK   18  A    between atoms: _32  and  _33
REMARK   19  A    between atoms: _32  and  _34
REMARK   20  A    between atoms: _35  and  _37
REMARK                            x       y       z     vdW  Elec       q    Type
REMARK                         _______ _______ _______ _____ _____    ______ ____
ROOT
ATOM      1  C   UNL     1       7.842   2.417  34.101  0.00  0.00    +0.163 C 
ENDROOT
BRANCH   1   2
ATOM      2  O   UNL     1       8.800   2.582  35.159  0.00  0.00    -0.388 OA
ATOM      3  H   UNL     1       8.928   1.743  35.608  0.00  0.00    +0.210 HD
ENDBRANCH   1   2
BRANCH   1   4
ATOM      4  C   UNL     1       7.765   3.682  33.228  0.00  0.00    +0.175 C 
BRANCH   4   5
ATOM      5  C   UNL     1       6.975   4.808  33.910  0.00  0.00    +0.176 C 
ATOM      6  O   UNL     1       7.789   5.333  34.994  0.00  0.00    -0.332 OA
ATOM      7  C   UNL     1       7.237   6.494  35.697  0.00  0.00    +0.277 C 
ATOM      8  C   UNL     1       5.811   6.185  36.216  0.00  0.00    +0.110 C 
ATOM      9  C   UNL     1       4.916   5.594  35.105  0.00  0.00    +0.143 C 
ATOM     10  C   UNL     1       5.589   4.394  34.439  0.00  0.00    +0.133 C 
BRANCH  10  11
ATOM     11  N   UNL     1       4.767   3.894  33.326  0.00  0.00    -0.308 N 
ATOM     12  H   UNL     1       4.683   4.475  32.504  0.00  0.00    +0.149 HD
ATOM     13  C   UNL     1       4.123   2.724  33.332  0.00  0.00    +0.210 C 
ATOM     14  C   UNL     1       4.249   1.874  34.610  0.00  0.00    +0.109 C 
ATOM     15  O   UNL     1       3.453   2.325  32.379  0.00  0.00    -0.276 OA
ENDBRANCH  10  11
BRANCH   7  16
ATOM     16  C   UNL     1       7.191   7.725  34.769  0.00  0.00    +0.414 C 
ATOM     17  O   UNL     1       8.235   8.266  34.404  0.00  0.00    -0.240 OA
ATOM     18  O   UNL     1       6.112   8.178  34.384  0.00  0.00    -0.240 OA
ENDBRANCH   7  16
BRANCH   9  19
ATOM     19  O   UNL     1       3.666   5.185  35.661  0.00  0.00    -0.390 OA
ATOM     20  H   UNL     1       3.401   5.804  36.345  0.00  0.00    +0.210 HD
ENDBRANCH   9  19
BRANCH   7  21
ATOM     21  O   UNL     1       8.088   6.774  36.838  0.00  0.00    -0.343 OA
ATOM     22  C   UNL     1       7.407   7.348  37.983  0.00  0.00    +0.198 C 
ENDBRANCH   7  21
ENDBRANCH   4   5
BRANCH   4  23
ATOM     23  O   UNL     1       7.179   3.367  31.949  0.00  0.00    -0.387 OA
ATOM     24  H   UNL     1       6.936   2.438  31.928  0.00  0.00    +0.210 HD
ENDBRANCH   4  23
ENDBRANCH   1   4
BRANCH   1  25
ATOM     25  C   UNL     1       8.222   1.222  33.234  0.00  0.00    +0.141 C 
BRANCH  25  28
ATOM     26  C   UNL     1       7.109  -0.697  32.146  0.00  0.00    +0.401 C 
ATOM     27  O   UNL     1       8.102  -1.024  31.492  0.00  0.00    -0.226 OA
ATOM     28  N   UNL     1       7.074   0.343  32.980  0.00  0.00    -0.279 N 
ATOM     29  H   UNL     1       6.209   0.537  33.465  0.00  0.00    +0.152 HD
BRANCH  26  30
ATOM     30  O   UNL     1       5.908  -1.463  32.014  0.00  0.00    -0.444 OA
BRANCH  30  31
ATOM     31  C   UNL     1       4.837  -0.606  31.611  0.00  0.00    +0.292 C 
BRANCH  31  33
ATOM     32  N   UNL     1       3.405  -0.281  29.615  0.00  0.00    -0.131 NA
ATOM     33  C   UNL     1       4.557  -0.772  30.174  0.00  0.00    +0.120 A 
ATOM     34  C   UNL     1       5.306  -1.384  29.194  0.00  0.00    +0.137 A 
ATOM     35  N   UNL     1       4.550  -1.242  28.069  0.00  0.00    -0.248 N 
ATOM     36  N   UNL     1       3.413  -0.575  28.321  0.00  0.00    -0.065 NA
BRANCH  35  37
ATOM     37  C   UNL     1       4.855  -1.700  26.731  0.00  0.00    +0.186 C 
BRANCH  37  38
ATOM     38  C   UNL     1       6.321  -2.095  26.588  0.00  0.00    +0.255 C 
BRANCH  38  39
ATOM     39  O   UNL     1       6.605  -2.676  25.299  0.00  0.00    -0.463 OA
BRANCH  39  40
ATOM     40  C   UNL     1       7.788  -3.337  25.192  0.00  0.00    +0.304 C 
ATOM     41  O   UNL     1       8.636  -3.401  26.071  0.00  0.00    -0.251 OA
ATOM     42  C   UNL     1       7.907  -4.008  23.858  0.00  0.00    +0.136 C 
ENDBRANCH  39  40
ENDBRANCH  38  39
ENDBRANCH  37  38
ENDBRANCH  35  37
ENDBRANCH  31  33
ENDBRANCH  30  31
ENDBRANCH  26  30
ENDBRANCH  25  28
ENDBRANCH   1  25
TORSDOF 17
