REMARK VINA RESULT:    -6.248     15.077     18.468
REMARK INTER + INTRA:         -13.184
REMARK INTER:                 -11.230
REMARK INTRA:                  -1.954
REMARK UNBOUND:                -2.370
REMARK  Name = lig_assembled_87.pdb
REMARK  17 active torsions:
REMARK  status: ('A' for Active; 'I' for Inactive)
REMARK    1  A    between atoms: _2  and  _10
REMARK    2  A    between atoms: _3  and  _13
REMARK    3  A    between atoms: _5  and  _21
REMARK    4  A    between atoms: _7  and  _8
REMARK    5  A    between atoms: _7  and  _21
REMARK    6  A    between atoms: _17  and  _37
REMARK    7  A    between atoms: _19  and  _25
REMARK    8  A    between atoms: _20  and  _24
REMARK    9  A    between atoms: _24  and  _25
REMARK   10  A    between atoms: _27  and  _28
REMARK   11  A    between atoms: _29  and  _30
REMARK   12  A    between atoms: _31  and  _33
REMARK   13  A    between atoms: _33  and  _34
REMARK   14  A    between atoms: _33  and  _35
REMARK   15  A    between atoms: _35  and  _36
REMARK   16  A    between atoms: _35  and  _37
REMARK   17  A    between atoms: _38  and  _40
REMARK                            x       y       z     vdW  Elec       q    Type
REMARK                         _______ _______ _______ _____ _____    ______ ____
ROOT
ATOM      1  C   UNL     1      16.652   0.324  26.894  0.00  0.00    +0.163 C 
ENDROOT
BRANCH   1   2
ATOM      2  O   UNL     1      15.779   1.444  26.674  0.00  0.00    -0.388 OA
ATOM      3  H   UNL     1      15.777   2.006  27.452  0.00  0.00    +0.210 HD
ENDBRANCH   1   2
BRANCH   1   4
ATOM      4  C   UNL     1      18.044   0.815  27.278  0.00  0.00    +0.141 C 
BRANCH   4   7
ATOM      5  C   UNL     1      18.766   2.825  28.520  0.00  0.00    +0.401 C 
ATOM      6  O   UNL     1      19.465   2.196  29.318  0.00  0.00    -0.226 OA
ATOM      7  N   UNL     1      18.063   2.259  27.539  0.00  0.00    -0.279 N 
ATOM      8  H   UNL     1      17.512   2.858  26.940  0.00  0.00    +0.152 HD
BRANCH   5   9
ATOM      9  O   UNL     1      18.687   4.247  28.638  0.00  0.00    -0.444 OA
BRANCH   9  10
ATOM     10  C   UNL     1      18.275   4.808  27.389  0.00  0.00    +0.292 C 
BRANCH  10  12
ATOM     11  N   UNL     1      18.637   6.873  26.081  0.00  0.00    -0.131 NA
ATOM     12  C   UNL     1      18.931   6.111  27.178  0.00  0.00    +0.120 A 
ATOM     13  C   UNL     1      19.855   6.775  27.952  0.00  0.00    +0.137 A 
ATOM     14  N   UNL     1      19.997   7.993  27.343  0.00  0.00    -0.248 N 
ATOM     15  N   UNL     1      19.347   7.985  26.160  0.00  0.00    -0.065 NA
BRANCH  14  16
ATOM     16  C   UNL     1      20.716   9.209  27.763  0.00  0.00    +0.112 C 
ATOM     17  C   UNL     1      20.339   9.734  29.176  0.00  0.00    +0.045 C 
ATOM     18  C   UNL     1      19.770  11.163  29.226  0.00  0.00    +0.059 C 
ATOM     19  C   UNL     1      20.873  12.225  29.115  0.00  0.00    +0.020 C 
ATOM     20  C   UNL     1      20.902  12.599  27.634  0.00  0.00    +0.020 C 
ATOM     21  C   UNL     1      19.946  11.598  26.983  0.00  0.00    +0.059 C 
ATOM     22  N   UNL     1      18.964  11.487  28.057  0.00  0.00    -0.299 NA
ATOM     23  C   UNL     1      17.787  10.681  27.810  0.00  0.00    +0.105 C 
ATOM     24  C   UNL     1      20.678  10.297  26.647  0.00  0.00    +0.045 C 
ENDBRANCH  14  16
ENDBRANCH  10  12
ENDBRANCH   9  10
ENDBRANCH   5   9
ENDBRANCH   4   7
ENDBRANCH   1   4
BRANCH   1  25
ATOM     25  C   UNL     1      16.746  -0.555  25.635  0.00  0.00    +0.175 C 
BRANCH  25  26
ATOM     26  C   UNL     1      17.503   0.145  24.496  0.00  0.00    +0.176 C 
ATOM     27  O   UNL     1      16.763   1.346  24.140  0.00  0.00    -0.332 OA
ATOM     28  C   UNL     1      17.395   2.205  23.134  0.00  0.00    +0.277 C 
ATOM     29  C   UNL     1      17.720   1.392  21.857  0.00  0.00    +0.110 C 
ATOM     30  C   UNL     1      18.479   0.090  22.188  0.00  0.00    +0.143 C 
ATOM     31  C   UNL     1      17.735  -0.725  23.247  0.00  0.00    +0.133 C 
BRANCH  31  32
ATOM     32  N   UNL     1      18.510  -1.919  23.616  0.00  0.00    -0.308 N 
ATOM     33  H   UNL     1      19.450  -1.783  23.961  0.00  0.00    +0.149 HD
ATOM     34  C   UNL     1      18.053  -3.171  23.526  0.00  0.00    +0.210 C 
ATOM     35  C   UNL     1      16.626  -3.346  22.973  0.00  0.00    +0.109 C 
ATOM     36  O   UNL     1      18.720  -4.152  23.857  0.00  0.00    -0.276 OA
ENDBRANCH  31  32
BRANCH  28  37
ATOM     37  C   UNL     1      18.690   2.834  23.689  0.00  0.00    +0.414 C 
ATOM     38  O   UNL     1      18.655   3.540  24.696  0.00  0.00    -0.240 OA
ATOM     39  O   UNL     1      19.769   2.637  23.129  0.00  0.00    -0.240 OA
ENDBRANCH  28  37
BRANCH  30  40
ATOM     40  O   UNL     1      18.624  -0.697  21.005  0.00  0.00    -0.390 OA
ATOM     41  H   UNL     1      17.925  -0.476  20.385  0.00  0.00    +0.210 HD
ENDBRANCH  30  40
BRANCH  28  42
ATOM     42  O   UNL     1      16.454   3.252  22.784  0.00  0.00    -0.343 OA
ATOM     43  C   UNL     1      16.850   4.079  21.660  0.00  0.00    +0.198 C 
ENDBRANCH  28  42
ENDBRANCH  25  26
BRANCH  25  44
ATOM     44  O   UNL     1      15.427  -0.936  25.195  0.00  0.00    -0.387 OA
ATOM     45  H   UNL     1      15.344  -1.892  25.223  0.00  0.00    +0.210 HD
ENDBRANCH  25  44
ENDBRANCH   1  25
TORSDOF 14
