REMARK VINA RESULT:    -6.688      0.000      0.000
REMARK INTER + INTRA:         -15.381
REMARK INTER:                 -12.108
REMARK INTRA:                  -3.273
REMARK UNBOUND:                -2.243
REMARK  Name = lig_assembled_31.pdb
REMARK  20 active torsions:
REMARK  status: ('A' for Active; 'I' for Inactive)
REMARK    1  A    between atoms: _2  and  _11
REMARK    2  A    between atoms: _3  and  _12
REMARK    3  A    between atoms: _4  and  _14
REMARK    4  A    between atoms: _6  and  _24
REMARK    5  A    between atoms: _8  and  _9
REMARK    6  A    between atoms: _8  and  _24
REMARK    7  A    between atoms: _11  and  _12
REMARK    8  A    between atoms: _14  and  _15
REMARK    9  A    between atoms: _20  and  _40
REMARK   10  A    between atoms: _22  and  _28
REMARK   11  A    between atoms: _23  and  _27
REMARK   12  A    between atoms: _27  and  _28
REMARK   13  A    between atoms: _30  and  _31
REMARK   14  A    between atoms: _32  and  _33
REMARK   15  A    between atoms: _34  and  _36
REMARK   16  A    between atoms: _36  and  _37
REMARK   17  A    between atoms: _36  and  _38
REMARK   18  A    between atoms: _38  and  _39
REMARK   19  A    between atoms: _38  and  _40
REMARK   20  A    between atoms: _41  and  _43
REMARK                            x       y       z     vdW  Elec       q    Type
REMARK                         _______ _______ _______ _____ _____    ______ ____
ROOT
ATOM      1  C   UNL     1      19.097   3.676  27.984  0.00  0.00    +0.401 C 
ATOM      2  O   UNL     1      18.880   3.391  29.164  0.00  0.00    -0.226 OA
ATOM      3  N   UNL     1      18.844   2.860  26.961  0.00  0.00    -0.279 N 
ATOM      4  H   UNL     1      19.047   3.188  26.027  0.00  0.00    +0.152 HD
ENDROOT
BRANCH   1   5
ATOM      5  O   UNL     1      19.649   4.958  27.670  0.00  0.00    -0.444 OA
BRANCH   5   6
ATOM      6  C   UNL     1      18.724   5.691  26.863  0.00  0.00    +0.292 C 
BRANCH   6   8
ATOM      7  N   UNL     1      18.593   6.415  24.499  0.00  0.00    -0.131 NA
ATOM      8  C   UNL     1      19.355   6.090  25.589  0.00  0.00    +0.120 A 
ATOM      9  C   UNL     1      20.686   6.207  25.257  0.00  0.00    +0.137 A 
ATOM     10  N   UNL     1      20.665   6.597  23.951  0.00  0.00    -0.250 N 
ATOM     11  N   UNL     1      19.407   6.727  23.499  0.00  0.00    -0.065 NA
BRANCH  10  12
ATOM     12  C   UNL     1      21.790   6.858  23.077  0.00  0.00    +0.164 C 
BRANCH  12  13
ATOM     13  C   UNL     1      22.069   8.348  22.962  0.00  0.00    +0.129 C 
BRANCH  13  14
ATOM     14  N   UNL     1      21.075   9.204  23.597  0.00  0.00    -0.298 N 
ATOM     15  H   UNL     1      20.351   9.648  23.050  0.00  0.00    +0.150 HD
ATOM     16  C   UNL     1      21.369   9.742  24.823  0.00  0.00    +0.300 C 
ATOM     17  O   UNL     1      22.386   9.453  25.448  0.00  0.00    -0.253 OA
ATOM     18  N   UNL     1      20.427  10.599  25.300  0.00  0.00    -0.292 N 
ATOM     19  H   UNL     1      19.612  10.868  24.768  0.00  0.00    +0.151 HD
BRANCH  18  20
ATOM     20  C   UNL     1      20.642  11.214  26.590  0.00  0.00    +0.180 C 
BRANCH  20  21
ATOM     21  C   UNL     1      19.801  10.632  27.666  0.00  0.00    +0.122 A 
ATOM     22  O   UNL     1      19.952   9.311  27.986  0.00  0.00    -0.466 OA
ATOM     23  C   UNL     1      19.072   9.047  28.991  0.00  0.00    +0.195 A 
ATOM     24  C   UNL     1      18.357  10.175  29.321  0.00  0.00    +0.041 A 
ATOM     25  C   UNL     1      18.826  11.199  28.466  0.00  0.00    +0.046 A 
ENDBRANCH  20  21
ENDBRANCH  18  20
ENDBRANCH  13  14
ENDBRANCH  12  13
ENDBRANCH  10  12
ENDBRANCH   6   8
ENDBRANCH   5   6
ENDBRANCH   1   5
BRANCH   3  26
ATOM     26  C   UNL     1      18.287   1.510  27.115  0.00  0.00    +0.141 C 
BRANCH  26  27
ATOM     27  C   UNL     1      16.795   1.471  26.800  0.00  0.00    +0.163 C 
BRANCH  27  28
ATOM     28  O   UNL     1      16.376   2.729  26.248  0.00  0.00    -0.388 OA
ATOM     29  H   UNL     1      15.424   2.818  26.338  0.00  0.00    +0.210 HD
ENDBRANCH  27  28
BRANCH  27  30
ATOM     30  C   UNL     1      16.506   0.318  25.824  0.00  0.00    +0.175 C 
BRANCH  30  31
ATOM     31  C   UNL     1      17.477   0.310  24.635  0.00  0.00    +0.176 C 
ATOM     32  O   UNL     1      17.114   1.408  23.753  0.00  0.00    -0.332 OA
ATOM     33  C   UNL     1      18.003   1.623  22.608  0.00  0.00    +0.277 C 
ATOM     34  C   UNL     1      18.152   0.319  21.786  0.00  0.00    +0.110 C 
ATOM     35  C   UNL     1      18.507  -0.884  22.686  0.00  0.00    +0.143 C 
ATOM     36  C   UNL     1      17.520  -1.012  23.846  0.00  0.00    +0.133 C 
BRANCH  36  37
ATOM     37  N   UNL     1      17.919  -2.107  24.744  0.00  0.00    -0.308 N 
ATOM     38  H   UNL     1      18.832  -2.056  25.173  0.00  0.00    +0.149 HD
ATOM     39  C   UNL     1      17.153  -3.165  25.028  0.00  0.00    +0.210 C 
ATOM     40  C   UNL     1      15.778  -3.226  24.337  0.00  0.00    +0.109 C 
ATOM     41  O   UNL     1      17.508  -4.060  25.795  0.00  0.00    -0.276 OA
ENDBRANCH  36  37
BRANCH  33  42
ATOM     42  C   UNL     1      19.394   2.097  23.077  0.00  0.00    +0.414 C 
ATOM     43  O   UNL     1      20.398   1.817  22.424  0.00  0.00    -0.240 OA
ATOM     44  O   UNL     1      19.512   2.761  24.108  0.00  0.00    -0.240 OA
ENDBRANCH  33  42
BRANCH  35  45
ATOM     45  O   UNL     1      18.485  -2.086  21.914  0.00  0.00    -0.390 OA
ATOM     46  H   UNL     1      17.577  -2.375  21.798  0.00  0.00    +0.210 HD
ENDBRANCH  35  45
BRANCH  33  47
ATOM     47  O   UNL     1      17.404   2.633  21.757  0.00  0.00    -0.343 OA
ATOM     48  C   UNL     1      16.710   3.694  22.462  0.00  0.00    +0.198 C 
ENDBRANCH  33  47
ENDBRANCH  30  31
BRANCH  30  49
ATOM     49  O   UNL     1      15.145   0.395  25.354  0.00  0.00    -0.387 OA
ATOM     50  H   UNL     1      15.025  -0.213  24.621  0.00  0.00    +0.210 HD
ENDBRANCH  30  49
ENDBRANCH  27  30
ENDBRANCH  26  27
ENDBRANCH   3  26
TORSDOF 18
