REMARK VINA RESULT:    -5.470     13.703     17.400
REMARK INTER + INTRA:         -12.188
REMARK INTER:                 -10.326
REMARK INTRA:                  -1.862
REMARK UNBOUND:                -2.722
REMARK  Name = lig_assembled_3.pdb
REMARK  16 active torsions:
REMARK  status: ('A' for Active; 'I' for Inactive)
REMARK    1  A    between atoms: _2  and  _9
REMARK    2  A    between atoms: _4  and  _18
REMARK    3  A    between atoms: _6  and  _7
REMARK    4  A    between atoms: _6  and  _18
REMARK    5  A    between atoms: _14  and  _34
REMARK    6  A    between atoms: _16  and  _22
REMARK    7  A    between atoms: _17  and  _21
REMARK    8  A    between atoms: _21  and  _22
REMARK    9  A    between atoms: _24  and  _25
REMARK   10  A    between atoms: _26  and  _27
REMARK   11  A    between atoms: _28  and  _30
REMARK   12  A    between atoms: _30  and  _31
REMARK   13  A    between atoms: _30  and  _32
REMARK   14  A    between atoms: _32  and  _33
REMARK   15  A    between atoms: _32  and  _34
REMARK   16  A    between atoms: _35  and  _37
REMARK                            x       y       z     vdW  Elec       q    Type
REMARK                         _______ _______ _______ _____ _____    ______ ____
ROOT
ATOM      1  C   UNL     1      19.047   6.476  24.400  0.00  0.00    +0.163 C 
ENDROOT
BRANCH   1   2
ATOM      2  O   UNL     1      18.670   7.011  23.121  0.00  0.00    -0.388 OA
ATOM      3  H   UNL     1      18.406   7.929  23.222  0.00  0.00    +0.210 HD
ENDBRANCH   1   2
BRANCH   1   4
ATOM      4  C   UNL     1      20.118   7.356  25.038  0.00  0.00    +0.141 C 
BRANCH   4   7
ATOM      5  C   UNL     1      19.365   8.268  27.208  0.00  0.00    +0.401 C 
ATOM      6  O   UNL     1      18.767   9.223  26.706  0.00  0.00    -0.226 OA
ATOM      7  N   UNL     1      20.028   7.350  26.504  0.00  0.00    -0.279 N 
ATOM      8  H   UNL     1      20.496   6.609  27.007  0.00  0.00    +0.152 HD
BRANCH   5   9
ATOM      9  O   UNL     1      19.364   8.118  28.630  0.00  0.00    -0.444 OA
BRANCH   9  10
ATOM     10  C   UNL     1      19.138   9.390  29.244  0.00  0.00    +0.292 C 
BRANCH  10  12
ATOM     11  N   UNL     1      17.384  10.233  30.771  0.00  0.00    -0.131 NA
ATOM     12  C   UNL     1      18.254   9.243  30.416  0.00  0.00    +0.121 A 
ATOM     13  C   UNL     1      18.125   8.193  31.296  0.00  0.00    +0.143 A 
ATOM     14  N   UNL     1      17.132   8.578  32.169  0.00  0.00    -0.220 N 
ATOM     15  N   UNL     1      16.710   9.825  31.839  0.00  0.00    -0.060 NA
BRANCH  14  16
ATOM     16  C   UNL     1      16.566   7.851  33.247  0.00  0.00    +0.067 A 
ATOM     17  C   UNL     1      16.499   8.406  34.533  0.00  0.00    +0.028 A 
ATOM     18  C   UNL     1      15.965   7.663  35.589  0.00  0.00    +0.002 A 
ATOM     19  C   UNL     1      15.496   6.369  35.369  0.00  0.00    +0.000 A 
ATOM     20  C   UNL     1      15.551   5.815  34.092  0.00  0.00    +0.002 A 
ATOM     21  C   UNL     1      16.084   6.551  33.031  0.00  0.00    +0.028 A 
ENDBRANCH  14  16
ENDBRANCH  10  12
ENDBRANCH   9  10
ENDBRANCH   5   9
ENDBRANCH   4   7
ENDBRANCH   1   4
BRANCH   1  22
ATOM     22  C   UNL     1      19.579   5.039  24.260  0.00  0.00    +0.175 C 
BRANCH  22  23
ATOM     23  C   UNL     1      18.996   4.101  25.327  0.00  0.00    +0.176 C 
ATOM     24  O   UNL     1      20.077   3.707  26.216  0.00  0.00    -0.332 OA
ATOM     25  C   UNL     1      19.686   2.888  27.367  0.00  0.00    +0.277 C 
ATOM     26  C   UNL     1      18.909   1.633  26.899  0.00  0.00    +0.110 C 
ATOM     27  C   UNL     1      17.768   1.999  25.927  0.00  0.00    +0.143 C 
ATOM     28  C   UNL     1      18.286   2.853  24.769  0.00  0.00    +0.133 C 
BRANCH  28  29
ATOM     29  N   UNL     1      17.176   3.268  23.897  0.00  0.00    -0.308 N 
ATOM     30  H   UNL     1      16.486   3.899  24.280  0.00  0.00    +0.149 HD
ATOM     31  C   UNL     1      17.020   2.865  22.633  0.00  0.00    +0.210 C 
ATOM     32  C   UNL     1      18.074   1.883  22.088  0.00  0.00    +0.109 C 
ATOM     33  O   UNL     1      16.088   3.240  21.922  0.00  0.00    -0.276 OA
ENDBRANCH  28  29
BRANCH  25  34
ATOM     34  C   UNL     1      18.811   3.701  28.344  0.00  0.00    +0.414 C 
ATOM     35  O   UNL     1      17.941   3.142  29.010  0.00  0.00    -0.240 OA
ATOM     36  O   UNL     1      18.976   4.916  28.466  0.00  0.00    -0.240 OA
ENDBRANCH  25  34
BRANCH  27  37
ATOM     37  O   UNL     1      17.178   0.807  25.405  0.00  0.00    -0.390 OA
ATOM     38  H   UNL     1      17.115   0.873  24.449  0.00  0.00    +0.210 HD
ENDBRANCH  27  37
BRANCH  25  39
ATOM     39  O   UNL     1      20.895   2.453  28.040  0.00  0.00    -0.343 OA
ATOM     40  C   UNL     1      21.142   1.025  27.992  0.00  0.00    +0.198 C 
ENDBRANCH  25  39
ENDBRANCH  22  23
BRANCH  22  41
ATOM     41  O   UNL     1      21.019   5.034  24.328  0.00  0.00    -0.387 OA
ATOM     42  H   UNL     1      21.312   5.686  24.968  0.00  0.00    +0.210 HD
ENDBRANCH  22  41
ENDBRANCH   1  22
TORSDOF 14
