REMARK VINA RESULT:    -6.495      2.038      3.088
REMARK INTER + INTRA:         -15.134
REMARK INTER:                 -13.416
REMARK INTRA:                  -1.718
REMARK UNBOUND:                -2.754
REMARK  Name = lig_assembled_12.pdb
REMARK  19 active torsions:
REMARK  status: ('A' for Active; 'I' for Inactive)
REMARK    1  A    between atoms: _2  and  _9
REMARK    2  A    between atoms: _4  and  _21
REMARK    3  A    between atoms: _6  and  _7
REMARK    4  A    between atoms: _6  and  _21
REMARK    5  A    between atoms: _9  and  _16
REMARK    6  A    between atoms: _10  and  _11
REMARK    7  A    between atoms: _10  and  _16
REMARK    8  A    between atoms: _17  and  _37
REMARK    9  A    between atoms: _19  and  _25
REMARK   10  A    between atoms: _20  and  _24
REMARK   11  A    between atoms: _24  and  _25
REMARK   12  A    between atoms: _27  and  _28
REMARK   13  A    between atoms: _29  and  _30
REMARK   14  A    between atoms: _31  and  _33
REMARK   15  A    between atoms: _33  and  _34
REMARK   16  A    between atoms: _33  and  _35
REMARK   17  A    between atoms: _35  and  _36
REMARK   18  A    between atoms: _35  and  _37
REMARK   19  A    between atoms: _38  and  _40
REMARK                            x       y       z     vdW  Elec       q    Type
REMARK                         _______ _______ _______ _____ _____    ______ ____
ROOT
ATOM      1  C   UNL     1       6.400   2.879  32.734  0.00  0.00    +0.163 C 
ENDROOT
BRANCH   1   2
ATOM      2  O   UNL     1       6.199   3.205  31.349  0.00  0.00    -0.388 OA
ATOM      3  H   UNL     1       5.560   2.599  30.966  0.00  0.00    +0.210 HD
ENDBRANCH   1   2
BRANCH   1   4
ATOM      4  C   UNL     1       7.580   3.672  33.320  0.00  0.00    +0.175 C 
BRANCH   4   5
ATOM      5  C   UNL     1       7.257   4.247  34.708  0.00  0.00    +0.176 C 
ATOM      6  O   UNL     1       7.172   5.693  34.584  0.00  0.00    -0.332 OA
ATOM      7  C   UNL     1       6.765   6.410  35.796  0.00  0.00    +0.277 C 
ATOM      8  C   UNL     1       7.690   6.040  36.981  0.00  0.00    +0.110 C 
ATOM      9  C   UNL     1       7.837   4.511  37.132  0.00  0.00    +0.143 C 
ATOM     10  C   UNL     1       8.261   3.867  35.812  0.00  0.00    +0.133 C 
BRANCH  10  11
ATOM     11  N   UNL     1       8.313   2.403  35.946  0.00  0.00    -0.308 N 
ATOM     12  H   UNL     1       7.487   1.931  36.287  0.00  0.00    +0.149 HD
ATOM     13  C   UNL     1       9.380   1.657  35.647  0.00  0.00    +0.210 C 
ATOM     14  C   UNL     1      10.631   2.408  35.154  0.00  0.00    +0.109 C 
ATOM     15  O   UNL     1       9.390   0.430  35.755  0.00  0.00    -0.276 OA
ENDBRANCH  10  11
BRANCH   7  16
ATOM     16  C   UNL     1       5.302   6.080  36.161  0.00  0.00    +0.414 C 
ATOM     17  O   UNL     1       4.466   5.906  35.276  0.00  0.00    -0.240 OA
ATOM     18  O   UNL     1       4.959   5.988  37.341  0.00  0.00    -0.240 OA
ENDBRANCH   7  16
BRANCH   9  19
ATOM     19  O   UNL     1       8.812   4.218  38.133  0.00  0.00    -0.390 OA
ATOM     20  H   UNL     1       8.857   3.268  38.269  0.00  0.00    +0.210 HD
ENDBRANCH   9  19
BRANCH   7  21
ATOM     21  O   UNL     1       6.895   7.833  35.541  0.00  0.00    -0.343 OA
ATOM     22  C   UNL     1       7.638   8.175  34.343  0.00  0.00    +0.198 C 
ENDBRANCH   7  21
ENDBRANCH   4   5
BRANCH   4  23
ATOM     23  O   UNL     1       7.962   4.732  32.421  0.00  0.00    -0.387 OA
ATOM     24  H   UNL     1       8.040   5.555  32.909  0.00  0.00    +0.210 HD
ENDBRANCH   4  23
ENDBRANCH   1   4
BRANCH   1  25
ATOM     25  C   UNL     1       5.135   3.183  33.530  0.00  0.00    +0.141 C 
BRANCH  25  28
ATOM     26  C   UNL     1       2.873   3.599  32.627  0.00  0.00    +0.401 C 
ATOM     27  O   UNL     1       2.373   2.610  33.168  0.00  0.00    -0.226 OA
ATOM     28  N   UNL     1       4.158   3.939  32.737  0.00  0.00    -0.279 N 
ATOM     29  H   UNL     1       4.477   4.764  32.248  0.00  0.00    +0.152 HD
BRANCH  26  30
ATOM     30  O   UNL     1       2.045   4.445  31.824  0.00  0.00    -0.444 OA
BRANCH  30  31
ATOM     31  C   UNL     1       0.971   3.679  31.273  0.00  0.00    +0.292 C 
BRANCH  31  33
ATOM     32  N   UNL     1       2.330   3.766  29.201  0.00  0.00    -0.131 NA
ATOM     33  C   UNL     1       1.118   3.564  29.811  0.00  0.00    +0.120 A 
ATOM     34  C   UNL     1       0.177   3.265  28.853  0.00  0.00    +0.139 A 
ATOM     35  N   UNL     1       0.868   3.328  27.679  0.00  0.00    -0.226 N 
ATOM     36  N   UNL     1       2.168   3.607  27.893  0.00  0.00    -0.063 NA
BRANCH  35  37
ATOM     37  C   UNL     1       0.386   3.092  26.330  0.00  0.00    +0.305 C 
BRANCH  37  38
ATOM     38  O   UNL     1       1.353   3.568  25.396  0.00  0.00    -0.353 OA
BRANCH  38  39
ATOM     39  C   UNL     1       1.886   2.513  24.607  0.00  0.00    +0.197 C 
BRANCH  39  40
ATOM     40  C   UNL     1       1.828   2.951  23.168  0.00  0.00    -0.022 A 
ATOM     41  C   UNL     1       1.947   2.014  22.132  0.00  0.00    +0.006 A 
ATOM     42  C   UNL     1       1.932   2.426  20.800  0.00  0.00    +0.000 A 
ATOM     43  C   UNL     1       1.808   3.779  20.489  0.00  0.00    +0.000 A 
ATOM     44  C   UNL     1       1.701   4.721  21.509  0.00  0.00    +0.000 A 
ATOM     45  C   UNL     1       1.715   4.310  22.843  0.00  0.00    +0.006 A 
ENDBRANCH  39  40
ENDBRANCH  38  39
ENDBRANCH  37  38
ENDBRANCH  35  37
ENDBRANCH  31  33
ENDBRANCH  30  31
ENDBRANCH  26  30
ENDBRANCH  25  28
ENDBRANCH   1  25
TORSDOF 17
