REMARK VINA RESULT:    -5.683      1.538      2.170
REMARK INTER + INTRA:         -13.534
REMARK INTER:                 -11.240
REMARK INTRA:                  -2.294
REMARK UNBOUND:                -2.036
REMARK  Name = lig_assembled_45.pdb
REMARK  24 active torsions:
REMARK  status: ('A' for Active; 'I' for Inactive)
REMARK    1  A    between atoms: _2  and  _10
REMARK    2  A    between atoms: _3  and  _12
REMARK    3  A    between atoms: _3  and  _13
REMARK    4  A    between atoms: _3  and  _14
REMARK    5  A    between atoms: _3  and  _16
REMARK    6  A    between atoms: _5  and  _21
REMARK    7  A    between atoms: _6  and  _16
REMARK    8  A    between atoms: _7  and  _8
REMARK    9  A    between atoms: _7  and  _21
REMARK   10  A    between atoms: _10  and  _11
REMARK   11  A    between atoms: _11  and  _12
REMARK   12  A    between atoms: _14  and  _15
REMARK   13  A    between atoms: _17  and  _37
REMARK   14  A    between atoms: _19  and  _25
REMARK   15  A    between atoms: _20  and  _24
REMARK   16  A    between atoms: _24  and  _25
REMARK   17  A    between atoms: _27  and  _28
REMARK   18  A    between atoms: _29  and  _30
REMARK   19  A    between atoms: _31  and  _33
REMARK   20  A    between atoms: _33  and  _34
REMARK   21  A    between atoms: _33  and  _35
REMARK   22  A    between atoms: _35  and  _36
REMARK   23  A    between atoms: _35  and  _37
REMARK   24  A    between atoms: _38  and  _40
REMARK                            x       y       z     vdW  Elec       q    Type
REMARK                         _______ _______ _______ _____ _____    ______ ____
ROOT
ATOM      1  C   UNL     1       3.642   3.262  32.362  0.00  0.00    +0.163 C 
ENDROOT
BRANCH   1   2
ATOM      2  O   UNL     1       3.099   3.864  33.549  0.00  0.00    -0.388 OA
ATOM      3  H   UNL     1       2.722   3.183  34.110  0.00  0.00    +0.210 HD
ENDBRANCH   1   2
BRANCH   1   4
ATOM      4  C   UNL     1       4.560   2.079  32.717  0.00  0.00    +0.175 C 
BRANCH   4   5
ATOM      5  C   UNL     1       5.589   2.449  33.795  0.00  0.00    +0.176 C 
ATOM      6  O   UNL     1       6.022   3.816  33.551  0.00  0.00    -0.332 OA
ATOM      7  C   UNL     1       6.933   4.381  34.551  0.00  0.00    +0.277 C 
ATOM      8  C   UNL     1       8.168   3.466  34.736  0.00  0.00    +0.110 C 
ATOM      9  C   UNL     1       7.758   1.996  34.967  0.00  0.00    +0.143 C 
ATOM     10  C   UNL     1       6.809   1.512  33.871  0.00  0.00    +0.133 C 
BRANCH  10  11
ATOM     11  N   UNL     1       6.357   0.139  34.149  0.00  0.00    -0.308 N 
ATOM     12  H   UNL     1       5.723  -0.001  34.923  0.00  0.00    +0.149 HD
ATOM     13  C   UNL     1       6.731  -0.933  33.446  0.00  0.00    +0.210 C 
ATOM     14  C   UNL     1       7.719  -0.690  32.289  0.00  0.00    +0.109 C 
ATOM     15  O   UNL     1       6.325  -2.069  33.693  0.00  0.00    -0.276 OA
ENDBRANCH  10  11
BRANCH   7  16
ATOM     16  C   UNL     1       6.216   4.559  35.905  0.00  0.00    +0.414 C 
ATOM     17  O   UNL     1       6.868   4.740  36.933  0.00  0.00    -0.240 OA
ATOM     18  O   UNL     1       4.986   4.521  35.971  0.00  0.00    -0.240 OA
ENDBRANCH   7  16
BRANCH   9  19
ATOM     19  O   UNL     1       8.922   1.168  34.980  0.00  0.00    -0.390 OA
ATOM     20  H   UNL     1       8.664   0.250  34.873  0.00  0.00    +0.210 HD
ENDBRANCH   9  19
BRANCH   7  21
ATOM     21  O   UNL     1       7.387   5.670  34.066  0.00  0.00    -0.343 OA
ATOM     22  C   UNL     1       6.444   6.758  34.242  0.00  0.00    +0.198 C 
ENDBRANCH   7  21
ENDBRANCH   4   5
BRANCH   4  23
ATOM     23  O   UNL     1       5.231   1.600  31.534  0.00  0.00    -0.387 OA
ATOM     24  H   UNL     1       4.915   0.718  31.322  0.00  0.00    +0.210 HD
ENDBRANCH   4  23
ENDBRANCH   1   4
BRANCH   1  25
ATOM     25  C   UNL     1       2.513   2.778  31.459  0.00  0.00    +0.141 C 
BRANCH  25  28
ATOM     26  C   UNL     1       1.912   3.599  29.208  0.00  0.00    +0.401 C 
ATOM     27  O   UNL     1       0.771   3.934  29.532  0.00  0.00    -0.226 OA
ATOM     28  N   UNL     1       2.792   3.045  30.043  0.00  0.00    -0.279 N 
ATOM     29  H   UNL     1       3.701   2.795  29.681  0.00  0.00    +0.152 HD
BRANCH  26  30
ATOM     30  O   UNL     1       2.339   3.803  27.858  0.00  0.00    -0.444 OA
BRANCH  30  31
ATOM     31  C   UNL     1       1.438   3.142  26.966  0.00  0.00    +0.292 C 
BRANCH  31  33
ATOM     32  N   UNL     1       0.134   4.873  25.760  0.00  0.00    -0.131 NA
ATOM     33  C   UNL     1       1.177   3.986  25.785  0.00  0.00    +0.120 A 
ATOM     34  C   UNL     1       1.851   4.050  24.587  0.00  0.00    +0.137 A 
ATOM     35  N   UNL     1       1.164   4.995  23.888  0.00  0.00    -0.251 N 
ATOM     36  N   UNL     1       0.135   5.485  24.582  0.00  0.00    -0.065 NA
BRANCH  35  37
ATOM     37  C   UNL     1       1.430   5.455  22.540  0.00  0.00    +0.150 C 
BRANCH  37  38
ATOM     38  C   UNL     1       1.894   4.339  21.614  0.00  0.00    +0.074 C 
BRANCH  38  39
ATOM     39  C   UNL     1       0.837   3.726  20.686  0.00  0.00    +0.134 C 
BRANCH  39  40
ATOM     40  N   UNL     1       0.087   2.443  21.175  0.00  0.00    +0.241 N 
ATOM     41  C   UNL     1       1.073   1.564  21.965  0.00  0.00    +0.192 C 
BRANCH  40  42
ATOM     42  C   UNL     1      -0.337   1.670  19.882  0.00  0.00    +0.129 C 
ATOM     43  C   UNL     1       0.822   1.340  18.948  0.00  0.00    +0.060 C 
ENDBRANCH  40  42
BRANCH  40  44
ATOM     44  C   UNL     1      -1.152   2.712  22.050  0.00  0.00    +0.129 C 
ATOM     45  C   UNL     1      -1.874   4.009  21.725  0.00  0.00    +0.060 C 
ENDBRANCH  40  44
ENDBRANCH  39  40
ENDBRANCH  38  39
ENDBRANCH  37  38
ENDBRANCH  35  37
ENDBRANCH  31  33
ENDBRANCH  30  31
ENDBRANCH  26  30
ENDBRANCH  25  28
ENDBRANCH   1  25
TORSDOF 19
