REMARK VINA RESULT:    -6.499      9.192     19.150
REMARK INTER + INTRA:         -13.402
REMARK INTER:                 -11.749
REMARK INTRA:                  -1.653
REMARK UNBOUND:                -1.775
REMARK  Name = lig_assembled_69.pdb
REMARK  18 active torsions:
REMARK  status: ('A' for Active; 'I' for Inactive)
REMARK    1  A    between atoms: _2  and  _9
REMARK    2  A    between atoms: _4  and  _21
REMARK    3  A    between atoms: _6  and  _7
REMARK    4  A    between atoms: _6  and  _21
REMARK    5  A    between atoms: _11  and  _16
REMARK    6  A    between atoms: _14  and  _15
REMARK    7  A    between atoms: _17  and  _37
REMARK    8  A    between atoms: _19  and  _25
REMARK    9  A    between atoms: _20  and  _24
REMARK   10  A    between atoms: _24  and  _25
REMARK   11  A    between atoms: _27  and  _28
REMARK   12  A    between atoms: _29  and  _30
REMARK   13  A    between atoms: _31  and  _33
REMARK   14  A    between atoms: _33  and  _34
REMARK   15  A    between atoms: _33  and  _35
REMARK   16  A    between atoms: _35  and  _36
REMARK   17  A    between atoms: _35  and  _37
REMARK   18  A    between atoms: _38  and  _40
REMARK                            x       y       z     vdW  Elec       q    Type
REMARK                         _______ _______ _______ _____ _____    ______ ____
ROOT
ATOM      1  C   UNL     1      -3.448   8.142  14.705  0.00  0.00    +0.163 C 
ENDROOT
BRANCH   1   2
ATOM      2  O   UNL     1      -3.994   8.160  16.034  0.00  0.00    -0.388 OA
ATOM      3  H   UNL     1      -4.259   9.056  16.259  0.00  0.00    +0.210 HD
ENDBRANCH   1   2
BRANCH   1   4
ATOM      4  C   UNL     1      -2.530   9.354  14.470  0.00  0.00    +0.175 C 
BRANCH   4   5
ATOM      5  C   UNL     1      -3.111  10.326  13.432  0.00  0.00    +0.176 C 
ATOM      6  O   UNL     1      -2.009  10.837  12.633  0.00  0.00    -0.332 OA
ATOM      7  C   UNL     1      -2.387  11.706  11.515  0.00  0.00    +0.277 C 
ATOM      8  C   UNL     1      -3.261  12.882  12.015  0.00  0.00    +0.110 C 
ATOM      9  C   UNL     1      -4.429  12.390  12.895  0.00  0.00    +0.143 C 
ATOM     10  C   UNL     1      -3.923  11.492  14.025  0.00  0.00    +0.133 C 
BRANCH  10  11
ATOM     11  N   UNL     1      -5.051  10.959  14.805  0.00  0.00    -0.308 N 
ATOM     12  H   UNL     1      -5.675  10.309  14.347  0.00  0.00    +0.149 HD
ATOM     13  C   UNL     1      -5.305  11.278  16.077  0.00  0.00    +0.210 C 
ATOM     14  C   UNL     1      -4.351  12.292  16.737  0.00  0.00    +0.109 C 
ATOM     15  O   UNL     1      -6.250  10.805  16.709  0.00  0.00    -0.276 OA
ENDBRANCH  10  11
BRANCH   7  16
ATOM     16  C   UNL     1      -3.157  10.911  10.441  0.00  0.00    +0.414 C 
ATOM     17  O   UNL     1      -4.163  11.389   9.917  0.00  0.00    -0.240 OA
ATOM     18  O   UNL     1      -2.774   9.792  10.097  0.00  0.00    -0.240 OA
ENDBRANCH   7  16
BRANCH   7  19
ATOM     19  O   UNL     1      -1.171  12.252  10.940  0.00  0.00    -0.343 OA
ATOM     20  C   UNL     1      -1.356  12.992   9.707  0.00  0.00    +0.198 C 
ENDBRANCH   7  19
BRANCH   9  21
ATOM     21  O   UNL     1      -5.115  13.510  13.456  0.00  0.00    -0.390 OA
ATOM     22  H   UNL     1      -5.860  13.742  12.896  0.00  0.00    +0.210 HD
ENDBRANCH   9  21
ENDBRANCH   4   5
BRANCH   4  23
ATOM     23  O   UNL     1      -1.221   8.913  14.060  0.00  0.00    -0.387 OA
ATOM     24  H   UNL     1      -0.743   8.576  14.821  0.00  0.00    +0.210 HD
ENDBRANCH   4  23
ENDBRANCH   1   4
BRANCH   1  25
ATOM     25  C   UNL     1      -2.660   6.855  14.483  0.00  0.00    +0.141 C 
BRANCH  25  28
ATOM     26  C   UNL     1      -1.129   6.300  16.342  0.00  0.00    +0.401 C 
ATOM     27  O   UNL     1      -0.186   6.948  15.883  0.00  0.00    -0.226 OA
ATOM     28  N   UNL     1      -2.320   6.196  15.750  0.00  0.00    -0.279 N 
ATOM     29  H   UNL     1      -3.028   5.633  16.199  0.00  0.00    +0.152 HD
BRANCH  26  30
ATOM     30  O   UNL     1      -0.957   5.604  17.579  0.00  0.00    -0.444 OA
BRANCH  30  31
ATOM     31  C   UNL     1      -0.048   4.516  17.394  0.00  0.00    +0.292 C 
BRANCH  31  33
ATOM     32  N   UNL     1       1.808   3.894  18.902  0.00  0.00    -0.131 NA
ATOM     33  C   UNL     1       0.464   4.046  18.694  0.00  0.00    +0.120 A 
ATOM     34  C   UNL     1      -0.212   3.692  19.841  0.00  0.00    +0.137 A 
ATOM     35  N   UNL     1       0.776   3.321  20.703  0.00  0.00    -0.248 N 
ATOM     36  N   UNL     1       1.987   3.444  20.134  0.00  0.00    -0.065 NA
BRANCH  35  37
ATOM     37  C   UNL     1       0.636   2.793  22.059  0.00  0.00    +0.114 C 
ATOM     38  C   UNL     1       0.177   3.877  23.041  0.00  0.00    +0.062 C 
ATOM     39  C   UNL     1       1.275   4.762  23.635  0.00  0.00    +0.139 C 
ATOM     40  C   UNL     1       2.199   4.108  24.623  0.00  0.00    +0.002 C 
ATOM     41  C   UNL     1       2.468   2.802  24.785  0.00  0.00    +0.002 C 
ATOM     42  C   UNL     1       2.023   1.661  23.922  0.00  0.00    +0.139 C 
ATOM     43  C   UNL     1       1.894   2.000  22.442  0.00  0.00    +0.062 C 
BRANCH  39  44
ATOM     44  O   UNL     1       0.621   5.811  24.360  0.00  0.00    -0.388 OA
ATOM     45  H   UNL     1       0.853   6.650  23.927  0.00  0.00    +0.210 HD
ENDBRANCH  39  44
BRANCH  42  46
ATOM     46  O   UNL     1       0.800   1.142  24.422  0.00  0.00    -0.388 OA
ATOM     47  H   UNL     1       0.662   0.273  24.005  0.00  0.00    +0.210 HD
ENDBRANCH  42  46
ENDBRANCH  35  37
ENDBRANCH  31  33
ENDBRANCH  30  31
ENDBRANCH  26  30
ENDBRANCH  25  28
ENDBRANCH   1  25
TORSDOF 16
