REMARK VINA RESULT:    -6.380      9.379     18.808
REMARK INTER + INTRA:         -14.989
REMARK INTER:                 -12.715
REMARK INTRA:                  -2.275
REMARK UNBOUND:                -3.014
REMARK  Name = lig_assembled_75.pdb
REMARK  19 active torsions:
REMARK  status: ('A' for Active; 'I' for Inactive)
REMARK    1  A    between atoms: _2  and  _9
REMARK    2  A    between atoms: _4  and  _23
REMARK    3  A    between atoms: _6  and  _7
REMARK    4  A    between atoms: _6  and  _23
REMARK    5  A    between atoms: _11  and  _12
REMARK    6  A    between atoms: _13  and  _14
REMARK    7  A    between atoms: _14  and  _17
REMARK    8  A    between atoms: _19  and  _39
REMARK    9  A    between atoms: _21  and  _27
REMARK   10  A    between atoms: _22  and  _26
REMARK   11  A    between atoms: _26  and  _27
REMARK   12  A    between atoms: _29  and  _30
REMARK   13  A    between atoms: _31  and  _32
REMARK   14  A    between atoms: _33  and  _35
REMARK   15  A    between atoms: _35  and  _36
REMARK   16  A    between atoms: _35  and  _37
REMARK   17  A    between atoms: _37  and  _38
REMARK   18  A    between atoms: _37  and  _39
REMARK   19  A    between atoms: _40  and  _42
REMARK                            x       y       z     vdW  Elec       q    Type
REMARK                         _______ _______ _______ _____ _____    ______ ____
ROOT
ATOM      1  C   UNL     1      -2.453   7.039  13.904  0.00  0.00    +0.141 C 
ENDROOT
BRANCH   1   4
ATOM      2  C   UNL     1      -1.809   6.670  16.261  0.00  0.00    +0.401 C 
ATOM      3  O   UNL     1      -2.895   7.039  16.713  0.00  0.00    -0.226 OA
ATOM      4  N   UNL     1      -1.514   6.643  14.961  0.00  0.00    -0.279 N 
ATOM      5  H   UNL     1      -0.592   6.333  14.687  0.00  0.00    +0.152 HD
BRANCH   2   6
ATOM      6  O   UNL     1      -0.788   6.244  17.167  0.00  0.00    -0.444 OA
BRANCH   6   7
ATOM      7  C   UNL     1      -1.050   4.901  17.584  0.00  0.00    +0.292 C 
BRANCH   7   9
ATOM      8  N   UNL     1       1.009   3.766  18.353  0.00  0.00    -0.131 NA
ATOM      9  C   UNL     1      -0.106   4.499  18.644  0.00  0.00    +0.121 A 
ATOM     10  C   UNL     1      -0.143   4.746  19.996  0.00  0.00    +0.143 A 
ATOM     11  N   UNL     1       0.982   4.137  20.501  0.00  0.00    -0.220 N 
ATOM     12  N   UNL     1       1.663   3.548  19.486  0.00  0.00    -0.060 NA
BRANCH  11  13
ATOM     13  C   UNL     1       1.423   4.055  21.847  0.00  0.00    +0.068 A 
ATOM     14  C   UNL     1       1.834   2.813  22.362  0.00  0.00    +0.035 A 
ATOM     15  C   UNL     1       2.213   2.683  23.706  0.00  0.00    -0.023 A 
ATOM     16  C   UNL     1       2.238   3.828  24.511  0.00  0.00    +0.008 A 
ATOM     17  C   UNL     1       1.853   5.069  23.998  0.00  0.00    +0.003 A 
ATOM     18  C   UNL     1       1.438   5.184  22.672  0.00  0.00    +0.028 A 
BRANCH  15  19
ATOM     19  C   UNL     1       2.604   1.393  24.295  0.00  0.00    +0.015 C 
ATOM     20  C   UNL     1       2.249   0.202  23.787  0.00  0.00    +0.092 C 
BRANCH  20  21
ATOM     21  C   UNL     1       2.647  -1.037  24.481  0.00  0.00    +0.330 C 
ATOM     22  O   UNL     1       2.959  -2.075  23.925  0.00  0.00    -0.246 OA
BRANCH  21  23
ATOM     23  O   UNL     1       2.639  -0.888  25.821  0.00  0.00    -0.478 OA
ATOM     24  H   UNL     1       3.058  -0.076  26.158  0.00  0.00    +0.295 HD
ENDBRANCH  21  23
ENDBRANCH  20  21
ENDBRANCH  15  19
ENDBRANCH  11  13
ENDBRANCH   7   9
ENDBRANCH   6   7
ENDBRANCH   2   6
ENDBRANCH   1   4
BRANCH   1  25
ATOM     25  C   UNL     1      -2.104   8.402  13.315  0.00  0.00    +0.163 C 
BRANCH  25  26
ATOM     26  O   UNL     1      -2.346   8.402  11.898  0.00  0.00    -0.388 OA
ATOM     27  H   UNL     1      -3.158   7.924  11.712  0.00  0.00    +0.210 HD
ENDBRANCH  25  26
BRANCH  25  28
ATOM     28  C   UNL     1      -2.935   9.492  14.015  0.00  0.00    +0.175 C 
BRANCH  28  29
ATOM     29  C   UNL     1      -3.179  10.705  13.106  0.00  0.00    +0.176 C 
ATOM     30  O   UNL     1      -1.899  11.106  12.542  0.00  0.00    -0.332 OA
ATOM     31  C   UNL     1      -1.952  12.193  11.559  0.00  0.00    +0.277 C 
ATOM     32  C   UNL     1      -2.672  13.427  12.156  0.00  0.00    +0.110 C 
ATOM     33  C   UNL     1      -4.024  13.045  12.795  0.00  0.00    +0.143 C 
ATOM     34  C   UNL     1      -3.853  11.904  13.798  0.00  0.00    +0.133 C 
BRANCH  34  35
ATOM     35  N   UNL     1      -5.159  11.490  14.336  0.00  0.00    -0.308 N 
ATOM     36  H   UNL     1      -5.819  11.069  13.697  0.00  0.00    +0.149 HD
ATOM     37  C   UNL     1      -5.528  11.635  15.611  0.00  0.00    +0.210 C 
ATOM     38  C   UNL     1      -4.509  12.304  16.553  0.00  0.00    +0.109 C 
ATOM     39  O   UNL     1      -6.623  11.266  16.036  0.00  0.00    -0.276 OA
ENDBRANCH  34  35
BRANCH  31  40
ATOM     40  C   UNL     1      -2.684  11.737  10.280  0.00  0.00    +0.414 C 
ATOM     41  O   UNL     1      -2.672  10.553   9.947  0.00  0.00    -0.240 OA
ATOM     42  O   UNL     1      -3.286  12.554   9.581  0.00  0.00    -0.240 OA
ENDBRANCH  31  40
BRANCH  31  43
ATOM     43  O   UNL     1      -0.590  12.571  11.235  0.00  0.00    -0.343 OA
ATOM     44  C   UNL     1      -0.231  13.931  11.585  0.00  0.00    +0.198 C 
ENDBRANCH  31  43
BRANCH  33  45
ATOM     45  O   UNL     1      -4.579  14.179  13.462  0.00  0.00    -0.390 OA
ATOM     46  H   UNL     1      -4.156  14.979  13.141  0.00  0.00    +0.210 HD
ENDBRANCH  33  45
ENDBRANCH  28  29
BRANCH  28  47
ATOM     47  O   UNL     1      -2.284   9.906  15.232  0.00  0.00    -0.387 OA
ATOM     48  H   UNL     1      -2.633   9.400  15.970  0.00  0.00    +0.210 HD
ENDBRANCH  28  47
ENDBRANCH  25  28
ENDBRANCH   1  25
TORSDOF 17
