REMARK VINA RESULT:    -6.602      2.893      4.757
REMARK INTER + INTRA:         -13.215
REMARK INTER:                 -11.463
REMARK INTRA:                  -1.752
REMARK UNBOUND:                -1.788
REMARK  Name = lig_assembled_20.pdb
REMARK  16 active torsions:
REMARK  status: ('A' for Active; 'I' for Inactive)
REMARK    1  A    between atoms: _2  and  _11
REMARK    2  A    between atoms: _6  and  _21
REMARK    3  A    between atoms: _8  and  _9
REMARK    4  A    between atoms: _8  and  _21
REMARK    5  A    between atoms: _17  and  _37
REMARK    6  A    between atoms: _19  and  _25
REMARK    7  A    between atoms: _20  and  _24
REMARK    8  A    between atoms: _24  and  _25
REMARK    9  A    between atoms: _27  and  _28
REMARK   10  A    between atoms: _29  and  _30
REMARK   11  A    between atoms: _31  and  _33
REMARK   12  A    between atoms: _33  and  _34
REMARK   13  A    between atoms: _33  and  _35
REMARK   14  A    between atoms: _35  and  _36
REMARK   15  A    between atoms: _35  and  _37
REMARK   16  A    between atoms: _38  and  _40
REMARK                            x       y       z     vdW  Elec       q    Type
REMARK                         _______ _______ _______ _____ _____    ______ ____
ROOT
ATOM      1  C   UNL     1       7.472   2.473  34.294  0.00  0.00    +0.163 C 
ENDROOT
BRANCH   1   2
ATOM      2  O   UNL     1       8.367   2.204  35.386  0.00  0.00    -0.388 OA
ATOM      3  H   UNL     1       7.930   1.638  36.027  0.00  0.00    +0.210 HD
ENDBRANCH   1   2
BRANCH   1   4
ATOM      4  C   UNL     1       7.590   1.377  33.240  0.00  0.00    +0.141 C 
BRANCH   4   7
ATOM      5  C   UNL     1       6.109  -0.162  31.997  0.00  0.00    +0.401 C 
ATOM      6  O   UNL     1       7.036  -0.753  31.439  0.00  0.00    -0.226 OA
ATOM      7  N   UNL     1       6.277   0.849  32.850  0.00  0.00    -0.279 N 
ATOM      8  H   UNL     1       5.453   1.277  33.250  0.00  0.00    +0.152 HD
BRANCH   5   9
ATOM      9  O   UNL     1       4.765  -0.566  31.726  0.00  0.00    -0.444 OA
BRANCH   9  10
ATOM     10  C   UNL     1       4.711  -1.228  30.460  0.00  0.00    +0.292 C 
BRANCH  10  12
ATOM     11  N   UNL     1       3.650  -0.901  28.242  0.00  0.00    -0.131 NA
ATOM     12  C   UNL     1       3.797  -0.519  29.544  0.00  0.00    +0.121 A 
ATOM     13  C   UNL     1       2.986   0.563  29.787  0.00  0.00    +0.143 A 
ATOM     14  N   UNL     1       2.351   0.814  28.593  0.00  0.00    -0.220 N 
ATOM     15  N   UNL     1       2.770  -0.087  27.670  0.00  0.00    -0.060 NA
BRANCH  14  16
ATOM     16  C   UNL     1       1.402   1.825  28.293  0.00  0.00    +0.068 A 
ATOM     17  C   UNL     1       0.413   2.157  29.233  0.00  0.00    +0.030 A 
ATOM     18  C   UNL     1      -0.536   3.155  28.970  0.00  0.00    +0.030 A 
ATOM     19  C   UNL     1      -0.455   3.804  27.735  0.00  0.00    +0.066 A 
ATOM     20  C   UNL     1       0.509   3.498  26.783  0.00  0.00    +0.021 A 
ATOM     21  C   UNL     1       0.237   4.368  25.706  0.00  0.00    +0.142 A 
ATOM     22  N   UNL     1      -0.808   5.165  25.940  0.00  0.00    -0.181 NA
ATOM     23  N   UNL     1      -1.205   4.804  27.173  0.00  0.00    -0.277 N 
ATOM     24  H   UNL     1      -2.003   5.279  27.580  0.00  0.00    +0.189 HD
ATOM     25  C   UNL     1       1.457   2.495  27.055  0.00  0.00    +0.039 A 
ENDBRANCH  14  16
ENDBRANCH  10  12
ENDBRANCH   9  10
ENDBRANCH   5   9
ENDBRANCH   4   7
ENDBRANCH   1   4
BRANCH   1  26
ATOM     26  C   UNL     1       7.781   3.837  33.653  0.00  0.00    +0.175 C 
BRANCH  26  27
ATOM     27  C   UNL     1       7.148   4.999  34.434  0.00  0.00    +0.176 C 
ATOM     28  O   UNL     1       7.884   5.155  35.678  0.00  0.00    -0.332 OA
ATOM     29  C   UNL     1       7.485   6.293  36.512  0.00  0.00    +0.277 C 
ATOM     30  C   UNL     1       5.966   6.242  36.805  0.00  0.00    +0.110 C 
ATOM     31  C   UNL     1       5.143   6.045  35.515  0.00  0.00    +0.143 C 
ATOM     32  C   UNL     1       5.644   4.837  34.723  0.00  0.00    +0.133 C 
BRANCH  32  33
ATOM     33  N   UNL     1       4.910   4.711  33.454  0.00  0.00    -0.308 N 
ATOM     34  H   UNL     1       5.093   5.396  32.734  0.00  0.00    +0.149 HD
ATOM     35  C   UNL     1       4.019   3.752  33.192  0.00  0.00    +0.210 C 
ATOM     36  C   UNL     1       3.744   2.739  34.319  0.00  0.00    +0.109 C 
ATOM     37  O   UNL     1       3.430   3.663  32.114  0.00  0.00    -0.276 OA
ENDBRANCH  32  33
BRANCH  29  38
ATOM     38  C   UNL     1       7.833   7.627  35.819  0.00  0.00    +0.414 C 
ATOM     39  O   UNL     1       8.138   8.612  36.490  0.00  0.00    -0.240 OA
ATOM     40  O   UNL     1       7.808   7.717  34.591  0.00  0.00    -0.240 OA
ENDBRANCH  29  38
BRANCH  31  41
ATOM     41  O   UNL     1       3.767   5.853  35.845  0.00  0.00    -0.390 OA
ATOM     42  H   UNL     1       3.697   5.510  36.739  0.00  0.00    +0.210 HD
ENDBRANCH  31  41
BRANCH  29  43
ATOM     43  O   UNL     1       8.197   6.197  37.772  0.00  0.00    -0.343 OA
ATOM     44  C   UNL     1       7.366   6.302  38.955  0.00  0.00    +0.198 C 
ENDBRANCH  29  43
ENDBRANCH  26  27
BRANCH  26  45
ATOM     45  O   UNL     1       7.332   3.856  32.284  0.00  0.00    -0.387 OA
ATOM     46  H   UNL     1       6.785   4.631  32.136  0.00  0.00    +0.210 HD
ENDBRANCH  26  45
ENDBRANCH   1  26
TORSDOF 14
