REMARK VINA RESULT:    -5.007      3.931      7.674
REMARK INTER + INTRA:         -13.720
REMARK INTER:                 -11.364
REMARK INTRA:                  -2.356
REMARK UNBOUND:                -4.177
REMARK  Name = lig_assembled_50.pdb
REMARK  20 active torsions:
REMARK  status: ('A' for Active; 'I' for Inactive)
REMARK    1  A    between atoms: _2  and  _9
REMARK    2  A    between atoms: _4  and  _17
REMARK    3  A    between atoms: _5  and  _10
REMARK    4  A    between atoms: _5  and  _11
REMARK    5  A    between atoms: _6  and  _7
REMARK    6  A    between atoms: _6  and  _17
REMARK    7  A    between atoms: _9  and  _10
REMARK    8  A    between atoms: _10  and  _12
REMARK    9  A    between atoms: _13  and  _33
REMARK   10  A    between atoms: _15  and  _21
REMARK   11  A    between atoms: _16  and  _20
REMARK   12  A    between atoms: _20  and  _21
REMARK   13  A    between atoms: _23  and  _24
REMARK   14  A    between atoms: _25  and  _26
REMARK   15  A    between atoms: _27  and  _29
REMARK   16  A    between atoms: _29  and  _30
REMARK   17  A    between atoms: _29  and  _31
REMARK   18  A    between atoms: _31  and  _32
REMARK   19  A    between atoms: _31  and  _33
REMARK   20  A    between atoms: _34  and  _36
REMARK                            x       y       z     vdW  Elec       q    Type
REMARK                         _______ _______ _______ _____ _____    ______ ____
ROOT
ATOM      1  C   UNL     1      16.898   2.406  22.882  0.00  0.00    +0.163 C 
ENDROOT
BRANCH   1   2
ATOM      2  O   UNL     1      17.426   1.504  21.896  0.00  0.00    -0.388 OA
ATOM      3  H   UNL     1      18.062   1.967  21.345  0.00  0.00    +0.210 HD
ENDBRANCH   1   2
BRANCH   1   4
ATOM      4  C   UNL     1      17.394   2.033  24.290  0.00  0.00    +0.175 C 
BRANCH   4   5
ATOM      5  C   UNL     1      17.840   0.566  24.376  0.00  0.00    +0.176 C 
ATOM      6  O   UNL     1      16.693  -0.269  24.055  0.00  0.00    -0.332 OA
ATOM      7  C   UNL     1      16.957  -1.709  23.984  0.00  0.00    +0.277 C 
ATOM      8  C   UNL     1      17.614  -2.204  25.296  0.00  0.00    +0.110 C 
ATOM      9  C   UNL     1      18.820  -1.327  25.695  0.00  0.00    +0.143 C 
ATOM     10  C   UNL     1      18.433   0.152  25.735  0.00  0.00    +0.133 C 
BRANCH  10  11
ATOM     11  N   UNL     1      19.610   0.984  26.032  0.00  0.00    -0.308 N 
ATOM     12  H   UNL     1      20.400   0.925  25.404  0.00  0.00    +0.149 HD
ATOM     13  C   UNL     1      19.703   1.811  27.076  0.00  0.00    +0.210 C 
ATOM     14  C   UNL     1      18.494   1.858  28.029  0.00  0.00    +0.109 C 
ATOM     15  O   UNL     1      20.696   2.507  27.291  0.00  0.00    -0.276 OA
ENDBRANCH  10  11
BRANCH   7  16
ATOM     16  C   UNL     1      17.878  -2.038  22.790  0.00  0.00    +0.414 C 
ATOM     17  O   UNL     1      18.023  -1.226  21.877  0.00  0.00    -0.240 OA
ATOM     18  O   UNL     1      18.476  -3.113  22.741  0.00  0.00    -0.240 OA
ENDBRANCH   7  16
BRANCH   9  19
ATOM     19  O   UNL     1      19.299  -1.724  26.981  0.00  0.00    -0.390 OA
ATOM     20  H   UNL     1      18.737  -2.418  27.332  0.00  0.00    +0.210 HD
ENDBRANCH   9  19
BRANCH   7  21
ATOM     21  O   UNL     1      15.687  -2.391  23.823  0.00  0.00    -0.343 OA
ATOM     22  C   UNL     1      15.411  -3.414  24.813  0.00  0.00    +0.198 C 
ENDBRANCH   7  21
ENDBRANCH   4   5
BRANCH   4  23
ATOM     23  O   UNL     1      16.367   2.299  25.265  0.00  0.00    -0.387 OA
ATOM     24  H   UNL     1      15.766   2.966  24.925  0.00  0.00    +0.210 HD
ENDBRANCH   4  23
ENDBRANCH   1   4
BRANCH   1  25
ATOM     25  C   UNL     1      17.315   3.837  22.557  0.00  0.00    +0.141 C 
BRANCH  25  28
ATOM     26  C   UNL     1      18.489   5.672  23.723  0.00  0.00    +0.401 C 
ATOM     27  O   UNL     1      17.945   6.563  23.067  0.00  0.00    -0.226 OA
ATOM     28  N   UNL     1      18.258   4.370  23.548  0.00  0.00    -0.279 N 
ATOM     29  H   UNL     1      18.761   3.714  24.129  0.00  0.00    +0.152 HD
BRANCH  26  30
ATOM     30  O   UNL     1      19.431   6.033  24.737  0.00  0.00    -0.444 OA
BRANCH  30  31
ATOM     31  C   UNL     1      19.088   5.380  25.962  0.00  0.00    +0.292 C 
BRANCH  31  33
ATOM     32  N   UNL     1      18.878   5.929  28.370  0.00  0.00    -0.131 NA
ATOM     33  C   UNL     1      19.089   6.346  27.079  0.00  0.00    +0.120 A 
ATOM     34  C   UNL     1      19.292   7.710  27.073  0.00  0.00    +0.137 A 
ATOM     35  N   UNL     1      19.183   8.061  28.381  0.00  0.00    -0.249 N 
ATOM     36  N   UNL     1      18.952   6.988  29.161  0.00  0.00    -0.065 NA
BRANCH  35  37
ATOM     37  C   UNL     1      19.276   9.379  28.967  0.00  0.00    +0.178 C 
BRANCH  37  38
ATOM     38  C   UNL     1      18.317  10.406  28.353  0.00  0.00    +0.161 C 
BRANCH  38  39
ATOM     39  O   UNL     1      17.457  11.006  29.325  0.00  0.00    -0.388 OA
ATOM     40  H   UNL     1      17.035  10.296  29.850  0.00  0.00    +0.210 HD
ENDBRANCH  38  39
BRANCH  38  41
ATOM     41  C   UNL     1      19.025  11.499  27.542  0.00  0.00    +0.189 C 
BRANCH  41  42
ATOM     42  O   UNL     1      19.012  11.201  26.146  0.00  0.00    -0.392 OA
ATOM     43  H   UNL     1      18.415  10.443  26.003  0.00  0.00    +0.210 HD
ENDBRANCH  41  42
ENDBRANCH  38  41
ENDBRANCH  37  38
ENDBRANCH  35  37
ENDBRANCH  31  33
ENDBRANCH  30  31
ENDBRANCH  26  30
ENDBRANCH  25  28
ENDBRANCH   1  25
TORSDOF 18
