REMARK VINA RESULT:    -6.288     11.509     18.999
REMARK INTER + INTRA:         -13.155
REMARK INTER:                 -11.615
REMARK INTRA:                  -1.540
REMARK UNBOUND:                -1.905
REMARK  Name = lig_assembled_38.pdb
REMARK  17 active torsions:
REMARK  status: ('A' for Active; 'I' for Inactive)
REMARK    1  A    between atoms: _2  and  _9
REMARK    2  A    between atoms: _4  and  _19
REMARK    3  A    between atoms: _6  and  _7
REMARK    4  A    between atoms: _6  and  _19
REMARK    5  A    between atoms: _9  and  _10
REMARK    6  A    between atoms: _15  and  _35
REMARK    7  A    between atoms: _17  and  _23
REMARK    8  A    between atoms: _18  and  _22
REMARK    9  A    between atoms: _22  and  _23
REMARK   10  A    between atoms: _25  and  _26
REMARK   11  A    between atoms: _27  and  _28
REMARK   12  A    between atoms: _29  and  _31
REMARK   13  A    between atoms: _31  and  _32
REMARK   14  A    between atoms: _31  and  _33
REMARK   15  A    between atoms: _33  and  _34
REMARK   16  A    between atoms: _33  and  _35
REMARK   17  A    between atoms: _36  and  _38
REMARK                            x       y       z     vdW  Elec       q    Type
REMARK                         _______ _______ _______ _____ _____    ______ ____
ROOT
ATOM      1  C   UNL     1      -2.574   8.547  13.567  0.00  0.00    +0.163 C 
ENDROOT
BRANCH   1   2
ATOM      2  O   UNL     1      -1.192   8.896  13.389  0.00  0.00    -0.388 OA
ATOM      3  H   UNL     1      -1.048   9.186  12.485  0.00  0.00    +0.210 HD
ENDBRANCH   1   2
BRANCH   1   4
ATOM      4  C   UNL     1      -2.725   7.031  13.640  0.00  0.00    +0.141 C 
BRANCH   4   7
ATOM      5  C   UNL     1      -2.295   6.601  16.035  0.00  0.00    +0.401 C 
ATOM      6  O   UNL     1      -1.123   6.981  15.990  0.00  0.00    -0.226 OA
ATOM      7  N   UNL     1      -3.115   6.584  14.983  0.00  0.00    -0.279 N 
ATOM      8  H   UNL     1      -4.057   6.244  15.117  0.00  0.00    +0.152 HD
BRANCH   5   9
ATOM      9  O   UNL     1      -2.829   6.140  17.279  0.00  0.00    -0.444 OA
BRANCH   9  10
ATOM     10  C   UNL     1      -2.468   4.771  17.476  0.00  0.00    +0.292 C 
BRANCH  10  12
ATOM     11  N   UNL     1      -1.778   4.703  19.855  0.00  0.00    -0.131 NA
ATOM     12  C   UNL     1      -1.438   4.656  18.528  0.00  0.00    +0.120 A 
ATOM     13  C   UNL     1      -0.080   4.460  18.418  0.00  0.00    +0.137 A 
ATOM     14  N   UNL     1       0.342   4.339  19.711  0.00  0.00    -0.247 N 
ATOM     15  N   UNL     1      -0.681   4.501  20.571  0.00  0.00    -0.065 NA
BRANCH  14  16
ATOM     16  C   UNL     1       1.624   3.847  20.182  0.00  0.00    +0.180 C 
BRANCH  16  17
ATOM     17  C   UNL     1       1.780   3.917  21.682  0.00  0.00    -0.025 A 
ATOM     18  C   UNL     1       1.771   5.151  22.351  0.00  0.00    +0.005 A 
ATOM     19  C   UNL     1       1.825   5.203  23.748  0.00  0.00    +0.001 A 
ATOM     20  C   UNL     1       1.890   4.025  24.490  0.00  0.00    +0.015 A 
ATOM     21  C   UNL     1       1.910   2.799  23.833  0.00  0.00    +0.018 A 
ATOM     22 BR   UNL     1       1.988   1.199  24.838  0.00  0.00    -0.050 Br
ATOM     23  C   UNL     1       1.856   2.737  22.439  0.00  0.00    +0.020 A 
ENDBRANCH  16  17
ENDBRANCH  14  16
ENDBRANCH  10  12
ENDBRANCH   9  10
ENDBRANCH   5   9
ENDBRANCH   4   7
ENDBRANCH   1   4
BRANCH   1  24
ATOM     24  C   UNL     1      -3.432   9.093  12.412  0.00  0.00    +0.175 C 
BRANCH  24  25
ATOM     25  C   UNL     1      -3.371  10.625  12.322  0.00  0.00    +0.176 C 
ATOM     26  O   UNL     1      -2.088  10.988  11.742  0.00  0.00    -0.332 OA
ATOM     27  C   UNL     1      -1.893  12.418  11.480  0.00  0.00    +0.277 C 
ATOM     28  C   UNL     1      -2.137  13.242  12.768  0.00  0.00    +0.110 C 
ATOM     29  C   UNL     1      -3.476  12.868  13.438  0.00  0.00    +0.143 C 
ATOM     30  C   UNL     1      -3.575  11.358  13.661  0.00  0.00    +0.133 C 
BRANCH  30  31
ATOM     31  N   UNL     1      -4.889  11.005  14.220  0.00  0.00    -0.308 N 
ATOM     32  H   UNL     1      -5.700  11.117  13.627  0.00  0.00    +0.149 HD
ATOM     33  C   UNL     1      -5.081  10.546  15.460  0.00  0.00    +0.210 C 
ATOM     34  C   UNL     1      -3.830  10.411  16.347  0.00  0.00    +0.109 C 
ATOM     35  O   UNL     1      -6.193  10.244  15.896  0.00  0.00    -0.276 OA
ENDBRANCH  30  31
BRANCH  27  36
ATOM     36  C   UNL     1      -2.844  12.905  10.368  0.00  0.00    +0.414 C 
ATOM     37  O   UNL     1      -2.845  12.355   9.267  0.00  0.00    -0.240 OA
ATOM     38  O   UNL     1      -3.611  13.848  10.570  0.00  0.00    -0.240 OA
ENDBRANCH  27  36
BRANCH  27  39
ATOM     39  O   UNL     1      -0.516  12.614  11.066  0.00  0.00    -0.343 OA
ATOM     40  C   UNL     1      -0.008  13.960  11.247  0.00  0.00    +0.198 C 
ENDBRANCH  27  39
BRANCH  29  41
ATOM     41  O   UNL     1      -3.590  13.537  14.694  0.00  0.00    -0.390 OA
ATOM     42  H   UNL     1      -4.407  13.276  15.124  0.00  0.00    +0.210 HD
ENDBRANCH  29  41
ENDBRANCH  24  25
BRANCH  24  43
ATOM     43  O   UNL     1      -4.799   8.658  12.560  0.00  0.00    -0.387 OA
ATOM     44  H   UNL     1      -4.947   8.370  13.464  0.00  0.00    +0.210 HD
ENDBRANCH  24  43
ENDBRANCH   1  24
TORSDOF 15
