REMARK VINA RESULT:    -6.416      6.346     12.540
REMARK INTER + INTRA:         -14.193
REMARK INTER:                 -11.832
REMARK INTRA:                  -2.361
REMARK UNBOUND:                -3.089
REMARK  Name = lig_assembled_91.pdb
REMARK  16 active torsions:
REMARK  status: ('A' for Active; 'I' for Inactive)
REMARK    1  A    between atoms: _2  and  _10
REMARK    2  A    between atoms: _5  and  _26
REMARK    3  A    between atoms: _7  and  _8
REMARK    4  A    between atoms: _7  and  _26
REMARK    5  A    between atoms: _22  and  _42
REMARK    6  A    between atoms: _24  and  _30
REMARK    7  A    between atoms: _25  and  _29
REMARK    8  A    between atoms: _29  and  _30
REMARK    9  A    between atoms: _32  and  _33
REMARK   10  A    between atoms: _34  and  _35
REMARK   11  A    between atoms: _36  and  _38
REMARK   12  A    between atoms: _38  and  _39
REMARK   13  A    between atoms: _38  and  _40
REMARK   14  A    between atoms: _40  and  _41
REMARK   15  A    between atoms: _40  and  _42
REMARK   16  A    between atoms: _43  and  _45
REMARK                            x       y       z     vdW  Elec       q    Type
REMARK                         _______ _______ _______ _____ _____    ______ ____
ROOT
ATOM      1  C   UNL     1      12.383   3.892  37.221  0.00  0.00    +0.401 C 
ATOM      2  O   UNL     1      11.938   3.377  38.250  0.00  0.00    -0.226 OA
ATOM      3  N   UNL     1      12.011   3.540  35.990  0.00  0.00    -0.279 N 
ATOM      4  H   UNL     1      12.426   4.027  35.208  0.00  0.00    +0.152 HD
ENDROOT
BRANCH   3   5
ATOM      5  C   UNL     1      11.032   2.483  35.706  0.00  0.00    +0.141 C 
BRANCH   5   6
ATOM      6  C   UNL     1       9.871   2.997  34.860  0.00  0.00    +0.163 C 
BRANCH   6   7
ATOM      7  O   UNL     1       9.610   2.086  33.779  0.00  0.00    -0.388 OA
ATOM      8  H   UNL     1      10.072   1.259  33.938  0.00  0.00    +0.210 HD
ENDBRANCH   6   7
BRANCH   6   9
ATOM      9  C   UNL     1       8.626   3.169  35.746  0.00  0.00    +0.175 C 
BRANCH   9  10
ATOM     10  C   UNL     1       7.799   4.400  35.347  0.00  0.00    +0.176 C 
ATOM     11  O   UNL     1       7.529   5.168  36.553  0.00  0.00    -0.332 OA
ATOM     12  C   UNL     1       6.835   6.443  36.350  0.00  0.00    +0.277 C 
ATOM     13  C   UNL     1       5.519   6.223  35.565  0.00  0.00    +0.110 C 
ATOM     14  C   UNL     1       5.749   5.384  34.290  0.00  0.00    +0.143 C 
ATOM     15  C   UNL     1       6.481   4.082  34.616  0.00  0.00    +0.133 C 
BRANCH  15  16
ATOM     16  N   UNL     1       6.772   3.332  33.384  0.00  0.00    -0.308 N 
ATOM     17  H   UNL     1       7.361   3.773  32.691  0.00  0.00    +0.149 HD
ATOM     18  C   UNL     1       6.309   2.107  33.121  0.00  0.00    +0.210 C 
ATOM     19  C   UNL     1       5.393   1.473  34.184  0.00  0.00    +0.109 C 
ATOM     20  O   UNL     1       6.581   1.497  32.086  0.00  0.00    -0.276 OA
ENDBRANCH  15  16
BRANCH  12  21
ATOM     21  C   UNL     1       7.731   7.439  35.586  0.00  0.00    +0.414 C 
ATOM     22  O   UNL     1       7.267   8.112  34.667  0.00  0.00    -0.240 OA
ATOM     23  O   UNL     1       8.919   7.569  35.888  0.00  0.00    -0.240 OA
ENDBRANCH  12  21
BRANCH  14  24
ATOM     24  O   UNL     1       4.494   5.079  33.681  0.00  0.00    -0.390 OA
ATOM     25  H   UNL     1       4.639   4.790  32.777  0.00  0.00    +0.210 HD
ENDBRANCH  14  24
BRANCH  12  26
ATOM     26  O   UNL     1       6.504   6.985  37.655  0.00  0.00    -0.343 OA
ATOM     27  C   UNL     1       7.369   6.554  38.735  0.00  0.00    +0.198 C 
ENDBRANCH  12  26
ENDBRANCH   9  10
BRANCH   9  28
ATOM     28  O   UNL     1       9.011   3.258  37.132  0.00  0.00    -0.387 OA
ATOM     29  H   UNL     1       9.849   2.806  37.262  0.00  0.00    +0.210 HD
ENDBRANCH   9  28
ENDBRANCH   6   9
ENDBRANCH   5   6
ENDBRANCH   3   5
BRANCH   1  30
ATOM     30  O   UNL     1      13.356   4.934  37.331  0.00  0.00    -0.444 OA
BRANCH  30  31
ATOM     31  C   UNL     1      14.637   4.436  36.936  0.00  0.00    +0.292 C 
BRANCH  31  33
ATOM     32  N   UNL     1      14.391   4.765  34.501  0.00  0.00    -0.131 NA
ATOM     33  C   UNL     1      15.056   5.041  35.656  0.00  0.00    +0.121 A 
ATOM     34  C   UNL     1      16.074   5.926  35.383  0.00  0.00    +0.143 A 
ATOM     35  N   UNL     1      16.026   6.135  34.019  0.00  0.00    -0.218 N 
ATOM     36  N   UNL     1      14.979   5.431  33.519  0.00  0.00    -0.060 NA
BRANCH  35  37
ATOM     37  C   UNL     1      16.881   6.922  33.188  0.00  0.00    +0.085 A 
ATOM     38  C   UNL     1      16.638   8.334  33.028  0.00  0.00    +0.026 A 
ATOM     39  C   UNL     1      17.524   9.011  32.167  0.00  0.00    +0.074 A 
ATOM     40  C   UNL     1      17.388  10.371  31.934  0.00  0.00    +0.028 A 
ATOM     41  C   UNL     1      16.389  11.131  32.533  0.00  0.00    +0.002 A 
ATOM     42  C   UNL     1      15.519  10.517  33.411  0.00  0.00    +0.001 A 
ATOM     43  N   UNL     1      18.545   8.427  31.546  0.00  0.00    -0.247 NA
ATOM     44  C   UNL     1      18.784   7.128  31.718  0.00  0.00    +0.074 A 
ATOM     45  C   UNL     1      19.875   6.620  31.019  0.00  0.00    +0.028 A 
ATOM     46  C   UNL     1      20.229   5.276  31.069  0.00  0.00    +0.002 A 
ATOM     47  C   UNL     1      19.466   4.411  31.827  0.00  0.00    +0.001 A 
ATOM     48  C   UNL     1      18.363   4.904  32.531  0.00  0.00    +0.012 A 
ATOM     49  C   UNL     1      15.653   9.149  33.672  0.00  0.00    +0.012 A 
ATOM     50  C   UNL     1      17.993   6.288  32.519  0.00  0.00    +0.026 A 
ENDBRANCH  35  37
ENDBRANCH  31  33
ENDBRANCH  30  31
ENDBRANCH   1  30
TORSDOF 14
