REMARK VINA RESULT:    -6.187      2.560     11.272
REMARK INTER + INTRA:         -14.589
REMARK INTER:                 -11.433
REMARK INTRA:                  -3.156
REMARK UNBOUND:                -2.615
REMARK  Name = lig_assembled_83.pdb
REMARK  20 active torsions:
REMARK  status: ('A' for Active; 'I' for Inactive)
REMARK    1  A    between atoms: _2  and  _12
REMARK    2  A    between atoms: _3  and  _14
REMARK    3  A    between atoms: _7  and  _24
REMARK    4  A    between atoms: _9  and  _10
REMARK    5  A    between atoms: _9  and  _24
REMARK    6  A    between atoms: _12  and  _13
REMARK    7  A    between atoms: _13  and  _14
REMARK    8  A    between atoms: _13  and  _18
REMARK    9  A    between atoms: _20  and  _40
REMARK   10  A    between atoms: _22  and  _28
REMARK   11  A    between atoms: _23  and  _27
REMARK   12  A    between atoms: _27  and  _28
REMARK   13  A    between atoms: _30  and  _31
REMARK   14  A    between atoms: _32  and  _33
REMARK   15  A    between atoms: _34  and  _36
REMARK   16  A    between atoms: _36  and  _37
REMARK   17  A    between atoms: _36  and  _38
REMARK   18  A    between atoms: _38  and  _39
REMARK   19  A    between atoms: _38  and  _40
REMARK   20  A    between atoms: _41  and  _43
REMARK                            x       y       z     vdW  Elec       q    Type
REMARK                         _______ _______ _______ _____ _____    ______ ____
ROOT
ATOM      1  C   UNL     1      18.666   9.891  27.822  0.00  0.00    +0.141 C 
ENDROOT
BRANCH   1   4
ATOM      2  C   UNL     1      19.340   7.891  26.538  0.00  0.00    +0.401 C 
ATOM      3  O   UNL     1      18.307   7.858  25.866  0.00  0.00    -0.226 OA
ATOM      4  N   UNL     1      19.589   8.802  27.479  0.00  0.00    -0.279 N 
ATOM      5  H   UNL     1      20.462   8.740  27.985  0.00  0.00    +0.152 HD
BRANCH   2   6
ATOM      6  O   UNL     1      20.345   6.898  26.316  0.00  0.00    -0.444 OA
BRANCH   6   7
ATOM      7  C   UNL     1      20.388   6.003  27.431  0.00  0.00    +0.292 C 
BRANCH   7   9
ATOM      8  N   UNL     1      18.244   4.779  27.699  0.00  0.00    -0.131 NA
ATOM      9  C   UNL     1      19.517   4.838  27.192  0.00  0.00    +0.120 A 
ATOM     10  C   UNL     1      19.770   3.684  26.486  0.00  0.00    +0.137 A 
ATOM     11  N   UNL     1      18.611   2.977  26.587  0.00  0.00    -0.249 N 
ATOM     12  N   UNL     1      17.698   3.628  27.326  0.00  0.00    -0.065 NA
BRANCH  11  13
ATOM     13  C   UNL     1      18.321   1.668  26.042  0.00  0.00    +0.178 C 
BRANCH  13  14
ATOM     14  C   UNL     1      17.719   1.755  24.637  0.00  0.00    +0.156 C 
BRANCH  14  15
ATOM     15  O   UNL     1      16.838   2.880  24.554  0.00  0.00    -0.388 OA
ATOM     16  H   UNL     1      15.944   2.582  24.290  0.00  0.00    +0.210 HD
ENDBRANCH  14  15
BRANCH  14  17
ATOM     17  C   UNL     1      18.830   1.869  23.581  0.00  0.00    +0.162 C 
BRANCH  17  18
ATOM     18  N   UNL     1      18.785   0.792  22.605  0.00  0.00    -0.269 N 
ATOM     19  C   UNL     1      19.365  -0.440  22.808  0.00  0.00    +0.113 A 
ATOM     20  C   UNL     1      19.076  -1.174  21.681  0.00  0.00    +0.137 A 
ATOM     21  N   UNL     1      18.365  -0.426  20.783  0.00  0.00    -0.172 NA
ATOM     22  C   UNL     1      18.198   0.748  21.363  0.00  0.00    +0.450 A 
ATOM     23  N   UNL     1      17.473   1.829  20.733  0.00  0.00    +0.120 N 
ATOM     24  O   UNL     1      17.368   2.895  21.361  0.00  0.00    +0.045 OA
ATOM     25  O   UNL     1      17.014   1.625  19.603  0.00  0.00    -0.573 OA
ENDBRANCH  17  18
ENDBRANCH  14  17
ENDBRANCH  13  14
ENDBRANCH  11  13
ENDBRANCH   7   9
ENDBRANCH   6   7
ENDBRANCH   2   6
ENDBRANCH   1   4
BRANCH   1  26
ATOM     26  C   UNL     1      18.629  10.153  29.324  0.00  0.00    +0.163 C 
BRANCH  26  27
ATOM     27  O   UNL     1      17.395  10.799  29.680  0.00  0.00    -0.388 OA
ATOM     28  H   UNL     1      16.886  10.224  30.256  0.00  0.00    +0.210 HD
ENDBRANCH  26  27
BRANCH  26  29
ATOM     29  C   UNL     1      18.792   8.824  30.082  0.00  0.00    +0.175 C 
BRANCH  29  30
ATOM     30  C   UNL     1      17.984   8.801  31.388  0.00  0.00    +0.176 C 
ATOM     31  O   UNL     1      18.258  10.035  32.105  0.00  0.00    -0.332 OA
ATOM     32  C   UNL     1      17.487  10.238  33.336  0.00  0.00    +0.277 C 
ATOM     33  C   UNL     1      17.661   9.029  34.288  0.00  0.00    +0.110 C 
ATOM     34  C   UNL     1      17.411   7.691  33.561  0.00  0.00    +0.143 C 
ATOM     35  C   UNL     1      18.261   7.587  32.295  0.00  0.00    +0.133 C 
BRANCH  35  36
ATOM     36  N   UNL     1      17.950   6.348  31.566  0.00  0.00    -0.308 N 
ATOM     37  H   UNL     1      17.037   6.267  31.140  0.00  0.00    +0.149 HD
ATOM     38  C   UNL     1      18.795   5.322  31.430  0.00  0.00    +0.210 C 
ATOM     39  C   UNL     1      20.168   5.465  32.112  0.00  0.00    +0.109 C 
ATOM     40  O   UNL     1      18.512   4.302  30.801  0.00  0.00    -0.276 OA
ENDBRANCH  35  36
BRANCH  32  41
ATOM     41  C   UNL     1      15.990  10.432  33.018  0.00  0.00    +0.414 C 
ATOM     42  O   UNL     1      15.133   9.870  33.699  0.00  0.00    -0.240 OA
ATOM     43  O   UNL     1      15.639  11.151  32.081  0.00  0.00    -0.240 OA
ENDBRANCH  32  41
BRANCH  32  44
ATOM     44  O   UNL     1      18.003  11.421  33.999  0.00  0.00    -0.343 OA
ATOM     45  C   UNL     1      18.724  12.339  33.139  0.00  0.00    +0.198 C 
ENDBRANCH  32  44
BRANCH  34  46
ATOM     46  O   UNL     1      17.728   6.604  34.431  0.00  0.00    -0.390 OA
ATOM     47  H   UNL     1      17.033   6.504  35.086  0.00  0.00    +0.210 HD
ENDBRANCH  34  46
ENDBRANCH  29  30
BRANCH  29  48
ATOM     48  O   UNL     1      20.185   8.576  30.355  0.00  0.00    -0.387 OA
ATOM     49  H   UNL     1      20.452   9.071  31.133  0.00  0.00    +0.210 HD
ENDBRANCH  29  48
ENDBRANCH  26  29
ENDBRANCH   1  26
TORSDOF 18
