REMARK VINA RESULT:    -5.874     14.603     21.176
REMARK INTER + INTRA:         -12.080
REMARK INTER:                 -10.203
REMARK INTRA:                  -1.877
REMARK UNBOUND:                -1.914
REMARK  Name = lig_assembled_56.pdb
REMARK  16 active torsions:
REMARK  status: ('A' for Active; 'I' for Inactive)
REMARK    1  A    between atoms: _2  and  _10
REMARK    2  A    between atoms: _5  and  _18
REMARK    3  A    between atoms: _7  and  _8
REMARK    4  A    between atoms: _7  and  _18
REMARK    5  A    between atoms: _14  and  _34
REMARK    6  A    between atoms: _16  and  _22
REMARK    7  A    between atoms: _17  and  _21
REMARK    8  A    between atoms: _21  and  _22
REMARK    9  A    between atoms: _24  and  _25
REMARK   10  A    between atoms: _26  and  _27
REMARK   11  A    between atoms: _28  and  _30
REMARK   12  A    between atoms: _30  and  _31
REMARK   13  A    between atoms: _30  and  _32
REMARK   14  A    between atoms: _32  and  _33
REMARK   15  A    between atoms: _32  and  _34
REMARK   16  A    between atoms: _35  and  _37
REMARK                            x       y       z     vdW  Elec       q    Type
REMARK                         _______ _______ _______ _____ _____    ______ ____
ROOT
ATOM      1  C   UNL     1       6.261   3.118  33.552  0.00  0.00    +0.163 C 
ENDROOT
BRANCH   1   2
ATOM      2  O   UNL     1       6.185   1.919  34.340  0.00  0.00    -0.388 OA
ATOM      3  H   UNL     1       6.342   2.131  35.263  0.00  0.00    +0.210 HD
ENDBRANCH   1   2
BRANCH   1   4
ATOM      4  C   UNL     1       5.634   2.883  32.182  0.00  0.00    +0.141 C 
BRANCH   4   7
ATOM      5  C   UNL     1       3.231   3.256  32.617  0.00  0.00    +0.401 C 
ATOM      6  O   UNL     1       3.113   2.270  33.348  0.00  0.00    -0.226 OA
ATOM      7  N   UNL     1       4.371   3.614  32.025  0.00  0.00    -0.279 N 
ATOM      8  H   UNL     1       4.365   4.434  31.435  0.00  0.00    +0.152 HD
BRANCH   5   9
ATOM      9  O   UNL     1       2.087   4.078  32.371  0.00  0.00    -0.444 OA
BRANCH   9  10
ATOM     10  C   UNL     1       1.015   3.271  31.876  0.00  0.00    +0.292 C 
BRANCH  10  12
ATOM     11  N   UNL     1       0.168   4.178  29.736  0.00  0.00    -0.131 NA
ATOM     12  C   UNL     1       0.982   3.309  30.402  0.00  0.00    +0.121 A 
ATOM     13  C   UNL     1       1.690   2.564  29.486  0.00  0.00    +0.143 A 
ATOM     14  N   UNL     1       1.282   3.032  28.257  0.00  0.00    -0.220 N 
ATOM     15  N   UNL     1       0.352   4.003  28.435  0.00  0.00    -0.060 NA
BRANCH  14  16
ATOM     16  C   UNL     1       1.714   2.636  26.968  0.00  0.00    +0.070 A 
ATOM     17  C   UNL     1       1.906   1.288  26.656  0.00  0.00    +0.047 A 
ATOM     18  C   UNL     1       2.346   0.972  25.380  0.00  0.00    +0.113 A 
ATOM     19  N   UNL     1       2.597   1.889  24.422  0.00  0.00    -0.263 NA
ATOM     20  C   UNL     1       2.400   3.184  24.749  0.00  0.00    +0.113 A 
ATOM     21  C   UNL     1       1.963   3.605  25.992  0.00  0.00    +0.047 A 
ENDBRANCH  14  16
ENDBRANCH  10  12
ENDBRANCH   9  10
ENDBRANCH   5   9
ENDBRANCH   4   7
ENDBRANCH   1   4
BRANCH   1  22
ATOM     22  C   UNL     1       7.721   3.570  33.379  0.00  0.00    +0.175 C 
BRANCH  22  23
ATOM     23  C   UNL     1       8.413   3.818  34.727  0.00  0.00    +0.176 C 
ATOM     24  O   UNL     1       8.683   2.525  35.335  0.00  0.00    -0.332 OA
ATOM     25  C   UNL     1       9.440   2.560  36.590  0.00  0.00    +0.277 C 
ATOM     26  C   UNL     1       8.745   3.487  37.616  0.00  0.00    +0.110 C 
ATOM     27  C   UNL     1       8.410   4.864  37.005  0.00  0.00    +0.143 C 
ATOM     28  C   UNL     1       7.623   4.709  35.703  0.00  0.00    +0.133 C 
BRANCH  28  29
ATOM     29  N   UNL     1       7.386   6.024  35.086  0.00  0.00    -0.308 N 
ATOM     30  H   UNL     1       8.178   6.507  34.686  0.00  0.00    +0.149 HD
ATOM     31  C   UNL     1       6.192   6.619  35.019  0.00  0.00    +0.210 C 
ATOM     32  C   UNL     1       5.010   5.868  35.660  0.00  0.00    +0.109 C 
ATOM     33  O   UNL     1       6.020   7.714  34.483  0.00  0.00    -0.276 OA
ENDBRANCH  28  29
BRANCH  25  34
ATOM     34  C   UNL     1      10.882   3.052  36.344  0.00  0.00    +0.414 C 
ATOM     35  O   UNL     1      11.461   3.724  37.197  0.00  0.00    -0.240 OA
ATOM     36  O   UNL     1      11.465   2.778  35.295  0.00  0.00    -0.240 OA
ENDBRANCH  25  34
BRANCH  27  37
ATOM     37  O   UNL     1       7.638   5.627  37.933  0.00  0.00    -0.390 OA
ATOM     38  H   UNL     1       6.784   5.208  38.062  0.00  0.00    +0.210 HD
ENDBRANCH  27  37
BRANCH  25  39
ATOM     39  O   UNL     1       9.470   1.215  37.134  0.00  0.00    -0.343 OA
ATOM     40  C   UNL     1       8.406   0.344  36.672  0.00  0.00    +0.198 C 
ENDBRANCH  25  39
ENDBRANCH  22  23
BRANCH  22  41
ATOM     41  O   UNL     1       7.779   4.759  32.565  0.00  0.00    -0.387 OA
ATOM     42  H   UNL     1       8.691   4.936  32.321  0.00  0.00    +0.210 HD
ENDBRANCH  22  41
ENDBRANCH   1  22
TORSDOF 14
