REMARK VINA RESULT:    -6.345      1.997      4.155
REMARK INTER + INTRA:         -13.127
REMARK INTER:                 -11.134
REMARK INTRA:                  -1.993
REMARK UNBOUND:                -1.775
REMARK  Name = lig_assembled_69.pdb
REMARK  18 active torsions:
REMARK  status: ('A' for Active; 'I' for Inactive)
REMARK    1  A    between atoms: _2  and  _9
REMARK    2  A    between atoms: _4  and  _21
REMARK    3  A    between atoms: _6  and  _7
REMARK    4  A    between atoms: _6  and  _21
REMARK    5  A    between atoms: _11  and  _16
REMARK    6  A    between atoms: _14  and  _15
REMARK    7  A    between atoms: _17  and  _37
REMARK    8  A    between atoms: _19  and  _25
REMARK    9  A    between atoms: _20  and  _24
REMARK   10  A    between atoms: _24  and  _25
REMARK   11  A    between atoms: _27  and  _28
REMARK   12  A    between atoms: _29  and  _30
REMARK   13  A    between atoms: _31  and  _33
REMARK   14  A    between atoms: _33  and  _34
REMARK   15  A    between atoms: _33  and  _35
REMARK   16  A    between atoms: _35  and  _36
REMARK   17  A    between atoms: _35  and  _37
REMARK   18  A    between atoms: _38  and  _40
REMARK                            x       y       z     vdW  Elec       q    Type
REMARK                         _______ _______ _______ _____ _____    ______ ____
ROOT
ATOM      1  C   UNL     1       2.957   2.925  33.002  0.00  0.00    +0.163 C 
ENDROOT
BRANCH   1   2
ATOM      2  O   UNL     1       3.554   2.235  31.892  0.00  0.00    -0.388 OA
ATOM      3  H   UNL     1       4.497   2.414  31.872  0.00  0.00    +0.210 HD
ENDBRANCH   1   2
BRANCH   1   4
ATOM      4  C   UNL     1       3.914   3.989  33.566  0.00  0.00    +0.175 C 
BRANCH   4   5
ATOM      5  C   UNL     1       5.351   3.463  33.699  0.00  0.00    +0.176 C 
ATOM      6  O   UNL     1       5.283   2.097  34.192  0.00  0.00    -0.332 OA
ATOM      7  C   UNL     1       6.565   1.391  34.281  0.00  0.00    +0.277 C 
ATOM      8  C   UNL     1       7.572   2.204  35.131  0.00  0.00    +0.110 C 
ATOM      9  C   UNL     1       7.655   3.673  34.664  0.00  0.00    +0.143 C 
ATOM     10  C   UNL     1       6.266   4.309  34.604  0.00  0.00    +0.133 C 
BRANCH  10  11
ATOM     11  N   UNL     1       6.349   5.680  34.075  0.00  0.00    -0.308 N 
ATOM     12  H   UNL     1       6.566   5.795  33.096  0.00  0.00    +0.149 HD
ATOM     13  C   UNL     1       6.155   6.781  34.806  0.00  0.00    +0.210 C 
ATOM     14  C   UNL     1       5.851   6.572  36.301  0.00  0.00    +0.109 C 
ATOM     15  O   UNL     1       6.217   7.916  34.333  0.00  0.00    -0.276 OA
ENDBRANCH  10  11
BRANCH   7  16
ATOM     16  C   UNL     1       7.154   1.147  32.877  0.00  0.00    +0.414 C 
ATOM     17  O   UNL     1       6.409   0.971  31.913  0.00  0.00    -0.240 OA
ATOM     18  O   UNL     1       8.374   1.125  32.706  0.00  0.00    -0.240 OA
ENDBRANCH   7  16
BRANCH   7  19
ATOM     19  O   UNL     1       6.332   0.120  34.941  0.00  0.00    -0.343 OA
ATOM     20  C   UNL     1       4.980  -0.391  34.827  0.00  0.00    +0.198 C 
ENDBRANCH   7  19
BRANCH   9  21
ATOM     21  O   UNL     1       8.475   4.419  35.564  0.00  0.00    -0.390 OA
ATOM     22  H   UNL     1       9.216   4.798  35.084  0.00  0.00    +0.210 HD
ENDBRANCH   9  21
ENDBRANCH   4   5
BRANCH   4  23
ATOM     23  O   UNL     1       3.437   4.458  34.843  0.00  0.00    -0.387 OA
ATOM     24  H   UNL     1       2.526   4.182  34.966  0.00  0.00    +0.210 HD
ENDBRANCH   4  23
ENDBRANCH   1   4
BRANCH   1  25
ATOM     25  C   UNL     1       1.656   3.589  32.565  0.00  0.00    +0.141 C 
BRANCH  25  28
ATOM     26  C   UNL     1       0.656   3.607  30.305  0.00  0.00    +0.401 C 
ATOM     27  O   UNL     1      -0.371   3.021  30.653  0.00  0.00    -0.226 OA
ATOM     28  N   UNL     1       1.659   3.908  31.132  0.00  0.00    -0.279 N 
ATOM     29  H   UNL     1       2.465   4.382  30.750  0.00  0.00    +0.152 HD
BRANCH  26  30
ATOM     30  O   UNL     1       0.806   3.993  28.937  0.00  0.00    -0.444 OA
BRANCH  30  31
ATOM     31  C   UNL     1       0.750   2.832  28.104  0.00  0.00    +0.292 C 
BRANCH  31  33
ATOM     32  N   UNL     1       2.417   3.962  26.671  0.00  0.00    -0.131 NA
ATOM     33  C   UNL     1       1.346   3.116  26.786  0.00  0.00    +0.120 A 
ATOM     34  C   UNL     1       0.997   2.659  25.534  0.00  0.00    +0.137 A 
ATOM     35  N   UNL     1       1.884   3.273  24.701  0.00  0.00    -0.248 N 
ATOM     36  N   UNL     1       2.734   4.055  25.388  0.00  0.00    -0.065 NA
BRANCH  35  37
ATOM     37  C   UNL     1       1.946   3.203  23.242  0.00  0.00    +0.114 C 
ATOM     38  C   UNL     1       1.376   4.469  22.592  0.00  0.00    +0.062 C 
ATOM     39  C   UNL     1      -0.141   4.506  22.399  0.00  0.00    +0.139 C 
ATOM     40  C   UNL     1      -0.705   3.586  21.353  0.00  0.00    +0.002 C 
ATOM     41  C   UNL     1      -0.163   2.474  20.832  0.00  0.00    +0.002 C 
ATOM     42  C   UNL     1       1.090   1.775  21.266  0.00  0.00    +0.139 C 
ATOM     43  C   UNL     1       1.377   1.860  22.760  0.00  0.00    +0.062 C 
BRANCH  39  44
ATOM     44  O   UNL     1      -0.476   5.830  21.964  0.00  0.00    -0.388 OA
ATOM     45  H   UNL     1      -0.613   5.793  21.002  0.00  0.00    +0.210 HD
ENDBRANCH  39  44
BRANCH  42  46
ATOM     46  O   UNL     1       2.189   2.274  20.519  0.00  0.00    -0.388 OA
ATOM     47  H   UNL     1       2.118   1.910  19.620  0.00  0.00    +0.210 HD
ENDBRANCH  42  46
ENDBRANCH  35  37
ENDBRANCH  31  33
ENDBRANCH  30  31
ENDBRANCH  26  30
ENDBRANCH  25  28
ENDBRANCH   1  25
TORSDOF 16
