REMARK VINA RESULT:    -5.966     13.833     18.334
REMARK INTER + INTRA:         -12.920
REMARK INTER:                 -10.909
REMARK INTRA:                  -2.012
REMARK UNBOUND:                -2.246
REMARK  Name = lig_assembled_5.pdb
REMARK  18 active torsions:
REMARK  status: ('A' for Active; 'I' for Inactive)
REMARK    1  A    between atoms: _2  and  _9
REMARK    2  A    between atoms: _4  and  _20
REMARK    3  A    between atoms: _6  and  _7
REMARK    4  A    between atoms: _6  and  _20
REMARK    5  A    between atoms: _12  and  _15
REMARK    6  A    between atoms: _13  and  _15
REMARK    7  A    between atoms: _16  and  _36
REMARK    8  A    between atoms: _18  and  _24
REMARK    9  A    between atoms: _19  and  _23
REMARK   10  A    between atoms: _23  and  _24
REMARK   11  A    between atoms: _26  and  _27
REMARK   12  A    between atoms: _28  and  _29
REMARK   13  A    between atoms: _30  and  _32
REMARK   14  A    between atoms: _32  and  _33
REMARK   15  A    between atoms: _32  and  _34
REMARK   16  A    between atoms: _34  and  _35
REMARK   17  A    between atoms: _34  and  _36
REMARK   18  A    between atoms: _37  and  _39
REMARK                            x       y       z     vdW  Elec       q    Type
REMARK                         _______ _______ _______ _____ _____    ______ ____
ROOT
ATOM      1  C   UNL     1      19.401   6.510  24.646  0.00  0.00    +0.163 C 
ENDROOT
BRANCH   1   2
ATOM      2  O   UNL     1      18.689   7.041  23.516  0.00  0.00    -0.388 OA
ATOM      3  H   UNL     1      18.272   6.323  23.034  0.00  0.00    +0.210 HD
ENDBRANCH   1   2
BRANCH   1   4
ATOM      4  C   UNL     1      20.249   7.602  25.289  0.00  0.00    +0.141 C 
BRANCH   4   7
ATOM      5  C   UNL     1      19.917   9.902  26.131  0.00  0.00    +0.401 C 
ATOM      6  O   UNL     1      21.111  10.200  26.062  0.00  0.00    -0.226 OA
ATOM      7  N   UNL     1      19.426   8.708  25.796  0.00  0.00    -0.279 N 
ATOM      8  H   UNL     1      18.433   8.555  25.896  0.00  0.00    +0.152 HD
BRANCH   5   9
ATOM      9  O   UNL     1      18.983  10.878  26.600  0.00  0.00    -0.444 OA
BRANCH   9  10
ATOM     10  C   UNL     1      19.603  11.691  27.599  0.00  0.00    +0.292 C 
BRANCH  10  12
ATOM     11  N   UNL     1      19.957  11.584  30.046  0.00  0.00    -0.131 NA
ATOM     12  C   UNL     1      19.238  11.213  28.947  0.00  0.00    +0.121 A 
ATOM     13  C   UNL     1      18.208  10.392  29.339  0.00  0.00    +0.143 A 
ATOM     14  N   UNL     1      18.320  10.309  30.709  0.00  0.00    -0.220 N 
ATOM     15  N   UNL     1      19.399  11.025  31.111  0.00  0.00    -0.060 NA
BRANCH  14  16
ATOM     16  C   UNL     1      17.475   9.637  31.630  0.00  0.00    +0.067 A 
ATOM     17  C   UNL     1      17.439   8.239  31.682  0.00  0.00    +0.031 A 
ATOM     18  C   UNL     1      16.556   7.596  32.553  0.00  0.00    +0.048 A 
ATOM     19  C   UNL     1      15.718   8.331  33.394  0.00  0.00    +0.120 A 
ATOM     20  C   UNL     1      15.763   9.723  33.358  0.00  0.00    +0.048 A 
ATOM     21  C   UNL     1      16.637  10.377  32.478  0.00  0.00    +0.031 A 
BRANCH  19  22
ATOM     22  O   UNL     1      14.861   7.579  34.150  0.00  0.00    -0.495 OA
ATOM     23  C   UNL     1      15.416   6.434  34.783  0.00  0.00    +0.277 C 
ENDBRANCH  19  22
ENDBRANCH  14  16
ENDBRANCH  10  12
ENDBRANCH   9  10
ENDBRANCH   5   9
ENDBRANCH   4   7
ENDBRANCH   1   4
BRANCH   1  24
ATOM     24  C   UNL     1      20.304   5.338  24.226  0.00  0.00    +0.175 C 
BRANCH  24  25
ATOM     25  C   UNL     1      19.636   3.977  24.470  0.00  0.00    +0.176 C 
ATOM     26  O   UNL     1      18.558   3.828  23.505  0.00  0.00    -0.332 OA
ATOM     27  C   UNL     1      17.869   2.534  23.519  0.00  0.00    +0.277 C 
ATOM     28  C   UNL     1      17.347   2.214  24.941  0.00  0.00    +0.110 C 
ATOM     29  C   UNL     1      18.450   2.389  26.006  0.00  0.00    +0.143 C 
ATOM     30  C   UNL     1      19.102   3.769  25.899  0.00  0.00    +0.133 C 
BRANCH  30  31
ATOM     31  N   UNL     1      20.209   3.891  26.861  0.00  0.00    -0.308 N 
ATOM     32  H   UNL     1      21.037   3.336  26.699  0.00  0.00    +0.149 HD
ATOM     33  C   UNL     1      20.190   4.688  27.933  0.00  0.00    +0.210 C 
ATOM     34  C   UNL     1      18.903   5.501  28.165  0.00  0.00    +0.109 C 
ATOM     35  O   UNL     1      21.138   4.781  28.713  0.00  0.00    -0.276 OA
ENDBRANCH  30  31
BRANCH  27  36
ATOM     36  C   UNL     1      18.813   1.407  23.051  0.00  0.00    +0.414 C 
ATOM     37  O   UNL     1      18.660   0.258  23.463  0.00  0.00    -0.240 OA
ATOM     38  O   UNL     1      19.727   1.647  22.260  0.00  0.00    -0.240 OA
ENDBRANCH  27  36
BRANCH  27  39
ATOM     39  O   UNL     1      16.732   2.622  22.623  0.00  0.00    -0.343 OA
ATOM     40  C   UNL     1      16.812   3.679  21.633  0.00  0.00    +0.198 C 
ENDBRANCH  27  39
BRANCH  29  41
ATOM     41  O   UNL     1      17.890   2.233  27.310  0.00  0.00    -0.390 OA
ATOM     42  H   UNL     1      17.872   1.302  27.542  0.00  0.00    +0.210 HD
ENDBRANCH  29  41
ENDBRANCH  24  25
BRANCH  24  43
ATOM     43  O   UNL     1      21.563   5.406  24.925  0.00  0.00    -0.387 OA
ATOM     44  H   UNL     1      21.574   4.754  25.629  0.00  0.00    +0.210 HD
ENDBRANCH  24  43
ENDBRANCH   1  24
TORSDOF 15
