REMARK VINA RESULT:    -5.237     10.196     13.295
REMARK INTER + INTRA:         -12.558
REMARK INTER:                 -10.866
REMARK INTRA:                  -1.692
REMARK UNBOUND:                -3.800
REMARK  Name = lig_assembled_65.pdb
REMARK  16 active torsions:
REMARK  status: ('A' for Active; 'I' for Inactive)
REMARK    1  A    between atoms: _8  and  _20
REMARK    2  A    between atoms: _9  and  _15
REMARK    3  A    between atoms: _10  and  _11
REMARK    4  A    between atoms: _10  and  _20
REMARK    5  A    between atoms: _16  and  _36
REMARK    6  A    between atoms: _18  and  _24
REMARK    7  A    between atoms: _19  and  _23
REMARK    8  A    between atoms: _23  and  _24
REMARK    9  A    between atoms: _26  and  _27
REMARK   10  A    between atoms: _28  and  _29
REMARK   11  A    between atoms: _30  and  _32
REMARK   12  A    between atoms: _32  and  _33
REMARK   13  A    between atoms: _32  and  _34
REMARK   14  A    between atoms: _34  and  _35
REMARK   15  A    between atoms: _34  and  _36
REMARK   16  A    between atoms: _37  and  _39
REMARK                            x       y       z     vdW  Elec       q    Type
REMARK                         _______ _______ _______ _____ _____    ______ ____
ROOT
ATOM      1  C   UNL     1       9.980   3.166  35.144  0.00  0.00    +0.163 C 
ENDROOT
BRANCH   1   2
ATOM      2  O   UNL     1       9.837   2.230  34.063  0.00  0.00    -0.388 OA
ATOM      3  H   UNL     1      10.246   1.396  34.305  0.00  0.00    +0.210 HD
ENDBRANCH   1   2
BRANCH   1   4
ATOM      4  C   UNL     1      11.075   2.699  36.097  0.00  0.00    +0.141 C 
BRANCH   4   7
ATOM      5  C   UNL     1      12.293   4.682  36.927  0.00  0.00    +0.401 C 
ATOM      6  O   UNL     1      11.415   5.001  37.733  0.00  0.00    -0.226 OA
ATOM      7  N   UNL     1      12.214   3.625  36.118  0.00  0.00    -0.279 N 
ATOM      8  H   UNL     1      12.981   3.451  35.485  0.00  0.00    +0.152 HD
BRANCH   5   9
ATOM      9  O   UNL     1      13.474   5.483  36.834  0.00  0.00    -0.444 OA
BRANCH   9  10
ATOM     10  C   UNL     1      14.423   4.837  35.982  0.00  0.00    +0.292 C 
BRANCH  10  12
ATOM     11  N   UNL     1      15.255   5.438  33.728  0.00  0.00    -0.131 NA
ATOM     12  C   UNL     1      14.991   5.801  35.020  0.00  0.00    +0.121 A 
ATOM     13  C   UNL     1      15.339   7.119  35.196  0.00  0.00    +0.149 A 
ATOM     14  N   UNL     1      15.826   7.525  33.971  0.00  0.00    -0.155 N 
ATOM     15  C   UNL     1      16.336   8.812  33.631  0.00  0.00    +0.416 C 
ATOM     16  N   UNL     1      16.764   9.022  32.381  0.00  0.00    +0.041 NA
ATOM     17  C   UNL     1      17.242  10.241  32.145  0.00  0.00    +0.339 C 
ATOM     18  C   UNL     1      17.749  10.533  30.768  0.00  0.00    +0.149 C 
ATOM     19  N   UNL     1      17.310  11.215  33.053  0.00  0.00    +0.007 NA
ATOM     20  C   UNL     1      16.873  10.900  34.263  0.00  0.00    +0.386 C 
ATOM     21  N   UNL     1      16.937  11.876  35.235  0.00  0.00    -0.296 N 
ATOM     22  H   UNL     1      16.972  12.795  34.817  0.00  0.00    +0.148 HD
ATOM     23  H   UNL     1      16.251  11.718  35.959  0.00  0.00    +0.148 HD
ATOM     24  N   UNL     1      16.359   9.733  34.606  0.00  0.00    -0.290 NA
ATOM     25  N   UNL     1      15.759   6.491  33.094  0.00  0.00    -0.055 NA
ENDBRANCH  10  12
ENDBRANCH   9  10
ENDBRANCH   5   9
ENDBRANCH   4   7
ENDBRANCH   1   4
BRANCH   1  26
ATOM     26  C   UNL     1       8.658   3.322  35.915  0.00  0.00    +0.175 C 
BRANCH  26  27
ATOM     27  C   UNL     1       7.855   4.544  35.445  0.00  0.00    +0.176 C 
ATOM     28  O   UNL     1       7.527   5.342  36.616  0.00  0.00    -0.332 OA
ATOM     29  C   UNL     1       6.847   6.612  36.347  0.00  0.00    +0.277 C 
ATOM     30  C   UNL     1       5.571   6.374  35.502  0.00  0.00    +0.110 C 
ATOM     31  C   UNL     1       5.863   5.503  34.262  0.00  0.00    +0.143 C 
ATOM     32  C   UNL     1       6.575   4.209  34.656  0.00  0.00    +0.133 C 
BRANCH  32  33
ATOM     33  N   UNL     1       6.926   3.428  33.459  0.00  0.00    -0.308 N 
ATOM     34  H   UNL     1       7.589   3.830  32.812  0.00  0.00    +0.149 HD
ATOM     35  C   UNL     1       6.425   2.224  33.173  0.00  0.00    +0.210 C 
ATOM     36  C   UNL     1       5.397   1.650  34.166  0.00  0.00    +0.109 C 
ATOM     37  O   UNL     1       6.748   1.586  32.170  0.00  0.00    -0.276 OA
ENDBRANCH  32  33
BRANCH  29  38
ATOM     38  C   UNL     1       7.783   7.588  35.604  0.00  0.00    +0.414 C 
ATOM     39  O   UNL     1       7.490   7.993  34.479  0.00  0.00    -0.240 OA
ATOM     40  O   UNL     1       8.830   7.969  36.128  0.00  0.00    -0.240 OA
ENDBRANCH  29  38
BRANCH  29  41
ATOM     41  O   UNL     1       6.452   7.187  37.619  0.00  0.00    -0.343 OA
ATOM     42  C   UNL     1       7.250   6.768  38.755  0.00  0.00    +0.198 C 
ENDBRANCH  29  41
BRANCH  31  43
ATOM     43  O   UNL     1       4.640   5.184  33.598  0.00  0.00    -0.390 OA
ATOM     44  H   UNL     1       4.008   4.844  34.236  0.00  0.00    +0.210 HD
ENDBRANCH  31  43
ENDBRANCH  26  27
BRANCH  26  45
ATOM     45  O   UNL     1       8.917   3.413  37.331  0.00  0.00    -0.387 OA
ATOM     46  H   UNL     1       9.460   2.670  37.605  0.00  0.00    +0.210 HD
ENDBRANCH  26  45
ENDBRANCH   1  26
TORSDOF 13
