REMARK VINA RESULT:    -6.080      4.859     10.109
REMARK INTER + INTRA:         -13.174
REMARK INTER:                 -11.285
REMARK INTRA:                  -1.889
REMARK UNBOUND:                -2.296
REMARK  Name = lig_assembled_63.pdb
REMARK  17 active torsions:
REMARK  status: ('A' for Active; 'I' for Inactive)
REMARK    1  A    between atoms: _2  and  _11
REMARK    2  A    between atoms: _6  and  _20
REMARK    3  A    between atoms: _7  and  _15
REMARK    4  A    between atoms: _8  and  _9
REMARK    5  A    between atoms: _8  and  _20
REMARK    6  A    between atoms: _16  and  _36
REMARK    7  A    between atoms: _18  and  _24
REMARK    8  A    between atoms: _19  and  _23
REMARK    9  A    between atoms: _23  and  _24
REMARK   10  A    between atoms: _26  and  _27
REMARK   11  A    between atoms: _28  and  _29
REMARK   12  A    between atoms: _30  and  _32
REMARK   13  A    between atoms: _32  and  _33
REMARK   14  A    between atoms: _32  and  _34
REMARK   15  A    between atoms: _34  and  _35
REMARK   16  A    between atoms: _34  and  _36
REMARK   17  A    between atoms: _37  and  _39
REMARK                            x       y       z     vdW  Elec       q    Type
REMARK                         _______ _______ _______ _____ _____    ______ ____
ROOT
ATOM      1  C   UNL     1      18.283   5.553  23.712  0.00  0.00    +0.163 C 
ENDROOT
BRANCH   1   2
ATOM      2  O   UNL     1      17.258   5.584  22.704  0.00  0.00    -0.388 OA
ATOM      3  H   UNL     1      16.891   6.470  22.648  0.00  0.00    +0.210 HD
ENDBRANCH   1   2
BRANCH   1   4
ATOM      4  C   UNL     1      19.272   6.691  23.486  0.00  0.00    +0.141 C 
BRANCH   4   7
ATOM      5  C   UNL     1      20.546   7.596  25.400  0.00  0.00    +0.401 C 
ATOM      6  O   UNL     1      21.567   6.954  25.145  0.00  0.00    -0.226 OA
ATOM      7  N   UNL     1      19.424   7.529  24.681  0.00  0.00    -0.279 N 
ATOM      8  H   UNL     1      18.635   8.087  24.975  0.00  0.00    +0.152 HD
BRANCH   5   9
ATOM      9  O   UNL     1      20.539   8.468  26.533  0.00  0.00    -0.444 OA
BRANCH   9  10
ATOM     10  C   UNL     1      19.205   8.922  26.778  0.00  0.00    +0.292 C 
BRANCH  10  12
ATOM     11  N   UNL     1      19.081   8.015  29.074  0.00  0.00    -0.131 NA
ATOM     12  C   UNL     1      18.972   9.080  28.225  0.00  0.00    +0.121 A 
ATOM     13  C   UNL     1      18.620  10.193  28.951  0.00  0.00    +0.145 A 
ATOM     14  N   UNL     1      18.487   9.746  30.250  0.00  0.00    -0.200 N 
ATOM     15  N   UNL     1      18.793   8.431  30.300  0.00  0.00    -0.059 NA
BRANCH  14  16
ATOM     16  C   UNL     1      18.039  10.510  31.368  0.00  0.00    +0.173 A 
ATOM     17  C   UNL     1      18.881  11.381  32.065  0.00  0.00    +0.096 A 
ATOM     18  C   UNL     1      18.364  12.010  33.210  0.00  0.00    +0.024 A 
ATOM     19  C   UNL     1      17.050  11.785  33.608  0.00  0.00    +0.021 A 
ATOM     20  C   UNL     1      16.275  10.940  32.840  0.00  0.00    +0.113 A 
ATOM     21  N   UNL     1      16.737  10.302  31.743  0.00  0.00    -0.235 NA
BRANCH  17  22
ATOM     22  C   UNL     1      20.229  11.705  31.700  0.00  0.00    +0.103 C 
ATOM     23  N   UNL     1      21.339  11.863  31.398  0.00  0.00    -0.191 NA
ENDBRANCH  17  22
ENDBRANCH  14  16
ENDBRANCH  10  12
ENDBRANCH   9  10
ENDBRANCH   5   9
ENDBRANCH   4   7
ENDBRANCH   1   4
BRANCH   1  24
ATOM     24  C   UNL     1      19.032   4.209  23.692  0.00  0.00    +0.175 C 
BRANCH  24  25
ATOM     25  C   UNL     1      18.285   3.120  24.476  0.00  0.00    +0.176 C 
ATOM     26  O   UNL     1      19.098   2.761  25.628  0.00  0.00    -0.332 OA
ATOM     27  C   UNL     1      18.493   1.803  26.557  0.00  0.00    +0.277 C 
ATOM     28  C   UNL     1      18.056   0.522  25.805  0.00  0.00    +0.110 C 
ATOM     29  C   UNL     1      17.216   0.854  24.555  0.00  0.00    +0.143 C 
ATOM     30  C   UNL     1      17.938   1.861  23.660  0.00  0.00    +0.133 C 
BRANCH  30  31
ATOM     31  N   UNL     1      17.091   2.235  22.516  0.00  0.00    -0.308 N 
ATOM     32  H   UNL     1      16.271   2.795  22.701  0.00  0.00    +0.149 HD
ATOM     33  C   UNL     1      17.335   1.883  21.251  0.00  0.00    +0.210 C 
ATOM     34  C   UNL     1      18.579   1.008  21.007  0.00  0.00    +0.109 C 
ATOM     35  O   UNL     1      16.616   2.224  20.312  0.00  0.00    -0.276 OA
ENDBRANCH  30  31
BRANCH  27  36
ATOM     36  C   UNL     1      17.272   2.425  27.267  0.00  0.00    +0.414 C 
ATOM     37  O   UNL     1      17.431   3.239  28.175  0.00  0.00    -0.240 OA
ATOM     38  O   UNL     1      16.129   2.114  26.930  0.00  0.00    -0.240 OA
ENDBRANCH  27  36
BRANCH  27  39
ATOM     39  O   UNL     1      19.495   1.437  27.541  0.00  0.00    -0.343 OA
ATOM     40  C   UNL     1      20.830   1.934  27.269  0.00  0.00    +0.198 C 
ENDBRANCH  27  39
BRANCH  29  41
ATOM     41  O   UNL     1      16.965  -0.340  23.812  0.00  0.00    -0.390 OA
ATOM     42  H   UNL     1      17.718  -0.930  23.889  0.00  0.00    +0.210 HD
ENDBRANCH  29  41
ENDBRANCH  24  25
BRANCH  24  43
ATOM     43  O   UNL     1      20.364   4.375  24.218  0.00  0.00    -0.387 OA
ATOM     44  H   UNL     1      20.329   4.910  25.015  0.00  0.00    +0.210 HD
ENDBRANCH  24  43
ENDBRANCH   1  24
TORSDOF 15
