REMARK VINA RESULT:    -5.583      2.995      5.832
REMARK INTER + INTRA:         -15.814
REMARK INTER:                 -12.074
REMARK INTRA:                  -3.740
REMARK UNBOUND:                -2.725
REMARK  Name = lig_assembled_30.pdb
REMARK  27 active torsions:
REMARK  status: ('A' for Active; 'I' for Inactive)
REMARK    1  A    between atoms: _2  and  _9
REMARK    2  A    between atoms: _4  and  _25
REMARK    3  A    between atoms: _5  and  _18
REMARK    4  A    between atoms: _5  and  _19
REMARK    5  A    between atoms: _6  and  _7
REMARK    6  A    between atoms: _6  and  _25
REMARK    7  A    between atoms: _9  and  _10
REMARK    8  A    between atoms: _10  and  _11
REMARK    9  A    between atoms: _11  and  _12
REMARK   10  A    between atoms: _12  and  _13
REMARK   11  A    between atoms: _13  and  _14
REMARK   12  A    between atoms: _14  and  _15
REMARK   13  A    between atoms: _15  and  _16
REMARK   14  A    between atoms: _16  and  _17
REMARK   15  A    between atoms: _17  and  _18
REMARK   16  A    between atoms: _21  and  _41
REMARK   17  A    between atoms: _23  and  _29
REMARK   18  A    between atoms: _24  and  _28
REMARK   19  A    between atoms: _28  and  _29
REMARK   20  A    between atoms: _31  and  _32
REMARK   21  A    between atoms: _33  and  _34
REMARK   22  A    between atoms: _35  and  _37
REMARK   23  A    between atoms: _37  and  _38
REMARK   24  A    between atoms: _37  and  _39
REMARK   25  A    between atoms: _39  and  _40
REMARK   26  A    between atoms: _39  and  _41
REMARK   27  A    between atoms: _42  and  _44
REMARK                            x       y       z     vdW  Elec       q    Type
REMARK                         _______ _______ _______ _____ _____    ______ ____
ROOT
ATOM      1  C   UNL     1      18.185   4.327  23.504  0.00  0.00    +0.401 C 
ATOM      2  O   UNL     1      19.257   3.813  23.833  0.00  0.00    -0.226 OA
ATOM      3  N   UNL     1      17.969   5.642  23.467  0.00  0.00    -0.279 N 
ATOM      4  H   UNL     1      17.059   5.968  23.174  0.00  0.00    +0.152 HD
ENDROOT
BRANCH   1   5
ATOM      5  O   UNL     1      17.095   3.480  23.131  0.00  0.00    -0.444 OA
BRANCH   5   6
ATOM      6  C   UNL     1      17.175   3.186  21.734  0.00  0.00    +0.292 C 
BRANCH   6   8
ATOM      7  N   UNL     1      17.871   1.318  20.266  0.00  0.00    -0.131 NA
ATOM      8  C   UNL     1      17.661   1.809  21.527  0.00  0.00    +0.120 A 
ATOM      9  C   UNL     1      17.968   0.832  22.449  0.00  0.00    +0.137 A 
ATOM     10  N   UNL     1      18.357  -0.225  21.683  0.00  0.00    -0.251 N 
ATOM     11  N   UNL     1      18.298   0.066  20.374  0.00  0.00    -0.065 NA
BRANCH  10  12
ATOM     12  C   UNL     1      18.753  -1.544  22.126  0.00  0.00    +0.145 C 
BRANCH  12  13
ATOM     13  C   UNL     1      18.093  -1.903  23.452  0.00  0.00    +0.023 C 
BRANCH  13  14
ATOM     14  C   UNL     1      16.690  -2.475  23.256  0.00  0.00    +0.002 C 
BRANCH  14  15
ATOM     15  C   UNL     1      15.772  -2.021  24.389  0.00  0.00    +0.000 C 
BRANCH  15  16
ATOM     16  C   UNL     1      15.614  -3.098  25.458  0.00  0.00    +0.000 C 
BRANCH  16  17
ATOM     17  C   UNL     1      16.134  -2.603  26.809  0.00  0.00    +0.000 C 
BRANCH  17  18
ATOM     18  C   UNL     1      16.332  -1.090  26.795  0.00  0.00    +0.000 C 
BRANCH  18  19
ATOM     19  C   UNL     1      17.655  -0.688  27.446  0.00  0.00    +0.001 C 
BRANCH  19  20
ATOM     20  C   UNL     1      18.386   0.337  26.581  0.00  0.00    +0.011 C 
BRANCH  20  21
ATOM     21  C   UNL     1      17.422   1.327  25.934  0.00  0.00    +0.120 C 
BRANCH  21  22
ATOM     22  C   UNL     1      17.257   2.571  26.777  0.00  0.00    +0.305 C 
ATOM     23  O   UNL     1      18.168   3.270  27.194  0.00  0.00    -0.251 OA
BRANCH  22  24
ATOM     24  O   UNL     1      15.960   2.849  27.036  0.00  0.00    -0.481 OA
ATOM     25  H   UNL     1      15.336   2.200  26.660  0.00  0.00    +0.295 HD
ENDBRANCH  22  24
ENDBRANCH  21  22
ENDBRANCH  20  21
ENDBRANCH  19  20
ENDBRANCH  18  19
ENDBRANCH  17  18
ENDBRANCH  16  17
ENDBRANCH  15  16
ENDBRANCH  14  15
ENDBRANCH  13  14
ENDBRANCH  12  13
ENDBRANCH  10  12
ENDBRANCH   6   8
ENDBRANCH   5   6
ENDBRANCH   1   5
BRANCH   3  26
ATOM     26  C   UNL     1      18.980   6.644  23.827  0.00  0.00    +0.141 C 
BRANCH  26  27
ATOM     27  C   UNL     1      18.993   6.925  25.326  0.00  0.00    +0.163 C 
BRANCH  27  28
ATOM     28  O   UNL     1      18.282   5.890  26.026  0.00  0.00    -0.388 OA
ATOM     29  H   UNL     1      17.470   6.250  26.391  0.00  0.00    +0.210 HD
ENDBRANCH  27  28
BRANCH  27  30
ATOM     30  C   UNL     1      20.447   7.022  25.819  0.00  0.00    +0.175 C 
BRANCH  30  31
ATOM     31  C   UNL     1      20.533   7.144  27.347  0.00  0.00    +0.176 C 
ATOM     32  O   UNL     1      20.166   5.859  27.920  0.00  0.00    -0.332 OA
ATOM     33  C   UNL     1      20.293   5.755  29.377  0.00  0.00    +0.277 C 
ATOM     34  C   UNL     1      19.493   6.884  30.072  0.00  0.00    +0.110 C 
ATOM     35  C   UNL     1      19.826   8.268  29.474  0.00  0.00    +0.143 C 
ATOM     36  C   UNL     1      19.664   8.262  27.954  0.00  0.00    +0.133 C 
BRANCH  36  37
ATOM     37  N   UNL     1      20.067   9.559  27.388  0.00  0.00    -0.308 N 
ATOM     38  H   UNL     1      21.052   9.786  27.383  0.00  0.00    +0.149 HD
ATOM     39  C   UNL     1      19.217  10.456  26.881  0.00  0.00    +0.210 C 
ATOM     40  C   UNL     1      17.721  10.092  26.928  0.00  0.00    +0.109 C 
ATOM     41  O   UNL     1      19.584  11.529  26.400  0.00  0.00    -0.276 OA
ENDBRANCH  36  37
BRANCH  33  42
ATOM     42  C   UNL     1      21.773   5.833  29.804  0.00  0.00    +0.414 C 
ATOM     43  O   UNL     1      22.086   6.381  30.861  0.00  0.00    -0.240 OA
ATOM     44  O   UNL     1      22.655   5.348  29.093  0.00  0.00    -0.240 OA
ENDBRANCH  33  42
BRANCH  35  45
ATOM     45  O   UNL     1      18.961   9.256  30.036  0.00  0.00    -0.390 OA
ATOM     46  H   UNL     1      18.048   8.976  29.938  0.00  0.00    +0.210 HD
ENDBRANCH  35  45
BRANCH  33  47
ATOM     47  O   UNL     1      19.733   4.480  29.786  0.00  0.00    -0.343 OA
ATOM     48  C   UNL     1      18.783   4.551  30.879  0.00  0.00    +0.198 C 
ENDBRANCH  33  47
ENDBRANCH  30  31
BRANCH  30  49
ATOM     49  O   UNL     1      21.109   8.139  25.193  0.00  0.00    -0.387 OA
ATOM     50  H   UNL     1      20.976   8.099  24.243  0.00  0.00    +0.210 HD
ENDBRANCH  30  49
ENDBRANCH  27  30
ENDBRANCH  26  27
ENDBRANCH   3  26
TORSDOF 25
