REMARK VINA RESULT:    -5.956     14.149     15.646
REMARK INTER + INTRA:         -12.500
REMARK INTER:                 -10.398
REMARK INTRA:                  -2.102
REMARK UNBOUND:                -2.191
REMARK  Name = lig_assembled_48.pdb
REMARK  16 active torsions:
REMARK  status: ('A' for Active; 'I' for Inactive)
REMARK    1  A    between atoms: _2  and  _9
REMARK    2  A    between atoms: _4  and  _18
REMARK    3  A    between atoms: _6  and  _7
REMARK    4  A    between atoms: _6  and  _18
REMARK    5  A    between atoms: _14  and  _34
REMARK    6  A    between atoms: _16  and  _22
REMARK    7  A    between atoms: _17  and  _21
REMARK    8  A    between atoms: _21  and  _22
REMARK    9  A    between atoms: _24  and  _25
REMARK   10  A    between atoms: _26  and  _27
REMARK   11  A    between atoms: _28  and  _30
REMARK   12  A    between atoms: _30  and  _31
REMARK   13  A    between atoms: _30  and  _32
REMARK   14  A    between atoms: _32  and  _33
REMARK   15  A    between atoms: _32  and  _34
REMARK   16  A    between atoms: _35  and  _37
REMARK                            x       y       z     vdW  Elec       q    Type
REMARK                         _______ _______ _______ _____ _____    ______ ____
ROOT
ATOM      1  C   UNL     1      18.635  10.139  29.141  0.00  0.00    +0.163 C 
ENDROOT
BRANCH   1   2
ATOM      2  O   UNL     1      17.395  10.808  29.423  0.00  0.00    -0.388 OA
ATOM      3  H   UNL     1      16.952  11.024  28.599  0.00  0.00    +0.210 HD
ENDBRANCH   1   2
BRANCH   1   4
ATOM      4  C   UNL     1      18.706   9.775  27.662  0.00  0.00    +0.141 C 
BRANCH   4   7
ATOM      5  C   UNL     1      19.048   7.603  26.535  0.00  0.00    +0.401 C 
ATOM      6  O   UNL     1      18.072   7.728  25.792  0.00  0.00    -0.226 OA
ATOM      7  N   UNL     1      19.414   8.508  27.443  0.00  0.00    -0.279 N 
ATOM      8  H   UNL     1      20.225   8.311  28.013  0.00  0.00    +0.152 HD
BRANCH   5   9
ATOM      9  O   UNL     1      19.847   6.421  26.438  0.00  0.00    -0.444 OA
BRANCH   9  10
ATOM     10  C   UNL     1      20.144   6.157  25.064  0.00  0.00    +0.292 C 
BRANCH  10  12
ATOM     11  N   UNL     1      20.256   3.691  24.955  0.00  0.00    -0.131 NA
ATOM     12  C   UNL     1      19.590   4.849  24.669  0.00  0.00    +0.120 A 
ATOM     13  C   UNL     1      18.410   4.543  24.027  0.00  0.00    +0.137 A 
ATOM     14  N   UNL     1      18.368   3.181  24.036  0.00  0.00    -0.248 N 
ATOM     15  N   UNL     1      19.519   2.676  24.529  0.00  0.00    -0.065 NA
BRANCH  14  16
ATOM     16  C   UNL     1      17.300   2.259  23.665  0.00  0.00    +0.109 C 
ATOM     17  C   UNL     1      16.320   2.918  22.675  0.00  0.00    +0.027 C 
ATOM     18  C   UNL     1      16.945   3.074  21.291  0.00  0.00    +0.002 C 
ATOM     19  C   UNL     1      17.352   1.719  20.723  0.00  0.00    +0.000 C 
ATOM     20  C   UNL     1      18.268   0.942  21.665  0.00  0.00    +0.002 C 
ATOM     21  C   UNL     1      17.754   0.895  23.109  0.00  0.00    +0.027 C 
ENDBRANCH  14  16
ENDBRANCH  10  12
ENDBRANCH   9  10
ENDBRANCH   5   9
ENDBRANCH   4   7
ENDBRANCH   1   4
BRANCH   1  22
ATOM     22  C   UNL     1      18.780   8.866  29.991  0.00  0.00    +0.175 C 
BRANCH  22  23
ATOM     23  C   UNL     1      18.000   8.960  31.311  0.00  0.00    +0.176 C 
ATOM     24  O   UNL     1      18.288  10.254  31.908  0.00  0.00    -0.332 OA
ATOM     25  C   UNL     1      17.543  10.567  33.132  0.00  0.00    +0.277 C 
ATOM     26  C   UNL     1      17.739   9.449  34.185  0.00  0.00    +0.110 C 
ATOM     27  C   UNL     1      17.475   8.051  33.588  0.00  0.00    +0.143 C 
ATOM     28  C   UNL     1      18.298   7.833  32.318  0.00  0.00    +0.133 C 
BRANCH  28  29
ATOM     29  N   UNL     1      17.973   6.533  31.710  0.00  0.00    -0.308 N 
ATOM     30  H   UNL     1      17.045   6.409  31.331  0.00  0.00    +0.149 HD
ATOM     31  C   UNL     1      18.825   5.507  31.627  0.00  0.00    +0.210 C 
ATOM     32  C   UNL     1      20.222   5.720  32.238  0.00  0.00    +0.109 C 
ATOM     33  O   UNL     1      18.530   4.434  31.100  0.00  0.00    -0.276 OA
ENDBRANCH  28  29
BRANCH  25  34
ATOM     34  C   UNL     1      16.039  10.733  32.830  0.00  0.00    +0.414 C 
ATOM     35  O   UNL     1      15.670  11.419  31.877  0.00  0.00    -0.240 OA
ATOM     36  O   UNL     1      15.196  10.181  33.538  0.00  0.00    -0.240 OA
ENDBRANCH  25  34
BRANCH  27  37
ATOM     37  O   UNL     1      17.813   7.047  34.545  0.00  0.00    -0.390 OA
ATOM     38  H   UNL     1      17.443   6.204  34.270  0.00  0.00    +0.210 HD
ENDBRANCH  27  37
BRANCH  25  39
ATOM     39  O   UNL     1      18.071  11.805  33.675  0.00  0.00    -0.343 OA
ATOM     40  C   UNL     1      17.565  12.164  34.985  0.00  0.00    +0.198 C 
ENDBRANCH  25  39
ENDBRANCH  22  23
BRANCH  22  41
ATOM     41  O   UNL     1      20.172   8.600  30.255  0.00  0.00    -0.387 OA
ATOM     42  H   UNL     1      20.314   8.549  31.203  0.00  0.00    +0.210 HD
ENDBRANCH  22  41
ENDBRANCH   1  22
TORSDOF 14
