REMARK VINA RESULT:    -6.123      1.981      2.578
REMARK INTER + INTRA:         -13.116
REMARK INTER:                 -10.251
REMARK INTRA:                  -2.865
REMARK UNBOUND:                -1.802
REMARK  Name = lig_assembled_36.pdb
REMARK  18 active torsions:
REMARK  status: ('A' for Active; 'I' for Inactive)
REMARK    1  A    between atoms: _2  and  _10
REMARK    2  A    between atoms: _5  and  _21
REMARK    3  A    between atoms: _7  and  _8
REMARK    4  A    between atoms: _7  and  _21
REMARK    5  A    between atoms: _10  and  _11
REMARK    6  A    between atoms: _14  and  _15
REMARK    7  A    between atoms: _17  and  _37
REMARK    8  A    between atoms: _19  and  _25
REMARK    9  A    between atoms: _20  and  _24
REMARK   10  A    between atoms: _24  and  _25
REMARK   11  A    between atoms: _27  and  _28
REMARK   12  A    between atoms: _29  and  _30
REMARK   13  A    between atoms: _31  and  _33
REMARK   14  A    between atoms: _33  and  _34
REMARK   15  A    between atoms: _33  and  _35
REMARK   16  A    between atoms: _35  and  _36
REMARK   17  A    between atoms: _35  and  _37
REMARK   18  A    between atoms: _38  and  _40
REMARK                            x       y       z     vdW  Elec       q    Type
REMARK                         _______ _______ _______ _____ _____    ______ ____
ROOT
ATOM      1  C   UNL     1      18.678  10.191  29.303  0.00  0.00    +0.163 C 
ENDROOT
BRANCH   1   2
ATOM      2  O   UNL     1      17.430  10.812  29.651  0.00  0.00    -0.388 OA
ATOM      3  H   UNL     1      17.527  11.282  30.483  0.00  0.00    +0.210 HD
ENDBRANCH   1   2
BRANCH   1   4
ATOM      4  C   UNL     1      18.817   8.817  29.981  0.00  0.00    +0.175 C 
BRANCH   4   5
ATOM      5  C   UNL     1      18.020   8.737  31.292  0.00  0.00    +0.176 C 
ATOM      6  O   UNL     1      18.303   9.939  32.061  0.00  0.00    -0.332 OA
ATOM      7  C   UNL     1      17.543  10.088  33.306  0.00  0.00    +0.277 C 
ATOM      8  C   UNL     1      17.723   8.839  34.203  0.00  0.00    +0.110 C 
ATOM      9  C   UNL     1      17.465   7.534  33.420  0.00  0.00    +0.143 C 
ATOM     10  C   UNL     1      18.303   7.485  32.143  0.00  0.00    +0.133 C 
BRANCH  10  11
ATOM     11  N   UNL     1      17.984   6.279  31.363  0.00  0.00    -0.308 N 
ATOM     12  H   UNL     1      17.059   6.207  30.963  0.00  0.00    +0.149 HD
ATOM     13  C   UNL     1      18.836   5.273  31.149  0.00  0.00    +0.210 C 
ATOM     14  C   UNL     1      20.229   5.401  31.793  0.00  0.00    +0.109 C 
ATOM     15  O   UNL     1      18.546   4.281  30.479  0.00  0.00    -0.276 OA
ENDBRANCH  10  11
BRANCH   7  16
ATOM     16  C   UNL     1      16.044  10.298  33.010  0.00  0.00    +0.414 C 
ATOM     17  O   UNL     1      15.689  11.084  32.132  0.00  0.00    -0.240 OA
ATOM     18  O   UNL     1      15.189   9.683  33.649  0.00  0.00    -0.240 OA
ENDBRANCH   7  16
BRANCH   7  19
ATOM     19  O   UNL     1      18.067  11.240  34.016  0.00  0.00    -0.343 OA
ATOM     20  C   UNL     1      18.796  12.186  33.194  0.00  0.00    +0.198 C 
ENDBRANCH   7  19
BRANCH   9  21
ATOM     21  O   UNL     1      17.788   6.409  34.239  0.00  0.00    -0.390 OA
ATOM     22  H   UNL     1      16.983   5.940  34.471  0.00  0.00    +0.210 HD
ENDBRANCH   9  21
ENDBRANCH   4   5
BRANCH   4  23
ATOM     23  O   UNL     1      20.206   8.521  30.226  0.00  0.00    -0.387 OA
ATOM     24  H   UNL     1      20.663   8.414  29.388  0.00  0.00    +0.210 HD
ENDBRANCH   4  23
ENDBRANCH   1   4
BRANCH   1  25
ATOM     25  C   UNL     1      18.773  10.023  27.790  0.00  0.00    +0.141 C 
BRANCH  25  28
ATOM     26  C   UNL     1      20.105   8.413  26.471  0.00  0.00    +0.401 C 
ATOM     27  O   UNL     1      20.674   9.283  25.808  0.00  0.00    -0.226 OA
ATOM     28  N   UNL     1      19.198   8.669  27.414  0.00  0.00    -0.279 N 
ATOM     29  H   UNL     1      18.779   7.887  27.898  0.00  0.00    +0.152 HD
BRANCH  26  30
ATOM     30  O   UNL     1      20.418   7.039  26.229  0.00  0.00    -0.444 OA
BRANCH  30  31
ATOM     31  C   UNL     1      20.442   6.328  27.470  0.00  0.00    +0.292 C 
BRANCH  31  33
ATOM     32  N   UNL     1      20.640   3.886  27.839  0.00  0.00    -0.131 NA
ATOM     33  C   UNL     1      19.975   4.943  27.275  0.00  0.00    +0.120 A 
ATOM     34  C   UNL     1      18.881   4.470  26.585  0.00  0.00    +0.137 A 
ATOM     35  N   UNL     1      18.884   3.132  26.850  0.00  0.00    -0.247 N 
ATOM     36  N   UNL     1      19.972   2.777  27.556  0.00  0.00    -0.065 NA
BRANCH  35  37
ATOM     37  C   UNL     1      17.887   2.147  26.481  0.00  0.00    +0.180 C 
BRANCH  37  38
ATOM     38  C   UNL     1      17.797   1.994  24.980  0.00  0.00    -0.026 A 
ATOM     39  C   UNL     1      16.708   2.517  24.266  0.00  0.00    +0.007 A 
ATOM     40  C   UNL     1      16.635   2.375  22.877  0.00  0.00    +0.019 A 
ATOM     41  C   UNL     1      17.647   1.704  22.183  0.00  0.00    +0.052 A 
ATOM     42  C   UNL     1      18.723   1.159  22.889  0.00  0.00    +0.019 A 
ATOM     43  C   UNL     1      18.795   1.300  24.278  0.00  0.00    +0.007 A 
BRANCH  41  44
ATOM     44  C   UNL     1      17.581   1.578  20.755  0.00  0.00    +0.099 C 
ATOM     45  N   UNL     1      17.539   1.478  19.600  0.00  0.00    -0.191 NA
ENDBRANCH  41  44
ENDBRANCH  37  38
ENDBRANCH  35  37
ENDBRANCH  31  33
ENDBRANCH  30  31
ENDBRANCH  26  30
ENDBRANCH  25  28
ENDBRANCH   1  25
TORSDOF 16
