REMARK VINA RESULT:    -6.771     13.333     17.808
REMARK INTER + INTRA:         -15.209
REMARK INTER:                 -12.940
REMARK INTRA:                  -2.269
REMARK UNBOUND:                -2.499
REMARK  Name = lig_assembled_64.pdb
REMARK  19 active torsions:
REMARK  status: ('A' for Active; 'I' for Inactive)
REMARK    1  A    between atoms: _2  and  _10
REMARK    2  A    between atoms: _5  and  _27
REMARK    3  A    between atoms: _7  and  _8
REMARK    4  A    between atoms: _7  and  _27
REMARK    5  A    between atoms: _12  and  _13
REMARK    6  A    between atoms: _13  and  _21
REMARK    7  A    between atoms: _14  and  _15
REMARK    8  A    between atoms: _23  and  _43
REMARK    9  A    between atoms: _25  and  _31
REMARK   10  A    between atoms: _26  and  _30
REMARK   11  A    between atoms: _30  and  _31
REMARK   12  A    between atoms: _33  and  _34
REMARK   13  A    between atoms: _35  and  _36
REMARK   14  A    between atoms: _37  and  _39
REMARK   15  A    between atoms: _39  and  _40
REMARK   16  A    between atoms: _39  and  _41
REMARK   17  A    between atoms: _41  and  _42
REMARK   18  A    between atoms: _41  and  _43
REMARK   19  A    between atoms: _44  and  _46
REMARK                            x       y       z     vdW  Elec       q    Type
REMARK                         _______ _______ _______ _____ _____    ______ ____
ROOT
ATOM      1  C   UNL     1      18.906   4.388  26.906  0.00  0.00    +0.401 C 
ATOM      2  O   UNL     1      18.757   4.361  25.683  0.00  0.00    -0.226 OA
ATOM      3  N   UNL     1      18.199   3.648  27.761  0.00  0.00    -0.279 N 
ATOM      4  H   UNL     1      18.402   3.733  28.747  0.00  0.00    +0.152 HD
ENDROOT
BRANCH   3   5
ATOM      5  C   UNL     1      17.142   2.716  27.349  0.00  0.00    +0.141 C 
BRANCH   5   6
ATOM      6  C   UNL     1      17.707   1.500  26.622  0.00  0.00    +0.163 C 
BRANCH   6   7
ATOM      7  O   UNL     1      17.590   0.333  27.453  0.00  0.00    -0.388 OA
ATOM      8  H   UNL     1      18.462   0.069  27.758  0.00  0.00    +0.210 HD
ENDBRANCH   6   7
BRANCH   6   9
ATOM      9  C   UNL     1      16.961   1.304  25.291  0.00  0.00    +0.175 C 
BRANCH   9  10
ATOM     10  C   UNL     1      17.879   0.754  24.190  0.00  0.00    +0.176 C 
ATOM     11  O   UNL     1      17.756   1.623  23.030  0.00  0.00    -0.332 OA
ATOM     12  C   UNL     1      18.647   1.311  21.908  0.00  0.00    +0.277 C 
ATOM     13  C   UNL     1      18.476  -0.166  21.476  0.00  0.00    +0.110 C 
ATOM     14  C   UNL     1      18.567  -1.126  22.680  0.00  0.00    +0.143 C 
ATOM     15  C   UNL     1      17.601  -0.707  23.790  0.00  0.00    +0.133 C 
BRANCH  15  16
ATOM     16  N   UNL     1      17.759  -1.577  24.966  0.00  0.00    -0.308 N 
ATOM     17  H   UNL     1      18.619  -1.508  25.492  0.00  0.00    +0.149 HD
ATOM     18  C   UNL     1      16.841  -2.453  25.383  0.00  0.00    +0.210 C 
ATOM     19  C   UNL     1      15.552  -2.553  24.545  0.00  0.00    +0.109 C 
ATOM     20  O   UNL     1      16.994  -3.158  26.381  0.00  0.00    -0.276 OA
ENDBRANCH  15  16
BRANCH  12  21
ATOM     21  C   UNL     1      20.119   1.570  22.290  0.00  0.00    +0.414 C 
ATOM     22  O   UNL     1      21.004   0.812  21.895  0.00  0.00    -0.240 OA
ATOM     23  O   UNL     1      20.421   2.536  22.991  0.00  0.00    -0.240 OA
ENDBRANCH  12  21
BRANCH  12  24
ATOM     24  O   UNL     1      18.275   2.160  20.792  0.00  0.00    -0.343 OA
ATOM     25  C   UNL     1      17.112   1.719  20.047  0.00  0.00    +0.198 C 
ENDBRANCH  12  24
BRANCH  14  26
ATOM     26  O   UNL     1      18.254  -2.455  22.262  0.00  0.00    -0.390 OA
ATOM     27  H   UNL     1      17.497  -2.436  21.671  0.00  0.00    +0.210 HD
ENDBRANCH  14  26
ENDBRANCH   9  10
BRANCH   9  28
ATOM     28  O   UNL     1      16.366   2.547  24.867  0.00  0.00    -0.387 OA
ATOM     29  H   UNL     1      16.467   2.643  23.917  0.00  0.00    +0.210 HD
ENDBRANCH   9  28
ENDBRANCH   6   9
ENDBRANCH   5   6
ENDBRANCH   3   5
BRANCH   1  30
ATOM     30  O   UNL     1      19.896   5.256  27.466  0.00  0.00    -0.444 OA
BRANCH  30  31
ATOM     31  C   UNL     1      19.762   6.562  26.899  0.00  0.00    +0.292 C 
BRANCH  31  33
ATOM     32  N   UNL     1      19.429   8.876  27.729  0.00  0.00    -0.131 NA
ATOM     33  C   UNL     1      19.329   7.529  27.926  0.00  0.00    +0.121 A 
ATOM     34  C   UNL     1      18.789   7.297  29.169  0.00  0.00    +0.143 A 
ATOM     35  N   UNL     1      18.580   8.545  29.705  0.00  0.00    -0.220 N 
ATOM     36  N   UNL     1      18.969   9.488  28.814  0.00  0.00    -0.060 NA
BRANCH  35  37
ATOM     37  C   UNL     1      18.044   8.880  30.972  0.00  0.00    +0.071 A 
ATOM     38  C   UNL     1      18.183  10.170  31.475  0.00  0.00    +0.063 A 
ATOM     39  CA  UNL     1      17.639  10.431  32.717  0.00  0.00    +0.150 A 
ATOM     40  N   UNL     1      16.982   9.519  33.488  0.00  0.00    -0.240 NA
ATOM     41  C   UNL     1      16.863   8.256  32.996  0.00  0.00    +0.074 A 
ATOM     42  C   UNL     1      17.372   7.915  31.738  0.00  0.00    +0.056 A 
BRANCH  41  43
ATOM     43  C   UNL     1      16.188   7.282  33.887  0.00  0.00    +0.000 A 
ATOM     44  C   UNL     1      15.803   6.003  33.441  0.00  0.00    +0.010 A 
ATOM     45  C   UNL     1      15.201   5.077  34.303  0.00  0.00    +0.001 A 
ATOM     46  C   UNL     1      14.968   5.409  35.633  0.00  0.00    +0.000 A 
ATOM     47  C   UNL     1      15.330   6.668  36.101  0.00  0.00    +0.001 A 
ATOM     48  C   UNL     1      15.931   7.591  35.237  0.00  0.00    +0.010 A 
ENDBRANCH  41  43
BRANCH  39  49
ATOM     49  C   UNL     1      17.765  11.800  33.295  0.00  0.00    +0.355 C 
ATOM     50  OXT UNL     1      17.153  12.197  34.271  0.00  0.00    -0.243 OA
BRANCH  49  51
ATOM     51  O   UNL     1      18.649  12.540  32.587  0.00  0.00    -0.476 OA
ATOM     52  H   UNL     1      18.208  12.869  31.769  0.00  0.00    +0.295 HD
ENDBRANCH  49  51
ENDBRANCH  39  49
ENDBRANCH  35  37
ENDBRANCH  31  33
ENDBRANCH  30  31
ENDBRANCH   1  30
TORSDOF 17
