REMARK VINA RESULT:    -5.464      9.265     13.260
REMARK INTER + INTRA:         -12.937
REMARK INTER:                 -11.061
REMARK INTRA:                  -1.876
REMARK UNBOUND:                -3.800
REMARK  Name = lig_assembled_65.pdb
REMARK  16 active torsions:
REMARK  status: ('A' for Active; 'I' for Inactive)
REMARK    1  A    between atoms: _8  and  _20
REMARK    2  A    between atoms: _9  and  _15
REMARK    3  A    between atoms: _10  and  _11
REMARK    4  A    between atoms: _10  and  _20
REMARK    5  A    between atoms: _16  and  _36
REMARK    6  A    between atoms: _18  and  _24
REMARK    7  A    between atoms: _19  and  _23
REMARK    8  A    between atoms: _23  and  _24
REMARK    9  A    between atoms: _26  and  _27
REMARK   10  A    between atoms: _28  and  _29
REMARK   11  A    between atoms: _30  and  _32
REMARK   12  A    between atoms: _32  and  _33
REMARK   13  A    between atoms: _32  and  _34
REMARK   14  A    between atoms: _34  and  _35
REMARK   15  A    between atoms: _34  and  _36
REMARK   16  A    between atoms: _37  and  _39
REMARK                            x       y       z     vdW  Elec       q    Type
REMARK                         _______ _______ _______ _____ _____    ______ ____
ROOT
ATOM      1  C   UNL     1       9.220   5.010  38.333  0.00  0.00    +0.163 C 
ENDROOT
BRANCH   1   2
ATOM      2  O   UNL     1       9.104   6.345  37.812  0.00  0.00    -0.388 OA
ATOM      3  H   UNL     1       8.560   6.873  38.402  0.00  0.00    +0.210 HD
ENDBRANCH   1   2
BRANCH   1   4
ATOM      4  C   UNL     1      10.686   4.676  38.588  0.00  0.00    +0.141 C 
BRANCH   4   7
ATOM      5  C   UNL     1      12.434   4.206  36.905  0.00  0.00    +0.401 C 
ATOM      6  O   UNL     1      12.653   3.064  37.315  0.00  0.00    -0.226 OA
ATOM      7  N   UNL     1      11.536   5.032  37.445  0.00  0.00    -0.279 N 
ATOM      8  H   UNL     1      11.435   5.954  37.045  0.00  0.00    +0.152 HD
BRANCH   5   9
ATOM      9  O   UNL     1      13.178   4.698  35.788  0.00  0.00    -0.444 OA
BRANCH   9  10
ATOM     10  C   UNL     1      14.334   5.399  36.256  0.00  0.00    +0.292 C 
BRANCH  10  12
ATOM     11  N   UNL     1      15.808   5.100  34.288  0.00  0.00    -0.131 NA
ATOM     12  C   UNL     1      15.108   5.931  35.119  0.00  0.00    +0.121 A 
ATOM     13  C   UNL     1      15.274   7.229  34.698  0.00  0.00    +0.149 A 
ATOM     14  N   UNL     1      16.102   7.143  33.598  0.00  0.00    -0.155 N 
ATOM     15  C   UNL     1      16.592   8.221  32.803  0.00  0.00    +0.416 C 
ATOM     16  N   UNL     1      17.388   7.940  31.765  0.00  0.00    +0.041 NA
ATOM     17  C   UNL     1      17.819   8.998  31.082  0.00  0.00    +0.339 C 
ATOM     18  C   UNL     1      18.725   8.750  29.917  0.00  0.00    +0.149 C 
ATOM     19  N   UNL     1      17.509  10.262  31.372  0.00  0.00    +0.007 NA
ATOM     20  C   UNL     1      16.726  10.431  32.426  0.00  0.00    +0.386 C 
ATOM     21  N   UNL     1      16.391  11.724  32.767  0.00  0.00    -0.296 N 
ATOM     22  H   UNL     1      16.489  12.340  31.972  0.00  0.00    +0.148 HD
ATOM     23  H   UNL     1      15.521  11.755  33.278  0.00  0.00    +0.148 HD
ATOM     24  N   UNL     1      16.222   9.458  33.163  0.00  0.00    -0.290 NA
ATOM     25  N   UNL     1      16.407   5.841  33.364  0.00  0.00    -0.055 NA
ENDBRANCH  10  12
ENDBRANCH   9  10
ENDBRANCH   5   9
ENDBRANCH   4   7
ENDBRANCH   1   4
BRANCH   1  26
ATOM     26  C   UNL     1       8.623   3.984  37.355  0.00  0.00    +0.175 C 
BRANCH  26  27
ATOM     27  C   UNL     1       8.013   4.655  36.114  0.00  0.00    +0.176 C 
ATOM     28  O   UNL     1       6.641   5.016  36.431  0.00  0.00    -0.332 OA
ATOM     29  C   UNL     1       5.928   5.768  35.393  0.00  0.00    +0.277 C 
ATOM     30  C   UNL     1       5.971   5.005  34.046  0.00  0.00    +0.110 C 
ATOM     31  C   UNL     1       7.407   4.572  33.683  0.00  0.00    +0.143 C 
ATOM     32  C   UNL     1       8.055   3.801  34.834  0.00  0.00    +0.133 C 
BRANCH  32  33
ATOM     33  N   UNL     1       9.452   3.469  34.510  0.00  0.00    -0.308 N 
ATOM     34  H   UNL     1      10.053   4.217  34.192  0.00  0.00    +0.149 HD
ATOM     35  C   UNL     1       9.977   2.245  34.609  0.00  0.00    +0.210 C 
ATOM     36  C   UNL     1       9.029   1.123  35.071  0.00  0.00    +0.109 C 
ATOM     37  O   UNL     1      11.155   2.000  34.345  0.00  0.00    -0.276 OA
ENDBRANCH  32  33
BRANCH  29  38
ATOM     38  C   UNL     1       6.545   7.170  35.211  0.00  0.00    +0.414 C 
ATOM     39  O   UNL     1       7.303   7.629  36.065  0.00  0.00    -0.240 OA
ATOM     40  O   UNL     1       6.286   7.841  34.212  0.00  0.00    -0.240 OA
ENDBRANCH  29  38
BRANCH  29  41
ATOM     41  O   UNL     1       4.542   5.894  35.802  0.00  0.00    -0.343 OA
ATOM     42  C   UNL     1       4.306   5.731  37.224  0.00  0.00    +0.198 C 
ENDBRANCH  29  41
BRANCH  31  43
ATOM     43  O   UNL     1       7.382   3.745  32.519  0.00  0.00    -0.390 OA
ATOM     44  H   UNL     1       7.096   2.861  32.760  0.00  0.00    +0.210 HD
ENDBRANCH  31  43
ENDBRANCH  26  27
BRANCH  26  45
ATOM     45  O   UNL     1       7.630   3.181  38.023  0.00  0.00    -0.387 OA
ATOM     46  H   UNL     1       7.938   2.274  38.081  0.00  0.00    +0.210 HD
ENDBRANCH  26  45
ENDBRANCH   1  26
TORSDOF 13
