REMARK VINA RESULT:    -5.334     15.130     17.315
REMARK INTER + INTRA:         -13.412
REMARK INTER:                 -11.479
REMARK INTRA:                  -1.933
REMARK UNBOUND:                -3.868
REMARK  Name = lig_assembled_85.pdb
REMARK  19 active torsions:
REMARK  status: ('A' for Active; 'I' for Inactive)
REMARK    1  A    between atoms: _2  and  _10
REMARK    2  A    between atoms: _3  and  _6
REMARK    3  A    between atoms: _3  and  _17
REMARK    4  A    between atoms: _5  and  _23
REMARK    5  A    between atoms: _7  and  _8
REMARK    6  A    between atoms: _7  and  _23
REMARK    7  A    between atoms: _15  and  _16
REMARK    8  A    between atoms: _19  and  _39
REMARK    9  A    between atoms: _21  and  _27
REMARK   10  A    between atoms: _22  and  _26
REMARK   11  A    between atoms: _26  and  _27
REMARK   12  A    between atoms: _29  and  _30
REMARK   13  A    between atoms: _31  and  _32
REMARK   14  A    between atoms: _33  and  _35
REMARK   15  A    between atoms: _35  and  _36
REMARK   16  A    between atoms: _35  and  _37
REMARK   17  A    between atoms: _37  and  _38
REMARK   18  A    between atoms: _37  and  _39
REMARK   19  A    between atoms: _40  and  _42
REMARK                            x       y       z     vdW  Elec       q    Type
REMARK                         _______ _______ _______ _____ _____    ______ ____
ROOT
ATOM      1  C   UNL     1       3.931   2.251  31.847  0.00  0.00    +0.141 C 
ENDROOT
BRANCH   1   4
ATOM      2  C   UNL     1       2.153   2.446  30.142  0.00  0.00    +0.401 C 
ATOM      3  O   UNL     1       1.246   2.131  30.916  0.00  0.00    -0.226 OA
ATOM      4  N   UNL     1       3.438   2.522  30.491  0.00  0.00    -0.279 N 
ATOM      5  H   UNL     1       4.110   2.780  29.782  0.00  0.00    +0.152 HD
BRANCH   2   6
ATOM      6  O   UNL     1       1.832   2.749  28.782  0.00  0.00    -0.444 OA
BRANCH   6   7
ATOM      7  C   UNL     1       2.076   1.600  27.966  0.00  0.00    +0.292 C 
BRANCH   7   9
ATOM      8  N   UNL     1       1.946   0.962  25.585  0.00  0.00    -0.131 NA
ATOM      9  C   UNL     1       1.858   1.928  26.547  0.00  0.00    +0.121 A 
ATOM     10  C   UNL     1       1.502   3.122  25.963  0.00  0.00    +0.143 A 
ATOM     11  N   UNL     1       1.378   2.831  24.626  0.00  0.00    -0.219 N 
ATOM     12  N   UNL     1       1.626   1.515  24.424  0.00  0.00    -0.060 NA
BRANCH  11  13
ATOM     13  C   UNL     1       0.960   3.658  23.560  0.00  0.00    +0.080 A 
ATOM     14  C   UNL     1      -0.177   4.479  23.598  0.00  0.00    +0.062 A 
ATOM     15  C   UNL     1      -0.613   5.054  22.381  0.00  0.00    +0.016 A 
ATOM     16  C   UNL     1       0.069   4.844  21.178  0.00  0.00    +0.021 A 
ATOM     17  C   UNL     1       1.232   4.089  21.176  0.00  0.00    +0.043 A 
ATOM     18 CL   UNL     1       2.063   3.791  19.700  0.00  0.00    -0.083 Cl
ATOM     19  C   UNL     1       1.694   3.521  22.359  0.00  0.00    +0.048 A 
BRANCH  14  20
ATOM     20  C   UNL     1      -1.069   4.783  24.757  0.00  0.00    +0.248 C 
ATOM     21  O   UNL     1      -0.946   5.917  25.227  0.00  0.00    -0.270 OA
ATOM     22  N   UNL     1      -1.941   3.853  25.335  0.00  0.00    -0.304 N 
ATOM     23  C   UNL     1      -2.299   2.533  24.835  0.00  0.00    +0.132 C 
ATOM     24  C   UNL     1      -2.729   4.323  26.470  0.00  0.00    +0.132 C 
ENDBRANCH  14  20
ENDBRANCH  11  13
ENDBRANCH   7   9
ENDBRANCH   6   7
ENDBRANCH   2   6
ENDBRANCH   1   4
BRANCH   1  25
ATOM     25  C   UNL     1       4.553   3.490  32.484  0.00  0.00    +0.163 C 
BRANCH  25  26
ATOM     26  O   UNL     1       3.652   4.049  33.454  0.00  0.00    -0.388 OA
ATOM     27  H   UNL     1       3.718   3.556  34.275  0.00  0.00    +0.210 HD
ENDBRANCH  25  26
BRANCH  25  28
ATOM     28  C   UNL     1       5.896   3.115  33.133  0.00  0.00    +0.175 C 
BRANCH  28  29
ATOM     29  C   UNL     1       6.148   3.895  34.432  0.00  0.00    +0.176 C 
ATOM     30  O   UNL     1       6.029   5.313  34.132  0.00  0.00    -0.332 OA
ATOM     31  C   UNL     1       6.135   6.215  35.283  0.00  0.00    +0.277 C 
ATOM     32  C   UNL     1       7.450   5.952  36.058  0.00  0.00    +0.110 C 
ATOM     33  C   UNL     1       7.636   4.452  36.371  0.00  0.00    +0.143 C 
ATOM     34  C   UNL     1       7.503   3.606  35.104  0.00  0.00    +0.133 C 
BRANCH  34  35
ATOM     35  N   UNL     1       7.595   2.174  35.429  0.00  0.00    -0.308 N 
ATOM     36  H   UNL     1       6.816   1.748  35.910  0.00  0.00    +0.149 HD
ATOM     37  C   UNL     1       8.642   1.400  35.129  0.00  0.00    +0.210 C 
ATOM     38  C   UNL     1       9.825   2.085  34.419  0.00  0.00    +0.109 C 
ATOM     39  O   UNL     1       8.686   0.200  35.401  0.00  0.00    -0.276 OA
ENDBRANCH  34  35
BRANCH  31  40
ATOM     40  C   UNL     1       4.933   6.034  36.232  0.00  0.00    +0.414 C 
ATOM     41  O   UNL     1       3.850   5.645  35.795  0.00  0.00    -0.240 OA
ATOM     42  O   UNL     1       5.044   6.277  37.435  0.00  0.00    -0.240 OA
ENDBRANCH  31  40
BRANCH  33  43
ATOM     43  O   UNL     1       8.924   4.237  36.948  0.00  0.00    -0.390 OA
ATOM     44  H   UNL     1       8.941   3.382  37.385  0.00  0.00    +0.210 HD
ENDBRANCH  33  43
BRANCH  31  45
ATOM     45  O   UNL     1       6.163   7.577  34.785  0.00  0.00    -0.343 OA
ATOM     46  C   UNL     1       7.486   8.096  34.495  0.00  0.00    +0.198 C 
ENDBRANCH  31  45
ENDBRANCH  28  29
BRANCH  28  47
ATOM     47  O   UNL     1       6.976   3.336  32.204  0.00  0.00    -0.387 OA
ATOM     48  H   UNL     1       7.802   3.047  32.598  0.00  0.00    +0.210 HD
ENDBRANCH  28  47
ENDBRANCH  25  28
ENDBRANCH   1  25
TORSDOF 15
