REMARK VINA RESULT:    -5.476      7.947     12.299
REMARK INTER + INTRA:         -12.531
REMARK INTER:                 -10.443
REMARK INTRA:                  -2.089
REMARK UNBOUND:                -2.094
REMARK  Name = lig_assembled_19.pdb
REMARK  20 active torsions:
REMARK  status: ('A' for Active; 'I' for Inactive)
REMARK    1  A    between atoms: _2  and  _9
REMARK    2  A    between atoms: _4  and  _18
REMARK    3  A    between atoms: _5  and  _11
REMARK    4  A    between atoms: _6  and  _7
REMARK    5  A    between atoms: _6  and  _18
REMARK    6  A    between atoms: _9  and  _10
REMARK    7  A    between atoms: _10  and  _13
REMARK    8  A    between atoms: _11  and  _13
REMARK    9  A    between atoms: _14  and  _34
REMARK   10  A    between atoms: _16  and  _22
REMARK   11  A    between atoms: _17  and  _21
REMARK   12  A    between atoms: _21  and  _22
REMARK   13  A    between atoms: _24  and  _25
REMARK   14  A    between atoms: _26  and  _27
REMARK   15  A    between atoms: _28  and  _30
REMARK   16  A    between atoms: _30  and  _31
REMARK   17  A    between atoms: _30  and  _32
REMARK   18  A    between atoms: _32  and  _33
REMARK   19  A    between atoms: _32  and  _34
REMARK   20  A    between atoms: _35  and  _37
REMARK                            x       y       z     vdW  Elec       q    Type
REMARK                         _______ _______ _______ _____ _____    ______ ____
ROOT
ATOM      1  C   UNL     1       8.876   4.966  38.277  0.00  0.00    +0.163 C 
ENDROOT
BRANCH   1   2
ATOM      2  O   UNL     1       8.401   6.260  37.872  0.00  0.00    -0.388 OA
ATOM      3  H   UNL     1       7.498   6.185  37.553  0.00  0.00    +0.210 HD
ENDBRANCH   1   2
BRANCH   1   4
ATOM      4  C   UNL     1       8.564   3.905  37.208  0.00  0.00    +0.175 C 
BRANCH   4   5
ATOM      5  C   UNL     1       8.040   4.532  35.907  0.00  0.00    +0.176 C 
ATOM      6  O   UNL     1       6.671   4.963  36.139  0.00  0.00    -0.332 OA
ATOM      7  C   UNL     1       6.038   5.686  35.031  0.00  0.00    +0.277 C 
ATOM      8  C   UNL     1       6.111   4.851  33.729  0.00  0.00    +0.110 C 
ATOM      9  C   UNL     1       7.543   4.343  33.457  0.00  0.00    +0.143 C 
ATOM     10  C   UNL     1       8.105   3.610  34.676  0.00  0.00    +0.133 C 
BRANCH  10  11
ATOM     11  N   UNL     1       9.500   3.207  34.436  0.00  0.00    -0.308 N 
ATOM     12  H   UNL     1      10.153   3.920  34.141  0.00  0.00    +0.149 HD
ATOM     13  C   UNL     1       9.960   1.962  34.583  0.00  0.00    +0.210 C 
ATOM     14  C   UNL     1       8.935   0.894  35.008  0.00  0.00    +0.109 C 
ATOM     15  O   UNL     1      11.137   1.656  34.390  0.00  0.00    -0.276 OA
ENDBRANCH  10  11
BRANCH   7  16
ATOM     16  C   UNL     1       6.721   7.051  34.807  0.00  0.00    +0.414 C 
ATOM     17  O   UNL     1       6.969   7.785  35.764  0.00  0.00    -0.240 OA
ATOM     18  O   UNL     1       7.024   7.419  33.672  0.00  0.00    -0.240 OA
ENDBRANCH   7  16
BRANCH   9  19
ATOM     19  O   UNL     1       7.536   3.458  32.337  0.00  0.00    -0.390 OA
ATOM     20  H   UNL     1       8.393   3.033  32.259  0.00  0.00    +0.210 HD
ENDBRANCH   9  19
BRANCH   7  21
ATOM     21  O   UNL     1       4.641   5.888  35.367  0.00  0.00    -0.343 OA
ATOM     22  C   UNL     1       4.306   5.656  36.758  0.00  0.00    +0.198 C 
ENDBRANCH   7  21
ENDBRANCH   4   5
BRANCH   4  23
ATOM     23  O   UNL     1       7.612   2.951  37.718  0.00  0.00    -0.387 OA
ATOM     24  H   UNL     1       8.076   2.172  38.032  0.00  0.00    +0.210 HD
ENDBRANCH   4  23
ENDBRANCH   1   4
BRANCH   1  25
ATOM     25  C   UNL     1      10.381   5.016  38.521  0.00  0.00    +0.141 C 
BRANCH  25  28
ATOM     26  C   UNL     1      12.469   4.415  37.345  0.00  0.00    +0.401 C 
ATOM     27  O   UNL     1      13.201   4.732  38.285  0.00  0.00    -0.226 OA
ATOM     28  N   UNL     1      11.140   4.520  37.366  0.00  0.00    -0.279 N 
ATOM     29  H   UNL     1      10.625   4.243  36.542  0.00  0.00    +0.152 HD
BRANCH  26  30
ATOM     30  O   UNL     1      13.059   3.904  36.147  0.00  0.00    -0.444 OA
BRANCH  30  31
ATOM     31  C   UNL     1      14.477   4.081  36.199  0.00  0.00    +0.292 C 
BRANCH  31  33
ATOM     32  N   UNL     1      14.885   5.129  33.991  0.00  0.00    -0.131 NA
ATOM     33  C   UNL     1      14.885   5.221  35.359  0.00  0.00    +0.120 A 
ATOM     34  C   UNL     1      15.306   6.480  35.724  0.00  0.00    +0.137 A 
ATOM     35  N   UNL     1      15.556   7.097  34.536  0.00  0.00    -0.248 N 
ATOM     36  N   UNL     1      15.298   6.288  33.496  0.00  0.00    -0.065 NA
BRANCH  35  37
ATOM     37  C   UNL     1      16.025   8.449  34.319  0.00  0.00    +0.186 C 
BRANCH  37  38
ATOM     38  C   UNL     1      16.304   8.722  32.845  0.00  0.00    +0.255 C 
BRANCH  38  39
ATOM     39  O   UNL     1      15.986  10.078  32.472  0.00  0.00    -0.463 OA
BRANCH  39  40
ATOM     40  C   UNL     1      17.022  10.957  32.484  0.00  0.00    +0.304 C 
ATOM     41  O   UNL     1      17.106  11.927  33.226  0.00  0.00    -0.251 OA
ATOM     42  C   UNL     1      18.069  10.565  31.488  0.00  0.00    +0.136 C 
ENDBRANCH  39  40
ENDBRANCH  38  39
ENDBRANCH  37  38
ENDBRANCH  35  37
ENDBRANCH  31  33
ENDBRANCH  30  31
ENDBRANCH  26  30
ENDBRANCH  25  28
ENDBRANCH   1  25
TORSDOF 17
