REMARK VINA RESULT:    -5.176     19.979     24.049
REMARK INTER + INTRA:         -12.221
REMARK INTER:                  -9.667
REMARK INTRA:                  -2.554
REMARK UNBOUND:                -2.810
REMARK  Name = lig_assembled_53.pdb
REMARK  18 active torsions:
REMARK  status: ('A' for Active; 'I' for Inactive)
REMARK    1  A    between atoms: _2  and  _9
REMARK    2  A    between atoms: _4  and  _16
REMARK    3  A    between atoms: _5  and  _9
REMARK    4  A    between atoms: _5  and  _10
REMARK    5  A    between atoms: _6  and  _7
REMARK    6  A    between atoms: _6  and  _16
REMARK    7  A    between atoms: _12  and  _32
REMARK    8  A    between atoms: _14  and  _20
REMARK    9  A    between atoms: _15  and  _19
REMARK   10  A    between atoms: _19  and  _20
REMARK   11  A    between atoms: _22  and  _23
REMARK   12  A    between atoms: _24  and  _25
REMARK   13  A    between atoms: _26  and  _28
REMARK   14  A    between atoms: _28  and  _29
REMARK   15  A    between atoms: _28  and  _30
REMARK   16  A    between atoms: _30  and  _31
REMARK   17  A    between atoms: _30  and  _32
REMARK   18  A    between atoms: _33  and  _35
REMARK                            x       y       z     vdW  Elec       q    Type
REMARK                         _______ _______ _______ _____ _____    ______ ____
ROOT
ATOM      1  C   UNL     1      11.377  27.069  24.611  0.00  0.00    +0.175 C 
ENDROOT
BRANCH   1   2
ATOM      2  C   UNL     1      10.449  25.847  24.544  0.00  0.00    +0.176 C 
ATOM      3  O   UNL     1       9.169  26.226  25.119  0.00  0.00    -0.332 OA
ATOM      4  C   UNL     1       8.115  25.209  25.045  0.00  0.00    +0.277 C 
ATOM      5  C   UNL     1       8.599  23.881  25.676  0.00  0.00    +0.110 C 
ATOM      6  C   UNL     1       9.973  23.454  25.119  0.00  0.00    +0.143 C 
ATOM      7  C   UNL     1      10.992  24.587  25.243  0.00  0.00    +0.133 C 
BRANCH   7   8
ATOM      8  N   UNL     1      12.272  24.198  24.630  0.00  0.00    -0.308 N 
ATOM      9  H   UNL     1      12.306  24.110  23.624  0.00  0.00    +0.149 HD
ATOM     10  C   UNL     1      13.392  23.954  25.316  0.00  0.00    +0.210 C 
ATOM     11  C   UNL     1      13.301  24.072  26.849  0.00  0.00    +0.109 C 
ATOM     12  O   UNL     1      14.454  23.645  24.775  0.00  0.00    -0.276 OA
ENDBRANCH   7   8
BRANCH   4  13
ATOM     13  C   UNL     1       7.695  24.962  23.581  0.00  0.00    +0.414 C 
ATOM     14  O   UNL     1       7.116  23.923  23.270  0.00  0.00    -0.240 OA
ATOM     15  O   UNL     1       7.936  25.802  22.713  0.00  0.00    -0.240 OA
ENDBRANCH   4  13
BRANCH   4  16
ATOM     16  O   UNL     1       6.975  25.688  25.806  0.00  0.00    -0.343 OA
ATOM     17  C   UNL     1       7.259  26.026  27.187  0.00  0.00    +0.198 C 
ENDBRANCH   4  16
BRANCH   6  18
ATOM     18  O   UNL     1      10.449  22.312  25.833  0.00  0.00    -0.390 OA
ATOM     19  H   UNL     1      10.520  21.566  25.234  0.00  0.00    +0.210 HD
ENDBRANCH   6  18
ENDBRANCH   1   2
BRANCH   1  20
ATOM     20  O   UNL     1      11.154  27.796  25.836  0.00  0.00    -0.387 OA
ATOM     21  H   UNL     1      10.629  27.260  26.435  0.00  0.00    +0.210 HD
ENDBRANCH   1  20
BRANCH   1  22
ATOM     22  C   UNL     1      11.194  28.002  23.401  0.00  0.00    +0.163 C 
BRANCH  22  23
ATOM     23  O   UNL     1       9.934  27.762  22.753  0.00  0.00    -0.388 OA
ATOM     24  H   UNL     1       9.757  28.467  22.126  0.00  0.00    +0.210 HD
ENDBRANCH  22  23
BRANCH  22  25
ATOM     25  C   UNL     1      12.337  27.786  22.415  0.00  0.00    +0.141 C 
BRANCH  25  28
ATOM     26  C   UNL     1      12.055  25.710  21.105  0.00  0.00    +0.401 C 
ATOM     27  O   UNL     1      12.580  24.990  21.957  0.00  0.00    -0.226 OA
ATOM     28  N   UNL     1      11.905  27.029  21.233  0.00  0.00    -0.279 N 
ATOM     29  H   UNL     1      11.470  27.536  20.475  0.00  0.00    +0.152 HD
BRANCH  26  30
ATOM     30  O   UNL     1      11.573  25.118  19.896  0.00  0.00    -0.444 OA
BRANCH  30  31
ATOM     31  C   UNL     1      12.627  25.078  18.930  0.00  0.00    +0.292 C 
BRANCH  31  33
ATOM     32  N   UNL     1      13.215  22.705  19.330  0.00  0.00    -0.131 NA
ATOM     33  C   UNL     1      13.596  24.018  19.266  0.00  0.00    +0.120 A 
ATOM     34  C   UNL     1      14.939  24.112  19.556  0.00  0.00    +0.137 A 
ATOM     35  N   UNL     1      15.305  22.833  19.851  0.00  0.00    -0.241 N 
ATOM     36  N   UNL     1      14.274  21.984  19.668  0.00  0.00    -0.065 NA
BRANCH  35  37
ATOM     37  C   UNL     1      16.608  22.279  20.156  0.00  0.00    +0.265 C 
BRANCH  37  38
ATOM     38  C   UNL     1      16.641  21.304  21.302  0.00  0.00    +0.326 C 
ATOM     39  O   UNL     1      17.120  21.494  22.410  0.00  0.00    -0.249 OA
BRANCH  38  40
ATOM     40  O   UNL     1      16.071  20.110  20.987  0.00  0.00    -0.479 OA
ATOM     41  H   UNL     1      16.666  19.445  20.592  0.00  0.00    +0.295 HD
ENDBRANCH  38  40
ENDBRANCH  37  38
ENDBRANCH  35  37
ENDBRANCH  31  33
ENDBRANCH  30  31
ENDBRANCH  26  30
ENDBRANCH  25  28
ENDBRANCH  22  25
ENDBRANCH   1  22
TORSDOF 16
