REMARK VINA RESULT:    -6.794      5.691      9.734
REMARK INTER + INTRA:         -14.196
REMARK INTER:                 -11.852
REMARK INTRA:                  -2.344
REMARK UNBOUND:                -1.444
REMARK  Name = lig_assembled_16.pdb
REMARK  19 active torsions:
REMARK  status: ('A' for Active; 'I' for Inactive)
REMARK    1  A    between atoms: _2  and  _9
REMARK    2  A    between atoms: _4  and  _22
REMARK    3  A    between atoms: _6  and  _7
REMARK    4  A    between atoms: _6  and  _22
REMARK    5  A    between atoms: _9  and  _10
REMARK    6  A    between atoms: _13  and  _14
REMARK    7  A    between atoms: _14  and  _16
REMARK    8  A    between atoms: _18  and  _38
REMARK    9  A    between atoms: _20  and  _26
REMARK   10  A    between atoms: _21  and  _25
REMARK   11  A    between atoms: _25  and  _26
REMARK   12  A    between atoms: _28  and  _29
REMARK   13  A    between atoms: _30  and  _31
REMARK   14  A    between atoms: _32  and  _34
REMARK   15  A    between atoms: _34  and  _35
REMARK   16  A    between atoms: _34  and  _36
REMARK   17  A    between atoms: _36  and  _37
REMARK   18  A    between atoms: _36  and  _38
REMARK   19  A    between atoms: _39  and  _41
REMARK                            x       y       z     vdW  Elec       q    Type
REMARK                         _______ _______ _______ _____ _____    ______ ____
ROOT
ATOM      1  C   UNL     1       7.914   2.404  34.267  0.00  0.00    +0.163 C 
ENDROOT
BRANCH   1   2
ATOM      2  O   UNL     1       8.667   2.666  35.463  0.00  0.00    -0.388 OA
ATOM      3  H   UNL     1       8.496   3.563  35.760  0.00  0.00    +0.210 HD
ENDBRANCH   1   2
BRANCH   1   4
ATOM      4  C   UNL     1       7.850   3.655  33.373  0.00  0.00    +0.175 C 
BRANCH   4   5
ATOM      5  C   UNL     1       6.992   4.767  33.995  0.00  0.00    +0.176 C 
ATOM      6  O   UNL     1       7.750   5.359  35.086  0.00  0.00    -0.332 OA
ATOM      7  C   UNL     1       7.127   6.516  35.735  0.00  0.00    +0.277 C 
ATOM      8  C   UNL     1       5.700   6.162  36.221  0.00  0.00    +0.110 C 
ATOM      9  C   UNL     1       4.866   5.500  35.103  0.00  0.00    +0.143 C 
ATOM     10  C   UNL     1       5.609   4.310  34.496  0.00  0.00    +0.133 C 
BRANCH  10  11
ATOM     11  N   UNL     1       4.844   3.741  33.375  0.00  0.00    -0.308 N 
ATOM     12  H   UNL     1       4.779   4.284  32.525  0.00  0.00    +0.149 HD
ATOM     13  C   UNL     1       4.229   2.556  33.408  0.00  0.00    +0.210 C 
ATOM     14  C   UNL     1       4.324   1.766  34.727  0.00  0.00    +0.109 C 
ATOM     15  O   UNL     1       3.607   2.099  32.449  0.00  0.00    -0.276 OA
ENDBRANCH  10  11
BRANCH   7  16
ATOM     16  C   UNL     1       7.059   7.715  34.766  0.00  0.00    +0.414 C 
ATOM     17  O   UNL     1       5.970   8.155  34.400  0.00  0.00    -0.240 OA
ATOM     18  O   UNL     1       8.092   8.243  34.352  0.00  0.00    -0.240 OA
ENDBRANCH   7  16
BRANCH   7  19
ATOM     19  O   UNL     1       7.930   6.868  36.891  0.00  0.00    -0.343 OA
ATOM     20  C   UNL     1       9.099   6.037  37.100  0.00  0.00    +0.198 C 
ENDBRANCH   7  19
BRANCH   9  21
ATOM     21  O   UNL     1       3.618   5.054  35.634  0.00  0.00    -0.390 OA
ATOM     22  H   UNL     1       3.031   4.813  34.913  0.00  0.00    +0.210 HD
ENDBRANCH   9  21
ENDBRANCH   4   5
BRANCH   4  23
ATOM     23  O   UNL     1       7.343   3.307  32.069  0.00  0.00    -0.387 OA
ATOM     24  H   UNL     1       7.730   2.475  31.786  0.00  0.00    +0.210 HD
ENDBRANCH   4  23
ENDBRANCH   1   4
BRANCH   1  25
ATOM     25  C   UNL     1       8.549   1.255  33.491  0.00  0.00    +0.141 C 
BRANCH  25  28
ATOM     26  C   UNL     1       6.888  -0.572  33.589  0.00  0.00    +0.401 C 
ATOM     27  O   UNL     1       7.074  -0.803  34.786  0.00  0.00    -0.226 OA
ATOM     28  N   UNL     1       7.538   0.368  32.902  0.00  0.00    -0.279 N 
ATOM     29  H   UNL     1       7.323   0.476  31.921  0.00  0.00    +0.152 HD
BRANCH  26  30
ATOM     30  O   UNL     1       5.924  -1.349  32.873  0.00  0.00    -0.444 OA
BRANCH  30  31
ATOM     31  C   UNL     1       6.512  -2.589  32.474  0.00  0.00    +0.292 C 
BRANCH  31  33
ATOM     32  N   UNL     1       6.664  -1.417  30.296  0.00  0.00    -0.131 NA
ATOM     33  C   UNL     1       6.876  -2.546  31.046  0.00  0.00    +0.120 A 
ATOM     34  C   UNL     1       7.466  -3.507  30.256  0.00  0.00    +0.137 A 
ATOM     35  N   UNL     1       7.672  -2.869  29.069  0.00  0.00    -0.247 N 
ATOM     36  N   UNL     1       7.142  -1.633  29.078  0.00  0.00    -0.065 NA
BRANCH  35  37
ATOM     37  C   UNL     1       8.379  -3.362  27.905  0.00  0.00    +0.180 C 
BRANCH  37  38
ATOM     38  C   UNL     1       7.500  -3.335  26.675  0.00  0.00    -0.026 A 
ATOM     39  C   UNL     1       6.396  -4.194  26.566  0.00  0.00    +0.006 A 
ATOM     40  C   UNL     1       5.565  -4.139  25.444  0.00  0.00    +0.015 A 
ATOM     41  C   UNL     1       5.830  -3.236  24.411  0.00  0.00    +0.059 A 
ATOM     42  C   UNL     1       6.943  -2.388  24.499  0.00  0.00    +0.015 A 
ATOM     43  C   UNL     1       7.777  -2.450  25.620  0.00  0.00    +0.006 A 
BRANCH  41  44
ATOM     44  C   UNL     1       4.872  -3.169  23.276  0.00  0.00    +0.337 C 
ATOM     45  O   UNL     1       3.797  -2.597  23.357  0.00  0.00    -0.245 OA
BRANCH  44  46
ATOM     46  O   UNL     1       5.279  -3.820  22.170  0.00  0.00    -0.477 OA
ATOM     47  H   UNL     1       5.867  -3.313  21.582  0.00  0.00    +0.295 HD
ENDBRANCH  44  46
ENDBRANCH  41  44
ENDBRANCH  37  38
ENDBRANCH  35  37
ENDBRANCH  31  33
ENDBRANCH  30  31
ENDBRANCH  26  30
ENDBRANCH  25  28
ENDBRANCH   1  25
TORSDOF 17
