REMARK VINA RESULT:    -6.463     13.679     20.531
REMARK INTER + INTRA:         -13.099
REMARK INTER:                 -11.172
REMARK INTRA:                  -1.927
REMARK UNBOUND:                -1.914
REMARK  Name = lig_assembled_56.pdb
REMARK  16 active torsions:
REMARK  status: ('A' for Active; 'I' for Inactive)
REMARK    1  A    between atoms: _2  and  _10
REMARK    2  A    between atoms: _5  and  _18
REMARK    3  A    between atoms: _7  and  _8
REMARK    4  A    between atoms: _7  and  _18
REMARK    5  A    between atoms: _14  and  _34
REMARK    6  A    between atoms: _16  and  _22
REMARK    7  A    between atoms: _17  and  _21
REMARK    8  A    between atoms: _21  and  _22
REMARK    9  A    between atoms: _24  and  _25
REMARK   10  A    between atoms: _26  and  _27
REMARK   11  A    between atoms: _28  and  _30
REMARK   12  A    between atoms: _30  and  _31
REMARK   13  A    between atoms: _30  and  _32
REMARK   14  A    between atoms: _32  and  _33
REMARK   15  A    between atoms: _32  and  _34
REMARK   16  A    between atoms: _35  and  _37
REMARK                            x       y       z     vdW  Elec       q    Type
REMARK                         _______ _______ _______ _____ _____    ______ ____
ROOT
ATOM      1  C   UNL     1       7.057   3.908  33.552  0.00  0.00    +0.163 C 
ENDROOT
BRANCH   1   2
ATOM      2  O   UNL     1       7.700   5.035  32.934  0.00  0.00    -0.388 OA
ATOM      3  H   UNL     1       8.243   5.490  33.582  0.00  0.00    +0.210 HD
ENDBRANCH   1   2
BRANCH   1   4
ATOM      4  C   UNL     1       6.644   2.896  32.488  0.00  0.00    +0.141 C 
BRANCH   4   7
ATOM      5  C   UNL     1       4.391   2.301  31.666  0.00  0.00    +0.401 C 
ATOM      6  O   UNL     1       4.526   1.096  31.887  0.00  0.00    -0.226 OA
ATOM      7  N   UNL     1       5.332   3.214  31.911  0.00  0.00    -0.279 N 
ATOM      8  H   UNL     1       5.132   4.178  31.686  0.00  0.00    +0.152 HD
BRANCH   5   9
ATOM      9  O   UNL     1       3.161   2.772  31.109  0.00  0.00    -0.444 OA
BRANCH   9  10
ATOM     10  C   UNL     1       2.454   1.678  30.520  0.00  0.00    +0.292 C 
BRANCH  10  12
ATOM     11  N   UNL     1       2.146   0.987  28.164  0.00  0.00    -0.131 NA
ATOM     12  C   UNL     1       2.139   1.971  29.109  0.00  0.00    +0.121 A 
ATOM     13  C   UNL     1       1.803   3.165  28.511  0.00  0.00    +0.143 A 
ATOM     14  N   UNL     1       1.594   2.852  27.187  0.00  0.00    -0.220 N 
ATOM     15  N   UNL     1       1.818   1.529  27.000  0.00  0.00    -0.060 NA
BRANCH  14  16
ATOM     16  C   UNL     1       1.198   3.702  26.126  0.00  0.00    +0.070 A 
ATOM     17  C   UNL     1       2.072   4.001  25.078  0.00  0.00    +0.047 A 
ATOM     18  C   UNL     1       1.625   4.853  24.080  0.00  0.00    +0.113 A 
ATOM     19  N   UNL     1       0.395   5.409  24.061  0.00  0.00    -0.263 NA
ATOM     20  C   UNL     1      -0.431   5.102  25.084  0.00  0.00    +0.113 A 
ATOM     21  C   UNL     1      -0.083   4.262  26.128  0.00  0.00    +0.047 A 
ENDBRANCH  14  16
ENDBRANCH  10  12
ENDBRANCH   9  10
ENDBRANCH   5   9
ENDBRANCH   4   7
ENDBRANCH   1   4
BRANCH   1  22
ATOM     22  C   UNL     1       5.819   4.351  34.349  0.00  0.00    +0.175 C 
BRANCH  22  23
ATOM     23  C   UNL     1       6.156   5.427  35.392  0.00  0.00    +0.176 C 
ATOM     24  O   UNL     1       7.553   5.266  35.764  0.00  0.00    -0.332 OA
ATOM     25  C   UNL     1       8.086   6.279  36.679  0.00  0.00    +0.277 C 
ATOM     26  C   UNL     1       7.211   6.371  37.954  0.00  0.00    +0.110 C 
ATOM     27  C   UNL     1       5.714   6.512  37.608  0.00  0.00    +0.143 C 
ATOM     28  C   UNL     1       5.266   5.409  36.648  0.00  0.00    +0.133 C 
BRANCH  28  29
ATOM     29  N   UNL     1       3.861   5.604  36.258  0.00  0.00    -0.308 N 
ATOM     30  H   UNL     1       3.647   6.366  35.630  0.00  0.00    +0.149 HD
ATOM     31  C   UNL     1       2.850   4.839  36.679  0.00  0.00    +0.210 C 
ATOM     32  C   UNL     1       3.205   3.702  37.656  0.00  0.00    +0.109 C 
ATOM     33  O   UNL     1       1.684   5.017  36.324  0.00  0.00    -0.276 OA
ENDBRANCH  28  29
BRANCH  25  34
ATOM     34  C   UNL     1       8.143   7.660  35.993  0.00  0.00    +0.414 C 
ATOM     35  O   UNL     1       8.143   7.742  34.765  0.00  0.00    -0.240 OA
ATOM     36  O   UNL     1       8.190   8.690  36.666  0.00  0.00    -0.240 OA
ENDBRANCH  25  34
BRANCH  27  37
ATOM     37  O   UNL     1       4.934   6.441  38.803  0.00  0.00    -0.390 OA
ATOM     38  H   UNL     1       4.738   5.523  39.003  0.00  0.00    +0.210 HD
ENDBRANCH  27  37
BRANCH  25  39
ATOM     39  O   UNL     1       9.422   5.873  37.071  0.00  0.00    -0.343 OA
ATOM     40  C   UNL     1       9.662   4.443  37.035  0.00  0.00    +0.198 C 
ENDBRANCH  25  39
ENDBRANCH  22  23
BRANCH  22  41
ATOM     41  O   UNL     1       5.208   3.213  34.990  0.00  0.00    -0.387 OA
ATOM     42  H   UNL     1       5.156   2.484  34.367  0.00  0.00    +0.210 HD
ENDBRANCH  22  41
ENDBRANCH   1  22
TORSDOF 14
