REMARK VINA RESULT:    -5.996     15.261     19.493
REMARK INTER + INTRA:         -14.219
REMARK INTER:                 -10.916
REMARK INTRA:                  -3.303
REMARK UNBOUND:                -2.615
REMARK  Name = lig_assembled_83.pdb
REMARK  20 active torsions:
REMARK  status: ('A' for Active; 'I' for Inactive)
REMARK    1  A    between atoms: _2  and  _12
REMARK    2  A    between atoms: _3  and  _14
REMARK    3  A    between atoms: _7  and  _24
REMARK    4  A    between atoms: _9  and  _10
REMARK    5  A    between atoms: _9  and  _24
REMARK    6  A    between atoms: _12  and  _13
REMARK    7  A    between atoms: _13  and  _14
REMARK    8  A    between atoms: _13  and  _18
REMARK    9  A    between atoms: _20  and  _40
REMARK   10  A    between atoms: _22  and  _28
REMARK   11  A    between atoms: _23  and  _27
REMARK   12  A    between atoms: _27  and  _28
REMARK   13  A    between atoms: _30  and  _31
REMARK   14  A    between atoms: _32  and  _33
REMARK   15  A    between atoms: _34  and  _36
REMARK   16  A    between atoms: _36  and  _37
REMARK   17  A    between atoms: _36  and  _38
REMARK   18  A    between atoms: _38  and  _39
REMARK   19  A    between atoms: _38  and  _40
REMARK   20  A    between atoms: _41  and  _43
REMARK                            x       y       z     vdW  Elec       q    Type
REMARK                         _______ _______ _______ _____ _____    ______ ____
ROOT
ATOM      1  C   UNL     1       8.249   7.727  42.068  0.00  0.00    +0.141 C 
ENDROOT
BRANCH   1   4
ATOM      2  C   UNL     1       7.374   9.873  42.925  0.00  0.00    +0.401 C 
ATOM      3  O   UNL     1       8.368  10.520  42.589  0.00  0.00    -0.226 OA
ATOM      4  N   UNL     1       7.236   8.561  42.726  0.00  0.00    -0.279 N 
ATOM      5  H   UNL     1       6.387   8.117  43.046  0.00  0.00    +0.152 HD
BRANCH   2   6
ATOM      6  O   UNL     1       6.292  10.547  43.573  0.00  0.00    -0.444 OA
BRANCH   6   7
ATOM      7  C   UNL     1       6.125  11.845  42.997  0.00  0.00    +0.292 C 
BRANCH   7   9
ATOM      8  N   UNL     1       5.277  11.295  40.729  0.00  0.00    -0.131 NA
ATOM      9  C   UNL     1       5.062  11.825  41.975  0.00  0.00    +0.120 A 
ATOM     10  C   UNL     1       3.767  12.285  42.048  0.00  0.00    +0.137 A 
ATOM     11  N   UNL     1       3.246  11.990  40.825  0.00  0.00    -0.249 N 
ATOM     12  N   UNL     1       4.155  11.407  40.028  0.00  0.00    -0.065 NA
BRANCH  11  13
ATOM     13  C   UNL     1       1.911  12.271  40.340  0.00  0.00    +0.178 C 
BRANCH  13  14
ATOM     14  C   UNL     1       1.906  13.399  39.305  0.00  0.00    +0.156 C 
BRANCH  14  15
ATOM     15  O   UNL     1       2.626  12.992  38.136  0.00  0.00    -0.388 OA
ATOM     16  H   UNL     1       3.550  12.775  38.376  0.00  0.00    +0.210 HD
ENDBRANCH  14  15
BRANCH  14  17
ATOM     17  C   UNL     1       0.464  13.784  38.935  0.00  0.00    +0.162 C 
BRANCH  17  18
ATOM     18  N   UNL     1       0.349  15.168  38.505  0.00  0.00    -0.269 N 
ATOM     19  C   UNL     1       1.038  16.204  39.093  0.00  0.00    +0.113 A 
ATOM     20  C   UNL     1       0.684  17.331  38.388  0.00  0.00    +0.137 A 
ATOM     21  N   UNL     1      -0.221  17.026  37.408  0.00  0.00    -0.172 NA
ATOM     22  C   UNL     1      -0.401  15.721  37.495  0.00  0.00    +0.450 A 
ATOM     23  N   UNL     1      -1.287  14.999  36.609  0.00  0.00    +0.120 N 
ATOM     24  O   UNL     1      -1.388  13.772  36.769  0.00  0.00    +0.045 OA
ATOM     25  O   UNL     1      -1.899  15.654  35.756  0.00  0.00    -0.573 OA
ENDBRANCH  17  18
ENDBRANCH  14  17
ENDBRANCH  13  14
ENDBRANCH  11  13
ENDBRANCH   7   9
ENDBRANCH   6   7
ENDBRANCH   2   6
ENDBRANCH   1   4
BRANCH   1  26
ATOM     26  C   UNL     1       8.063   7.694  40.555  0.00  0.00    +0.163 C 
BRANCH  26  27
ATOM     27  O   UNL     1       8.983   6.760  39.967  0.00  0.00    -0.388 OA
ATOM     28  H   UNL     1       8.623   6.433  39.139  0.00  0.00    +0.210 HD
ENDBRANCH  26  27
BRANCH  26  29
ATOM     29  C   UNL     1       6.609   7.315  40.224  0.00  0.00    +0.175 C 
BRANCH  29  30
ATOM     30  C   UNL     1       6.482   6.667  38.838  0.00  0.00    +0.176 C 
ATOM     31  O   UNL     1       7.244   7.471  37.896  0.00  0.00    -0.332 OA
ATOM     32  C   UNL     1       7.325   6.943  36.531  0.00  0.00    +0.277 C 
ATOM     33  C   UNL     1       5.906   6.681  35.967  0.00  0.00    +0.110 C 
ATOM     34  C   UNL     1       5.047   5.855  36.948  0.00  0.00    +0.143 C 
ATOM     35  C   UNL     1       5.035   6.493  38.338  0.00  0.00    +0.133 C 
BRANCH  35  36
ATOM     36  N   UNL     1       4.286   5.652  39.285  0.00  0.00    -0.308 N 
ATOM     37  H   UNL     1       4.630   4.719  39.461  0.00  0.00    +0.149 HD
ATOM     38  C   UNL     1       3.181   6.042  39.926  0.00  0.00    +0.210 C 
ATOM     39  C   UNL     1       2.667   7.460  39.615  0.00  0.00    +0.109 C 
ATOM     40  O   UNL     1       2.582   5.321  40.724  0.00  0.00    -0.276 OA
ENDBRANCH  35  36
BRANCH  32  41
ATOM     41  C   UNL     1       8.142   5.635  36.498  0.00  0.00    +0.414 C 
ATOM     42  O   UNL     1       9.080   5.470  37.277  0.00  0.00    -0.240 OA
ATOM     43  O   UNL     1       7.864   4.744  35.694  0.00  0.00    -0.240 OA
ENDBRANCH  32  41
BRANCH  32  44
ATOM     44  O   UNL     1       7.969   7.942  35.700  0.00  0.00    -0.343 OA
ATOM     45  C   UNL     1       7.441   8.053  34.354  0.00  0.00    +0.198 C 
ENDBRANCH  32  44
BRANCH  34  46
ATOM     46  O   UNL     1       3.708   5.767  36.459  0.00  0.00    -0.390 OA
ATOM     47  H   UNL     1       3.523   4.864  36.192  0.00  0.00    +0.210 HD
ENDBRANCH  34  46
ENDBRANCH  29  30
BRANCH  29  48
ATOM     48  O   UNL     1       5.762   8.479  40.308  0.00  0.00    -0.387 OA
ATOM     49  H   UNL     1       6.287   9.239  40.568  0.00  0.00    +0.210 HD
ENDBRANCH  29  48
ENDBRANCH  26  29
ENDBRANCH   1  26
TORSDOF 18
