REMARK VINA RESULT:    -5.733     12.165     18.286
REMARK INTER + INTRA:         -12.414
REMARK INTER:                 -10.086
REMARK INTRA:                  -2.328
REMARK UNBOUND:                -2.491
REMARK  Name = lig_assembled_57.pdb
REMARK  17 active torsions:
REMARK  status: ('A' for Active; 'I' for Inactive)
REMARK    1  A    between atoms: _2  and  _10
REMARK    2  A    between atoms: _3  and  _13
REMARK    3  A    between atoms: _5  and  _19
REMARK    4  A    between atoms: _7  and  _8
REMARK    5  A    between atoms: _7  and  _19
REMARK    6  A    between atoms: _15  and  _35
REMARK    7  A    between atoms: _17  and  _23
REMARK    8  A    between atoms: _18  and  _22
REMARK    9  A    between atoms: _22  and  _23
REMARK   10  A    between atoms: _25  and  _26
REMARK   11  A    between atoms: _27  and  _28
REMARK   12  A    between atoms: _29  and  _31
REMARK   13  A    between atoms: _31  and  _32
REMARK   14  A    between atoms: _31  and  _33
REMARK   15  A    between atoms: _33  and  _34
REMARK   16  A    between atoms: _33  and  _35
REMARK   17  A    between atoms: _36  and  _38
REMARK                            x       y       z     vdW  Elec       q    Type
REMARK                         _______ _______ _______ _____ _____    ______ ____
ROOT
ATOM      1  C   UNL     1      -4.562   7.293  13.586  0.00  0.00    +0.163 C 
ENDROOT
BRANCH   1   2
ATOM      2  O   UNL     1      -4.712   6.872  14.952  0.00  0.00    -0.388 OA
ATOM      3  H   UNL     1      -5.368   7.422  15.387  0.00  0.00    +0.210 HD
ENDBRANCH   1   2
BRANCH   1   4
ATOM      4  C   UNL     1      -3.157   6.964  13.091  0.00  0.00    +0.141 C 
BRANCH   4   7
ATOM      5  C   UNL     1      -1.341   7.453  14.693  0.00  0.00    +0.401 C 
ATOM      6  O   UNL     1      -1.151   8.597  14.274  0.00  0.00    -0.226 OA
ATOM      7  N   UNL     1      -2.254   6.618  14.195  0.00  0.00    -0.279 N 
ATOM      8  H   UNL     1      -2.328   5.695  14.600  0.00  0.00    +0.152 HD
BRANCH   5   9
ATOM      9  O   UNL     1      -0.543   6.968  15.777  0.00  0.00    -0.444 OA
BRANCH   9  10
ATOM     10  C   UNL     1      -1.363   6.216  16.675  0.00  0.00    +0.292 C 
BRANCH  10  12
ATOM     11  N   UNL     1       0.614   4.740  16.795  0.00  0.00    -0.131 NA
ATOM     12  C   UNL     1      -0.556   5.179  17.346  0.00  0.00    +0.120 A 
ATOM     13  C   UNL     1      -0.765   4.528  18.542  0.00  0.00    +0.137 A 
ATOM     14  N   UNL     1       0.356   3.770  18.708  0.00  0.00    -0.248 N 
ATOM     15  N   UNL     1       1.145   3.849  17.616  0.00  0.00    -0.065 NA
BRANCH  14  16
ATOM     16  C   UNL     1       0.826   2.991  19.849  0.00  0.00    +0.111 C 
ATOM     17  C   UNL     1       1.764   3.829  20.730  0.00  0.00    +0.042 C 
ATOM     18  C   UNL     1       0.968   4.854  21.536  0.00  0.00    +0.086 C 
ATOM     19  N   UNL     1      -0.043   4.239  22.403  0.00  0.00    -0.305 NA
ATOM     20  C   UNL     1      -0.950   3.356  21.669  0.00  0.00    +0.086 C 
ATOM     21  C   UNL     1       0.547   3.599  23.576  0.00  0.00    +0.104 C 
ATOM     22  C   UNL     1      -0.262   2.354  20.730  0.00  0.00    +0.042 C 
ENDBRANCH  14  16
ENDBRANCH  10  12
ENDBRANCH   9  10
ENDBRANCH   5   9
ENDBRANCH   4   7
ENDBRANCH   1   4
BRANCH   1  23
ATOM     23  C   UNL     1      -4.817   8.803  13.445  0.00  0.00    +0.175 C 
BRANCH  23  24
ATOM     24  C   UNL     1      -4.616   9.550  14.772  0.00  0.00    +0.176 C 
ATOM     25  O   UNL     1      -5.863   9.480  15.518  0.00  0.00    -0.332 OA
ATOM     26  C   UNL     1      -5.827  10.053  16.867  0.00  0.00    +0.277 C 
ATOM     27  C   UNL     1      -5.326  11.517  16.820  0.00  0.00    +0.110 C 
ATOM     28  C   UNL     1      -4.019  11.646  16.010  0.00  0.00    +0.143 C 
ATOM     29  C   UNL     1      -4.166  11.015  14.625  0.00  0.00    +0.133 C 
BRANCH  29  30
ATOM     30  N   UNL     1      -2.889  11.067  13.897  0.00  0.00    -0.308 N 
ATOM     31  H   UNL     1      -2.094  10.595  14.305  0.00  0.00    +0.149 HD
ATOM     32  C   UNL     1      -2.712  11.697  12.732  0.00  0.00    +0.210 C 
ATOM     33  C   UNL     1      -3.936  12.428  12.150  0.00  0.00    +0.109 C 
ATOM     34  O   UNL     1      -1.634  11.711  12.137  0.00  0.00    -0.276 OA
ENDBRANCH  29  30
BRANCH  26  35
ATOM     35  C   UNL     1      -4.910   9.223  17.789  0.00  0.00    +0.414 C 
ATOM     36  O   UNL     1      -4.568   9.667  18.885  0.00  0.00    -0.240 OA
ATOM     37  O   UNL     1      -4.513   8.112  17.438  0.00  0.00    -0.240 OA
ENDBRANCH  26  35
BRANCH  28  38
ATOM     38  O   UNL     1      -3.676  13.025  15.865  0.00  0.00    -0.390 OA
ATOM     39  H   UNL     1      -3.802  13.477  16.703  0.00  0.00    +0.210 HD
ENDBRANCH  28  38
BRANCH  26  40
ATOM     40  O   UNL     1      -7.180  10.049  17.391  0.00  0.00    -0.343 OA
ATOM     41  C   UNL     1      -7.928   8.831  17.146  0.00  0.00    +0.198 C 
ENDBRANCH  26  40
ENDBRANCH  23  24
BRANCH  23  42
ATOM     42  O   UNL     1      -6.146   9.037  12.940  0.00  0.00    -0.387 OA
ATOM     43  H   UNL     1      -6.172   9.882  12.485  0.00  0.00    +0.210 HD
ENDBRANCH  23  42
ENDBRANCH   1  23
TORSDOF 14
