REMARK VINA RESULT:    -5.762     18.739     22.373
REMARK INTER + INTRA:         -13.624
REMARK INTER:                 -11.845
REMARK INTRA:                  -1.779
REMARK UNBOUND:                -2.640
REMARK  Name = lig_assembled_29.pdb
REMARK  21 active torsions:
REMARK  status: ('A' for Active; 'I' for Inactive)
REMARK    1  A    between atoms: _2  and  _9
REMARK    2  A    between atoms: _4  and  _23
REMARK    3  A    between atoms: _6  and  _7
REMARK    4  A    between atoms: _6  and  _23
REMARK    5  A    between atoms: _9  and  _10
REMARK    6  A    between atoms: _12  and  _18
REMARK    7  A    between atoms: _13  and  _18
REMARK    8  A    between atoms: _14  and  _17
REMARK    9  A    between atoms: _15  and  _17
REMARK   10  A    between atoms: _19  and  _39
REMARK   11  A    between atoms: _21  and  _27
REMARK   12  A    between atoms: _22  and  _26
REMARK   13  A    between atoms: _26  and  _27
REMARK   14  A    between atoms: _29  and  _30
REMARK   15  A    between atoms: _31  and  _32
REMARK   16  A    between atoms: _33  and  _35
REMARK   17  A    between atoms: _35  and  _36
REMARK   18  A    between atoms: _35  and  _37
REMARK   19  A    between atoms: _37  and  _38
REMARK   20  A    between atoms: _37  and  _39
REMARK   21  A    between atoms: _40  and  _42
REMARK                            x       y       z     vdW  Elec       q    Type
REMARK                         _______ _______ _______ _____ _____    ______ ____
ROOT
ATOM      1  C   UNL     1      17.771   1.371  26.696  0.00  0.00    +0.163 C 
ENDROOT
BRANCH   1   2
ATOM      2  O   UNL     1      17.880   0.257  27.596  0.00  0.00    -0.388 OA
ATOM      3  H   UNL     1      17.769  -0.562  27.108  0.00  0.00    +0.210 HD
ENDBRANCH   1   2
BRANCH   1   4
ATOM      4  C   UNL     1      16.906   1.010  25.476  0.00  0.00    +0.175 C 
BRANCH   4   5
ATOM      5  C   UNL     1      17.751   0.514  24.294  0.00  0.00    +0.176 C 
ATOM      6  O   UNL     1      17.481   1.378  23.156  0.00  0.00    -0.332 OA
ATOM      7  C   UNL     1      18.284   1.119  21.958  0.00  0.00    +0.277 C 
ATOM      8  C   UNL     1      18.155  -0.364  21.531  0.00  0.00    +0.110 C 
ATOM      9  C   UNL     1      18.403  -1.321  22.715  0.00  0.00    +0.143 C 
ATOM     10  C   UNL     1      17.519  -0.959  23.909  0.00  0.00    +0.133 C 
BRANCH  10  11
ATOM     11  N   UNL     1      17.826  -1.822  25.059  0.00  0.00    -0.308 N 
ATOM     12  H   UNL     1      18.744  -1.746  25.475  0.00  0.00    +0.149 HD
ATOM     13  C   UNL     1      16.971  -2.701  25.591  0.00  0.00    +0.210 C 
ATOM     14  C   UNL     1      15.590  -2.812  24.919  0.00  0.00    +0.109 C 
ATOM     15  O   UNL     1      17.251  -3.401  26.565  0.00  0.00    -0.276 OA
ENDBRANCH  10  11
BRANCH   7  16
ATOM     16  C   UNL     1      19.768   1.456  22.211  0.00  0.00    +0.414 C 
ATOM     17  O   UNL     1      20.139   1.828  23.323  0.00  0.00    -0.240 OA
ATOM     18  O   UNL     1      20.595   1.355  21.303  0.00  0.00    -0.240 OA
ENDBRANCH   7  16
BRANCH   7  19
ATOM     19  O   UNL     1      17.771   1.950  20.885  0.00  0.00    -0.343 OA
ATOM     20  C   UNL     1      16.739   2.890  21.279  0.00  0.00    +0.198 C 
ENDBRANCH   7  19
BRANCH   9  21
ATOM     21  O   UNL     1      18.127  -2.664  22.316  0.00  0.00    -0.390 OA
ATOM     22  H   UNL     1      18.838  -2.985  21.756  0.00  0.00    +0.210 HD
ENDBRANCH   9  21
ENDBRANCH   4   5
BRANCH   4  23
ATOM     23  O   UNL     1      16.112   2.145  25.077  0.00  0.00    -0.387 OA
ATOM     24  H   UNL     1      15.236   1.849  24.819  0.00  0.00    +0.210 HD
ENDBRANCH   4  23
ENDBRANCH   1   4
BRANCH   1  25
ATOM     25  C   UNL     1      17.160   2.568  27.418  0.00  0.00    +0.141 C 
BRANCH  25  28
ATOM     26  C   UNL     1      18.544   4.607  27.237  0.00  0.00    +0.401 C 
ATOM     27  O   UNL     1      19.238   4.337  28.220  0.00  0.00    -0.226 OA
ATOM     28  N   UNL     1      17.547   3.839  26.795  0.00  0.00    -0.279 N 
ATOM     29  H   UNL     1      17.029   4.150  25.985  0.00  0.00    +0.152 HD
BRANCH  26  30
ATOM     30  O   UNL     1      18.803   5.813  26.514  0.00  0.00    -0.444 OA
BRANCH  30  31
ATOM     31  C   UNL     1      19.959   6.457  27.058  0.00  0.00    +0.292 C 
BRANCH  31  33
ATOM     32  N   UNL     1      18.743   8.533  26.455  0.00  0.00    -0.131 NA
ATOM     33  C   UNL     1      19.736   7.911  27.165  0.00  0.00    +0.120 A 
ATOM     34  C   UNL     1      20.388   8.844  27.939  0.00  0.00    +0.137 A 
ATOM     35  N   UNL     1      19.684   9.994  27.725  0.00  0.00    -0.247 N 
ATOM     36  N   UNL     1      18.727   9.815  26.799  0.00  0.00    -0.065 NA
BRANCH  35  37
ATOM     37  C   UNL     1      19.833  11.272  28.397  0.00  0.00    +0.180 C 
BRANCH  37  38
ATOM     38  C   UNL     1      19.403  11.172  29.843  0.00  0.00    -0.022 A 
ATOM     39  C   UNL     1      18.271  10.416  30.193  0.00  0.00    +0.054 A 
ATOM     40  C   UNL     1      17.907  10.250  31.538  0.00  0.00    +0.162 A 
ATOM     41  C   UNL     1      18.681  10.857  32.547  0.00  0.00    +0.162 A 
ATOM     42  C   UNL     1      19.805  11.609  32.196  0.00  0.00    +0.050 A 
ATOM     43  C   UNL     1      20.162  11.767  30.855  0.00  0.00    +0.009 A 
BRANCH  40  44
ATOM     44  O   UNL     1      16.830   9.511  31.962  0.00  0.00    -0.491 OA
ATOM     45  C   UNL     1      16.996   8.105  32.080  0.00  0.00    +0.277 C 
ENDBRANCH  40  44
BRANCH  41  46
ATOM     46  O   UNL     1      18.256  10.654  33.838  0.00  0.00    -0.491 OA
ATOM     47  C   UNL     1      19.204  10.165  34.776  0.00  0.00    +0.277 C 
ENDBRANCH  41  46
ENDBRANCH  37  38
ENDBRANCH  35  37
ENDBRANCH  31  33
ENDBRANCH  30  31
ENDBRANCH  26  30
ENDBRANCH  25  28
ENDBRANCH   1  25
TORSDOF 17
