REMARK VINA RESULT:    -5.353      7.551     13.033
REMARK INTER + INTRA:         -13.649
REMARK INTER:                 -11.176
REMARK INTRA:                  -2.473
REMARK UNBOUND:                -3.914
REMARK  Name = lig_assembled_73.pdb
REMARK  18 active torsions:
REMARK  status: ('A' for Active; 'I' for Inactive)
REMARK    1  A    between atoms: _2  and  _10
REMARK    2  A    between atoms: _3  and  _14
REMARK    3  A    between atoms: _5  and  _22
REMARK    4  A    between atoms: _7  and  _8
REMARK    5  A    between atoms: _7  and  _22
REMARK    6  A    between atoms: _13  and  _16
REMARK    7  A    between atoms: _18  and  _38
REMARK    8  A    between atoms: _20  and  _26
REMARK    9  A    between atoms: _21  and  _25
REMARK   10  A    between atoms: _25  and  _26
REMARK   11  A    between atoms: _28  and  _29
REMARK   12  A    between atoms: _30  and  _31
REMARK   13  A    between atoms: _32  and  _34
REMARK   14  A    between atoms: _34  and  _35
REMARK   15  A    between atoms: _34  and  _36
REMARK   16  A    between atoms: _36  and  _37
REMARK   17  A    between atoms: _36  and  _38
REMARK   18  A    between atoms: _39  and  _41
REMARK                            x       y       z     vdW  Elec       q    Type
REMARK                         _______ _______ _______ _____ _____    ______ ____
ROOT
ATOM      1  C   UNL     1       8.514   2.645  35.589  0.00  0.00    +0.163 C 
ENDROOT
BRANCH   1   2
ATOM      2  O   UNL     1       8.848   3.340  36.801  0.00  0.00    -0.388 OA
ATOM      3  H   UNL     1       8.677   2.771  37.555  0.00  0.00    +0.210 HD
ENDBRANCH   1   2
BRANCH   1   4
ATOM      4  C   UNL     1       8.419   3.621  34.403  0.00  0.00    +0.175 C 
BRANCH   4   5
ATOM      5  C   UNL     1       7.343   4.694  34.624  0.00  0.00    +0.176 C 
ATOM      6  O   UNL     1       7.817   5.596  35.661  0.00  0.00    -0.332 OA
ATOM      7  C   UNL     1       6.960   6.754  35.934  0.00  0.00    +0.277 C 
ATOM      8  C   UNL     1       5.517   6.296  36.258  0.00  0.00    +0.110 C 
ATOM      9  C   UNL     1       4.982   5.310  35.199  0.00  0.00    +0.143 C 
ATOM     10  C   UNL     1       5.952   4.146  34.992  0.00  0.00    +0.133 C 
BRANCH  10  11
ATOM     11  N   UNL     1       5.472   3.260  33.920  0.00  0.00    -0.308 N 
ATOM     12  H   UNL     1       5.491   3.613  32.973  0.00  0.00    +0.149 HD
ATOM     13  C   UNL     1       5.014   2.021  34.115  0.00  0.00    +0.210 C 
ATOM     14  C   UNL     1       4.974   1.523  35.572  0.00  0.00    +0.109 C 
ATOM     15  O   UNL     1       4.633   1.296  33.196  0.00  0.00    -0.276 OA
ENDBRANCH  10  11
BRANCH   7  16
ATOM     16  C   UNL     1       6.937   7.714  34.726  0.00  0.00    +0.414 C 
ATOM     17  O   UNL     1       7.991   8.116  34.233  0.00  0.00    -0.240 OA
ATOM     18  O   UNL     1       5.866   8.086  34.245  0.00  0.00    -0.240 OA
ENDBRANCH   7  16
BRANCH   9  19
ATOM     19  O   UNL     1       3.714   4.798  35.614  0.00  0.00    -0.390 OA
ATOM     20  H   UNL     1       3.549   5.052  36.525  0.00  0.00    +0.210 HD
ENDBRANCH   9  19
BRANCH   7  21
ATOM     21  O   UNL     1       7.493   7.443  37.095  0.00  0.00    -0.343 OA
ATOM     22  C   UNL     1       6.886   7.073  38.358  0.00  0.00    +0.198 C 
ENDBRANCH   7  21
ENDBRANCH   4   5
BRANCH   4  23
ATOM     23  O   UNL     1       8.156   2.897  33.184  0.00  0.00    -0.387 OA
ATOM     24  H   UNL     1       7.276   3.112  32.867  0.00  0.00    +0.210 HD
ENDBRANCH   4  23
ENDBRANCH   1   4
BRANCH   1  25
ATOM     25  C   UNL     1       9.566   1.582  35.290  0.00  0.00    +0.141 C 
BRANCH  25  28
ATOM     26  C   UNL     1      11.772   2.694  35.221  0.00  0.00    +0.401 C 
ATOM     27  O   UNL     1      11.862   2.799  36.447  0.00  0.00    -0.226 OA
ATOM     28  N   UNL     1      10.731   2.145  34.595  0.00  0.00    -0.279 N 
ATOM     29  H   UNL     1      10.744   2.113  33.585  0.00  0.00    +0.152 HD
BRANCH  26  30
ATOM     30  O   UNL     1      12.834   3.189  34.402  0.00  0.00    -0.444 OA
BRANCH  30  31
ATOM     31  C   UNL     1      14.022   3.321  35.187  0.00  0.00    +0.292 C 
BRANCH  31  33
ATOM     32  N   UNL     1      14.137   5.767  35.544  0.00  0.00    -0.131 NA
ATOM     33  C   UNL     1      14.642   4.640  34.963  0.00  0.00    +0.121 A 
ATOM     34  C   UNL     1      15.739   4.979  34.207  0.00  0.00    +0.143 A 
ATOM     35  N   UNL     1      15.874   6.339  34.364  0.00  0.00    -0.220 N 
ATOM     36  N   UNL     1      14.890   6.794  35.176  0.00  0.00    -0.060 NA
BRANCH  35  37
ATOM     37  C   UNL     1      16.845   7.208  33.804  0.00  0.00    +0.074 A 
ATOM     38  C   UNL     1      18.205   7.030  34.117  0.00  0.00    +0.032 A 
ATOM     39  C   UNL     1      19.180   7.883  33.582  0.00  0.00    +0.054 A 
ATOM     40  C   UNL     1      18.808   8.922  32.733  0.00  0.00    +0.195 A 
ATOM     41  C   UNL     1      17.459   9.093  32.425  0.00  0.00    +0.316 A 
ATOM     42  C   UNL     1      16.469   8.246  32.943  0.00  0.00    +0.116 A 
BRANCH  41  43
ATOM     43  N   UNL     1      17.039  10.171  31.552  0.00  0.00    +0.083 N 
ATOM     44  O   UNL     1      17.536  10.217  30.419  0.00  0.00    +0.042 OA
ATOM     45  O   UNL     1      16.279  11.018  32.042  0.00  0.00    -0.576 OA
ENDBRANCH  41  43
BRANCH  40  46
ATOM     46  O   UNL     1      19.759   9.737  32.196  0.00  0.00    -0.501 OA
ATOM     47  H   UNL     1      19.821   9.591  31.236  0.00  0.00    +0.292 HD
ENDBRANCH  40  46
ENDBRANCH  35  37
ENDBRANCH  31  33
ENDBRANCH  30  31
ENDBRANCH  26  30
ENDBRANCH  25  28
ENDBRANCH   1  25
TORSDOF 16
