REMARK VINA RESULT:    -5.309     17.344     20.440
REMARK INTER + INTRA:         -12.624
REMARK INTER:                  -9.779
REMARK INTRA:                  -2.845
REMARK UNBOUND:                -2.970
REMARK  Name = lig_assembled_22.pdb
REMARK  20 active torsions:
REMARK  status: ('A' for Active; 'I' for Inactive)
REMARK    1  A    between atoms: _2  and  _9
REMARK    2  A    between atoms: _4  and  _18
REMARK    3  A    between atoms: _5  and  _9
REMARK    4  A    between atoms: _5  and  _12
REMARK    5  A    between atoms: _6  and  _7
REMARK    6  A    between atoms: _6  and  _18
REMARK    7  A    between atoms: _9  and  _10
REMARK    8  A    between atoms: _9  and  _11
REMARK    9  A    between atoms: _14  and  _34
REMARK   10  A    between atoms: _16  and  _22
REMARK   11  A    between atoms: _17  and  _21
REMARK   12  A    between atoms: _21  and  _22
REMARK   13  A    between atoms: _24  and  _25
REMARK   14  A    between atoms: _26  and  _27
REMARK   15  A    between atoms: _28  and  _30
REMARK   16  A    between atoms: _30  and  _31
REMARK   17  A    between atoms: _30  and  _32
REMARK   18  A    between atoms: _32  and  _33
REMARK   19  A    between atoms: _32  and  _34
REMARK   20  A    between atoms: _35  and  _37
REMARK                            x       y       z     vdW  Elec       q    Type
REMARK                         _______ _______ _______ _____ _____    ______ ____
ROOT
ATOM      1  C   UNL     1      15.407  23.513  19.248  0.00  0.00    +0.163 C 
ENDROOT
BRANCH   1   2
ATOM      2  O   UNL     1      16.133  24.208  18.221  0.00  0.00    -0.388 OA
ATOM      3  H   UNL     1      15.528  24.469  17.522  0.00  0.00    +0.210 HD
ENDBRANCH   1   2
BRANCH   1   4
ATOM      4  C   UNL     1      16.378  22.775  20.164  0.00  0.00    +0.141 C 
BRANCH   4   7
ATOM      5  C   UNL     1      16.421  21.868  22.462  0.00  0.00    +0.401 C 
ATOM      6  O   UNL     1      17.628  21.618  22.442  0.00  0.00    -0.226 OA
ATOM      7  N   UNL     1      15.753  22.403  21.439  0.00  0.00    -0.279 N 
ATOM      8  H   UNL     1      14.761  22.562  21.548  0.00  0.00    +0.152 HD
BRANCH   5   9
ATOM      9  O   UNL     1      15.669  21.570  23.642  0.00  0.00    -0.444 OA
BRANCH   9  10
ATOM     10  C   UNL     1      15.779  22.656  24.565  0.00  0.00    +0.292 C 
BRANCH  10  12
ATOM     11  N   UNL     1      14.122  24.295  23.748  0.00  0.00    -0.131 NA
ATOM     12  C   UNL     1      14.489  23.363  24.678  0.00  0.00    +0.120 A 
ATOM     13  C   UNL     1      13.494  23.257  25.625  0.00  0.00    +0.138 A 
ATOM     14  N   UNL     1      12.544  24.152  25.216  0.00  0.00    -0.235 N 
ATOM     15  N   UNL     1      12.936  24.773  24.087  0.00  0.00    -0.064 NA
BRANCH  14  16
ATOM     16  C   UNL     1      11.264  24.496  25.836  0.00  0.00    +0.155 C 
ATOM     17  C   UNL     1      11.115  26.016  26.062  0.00  0.00    +0.048 C 
ATOM     18  C   UNL     1      11.171  23.790  27.202  0.00  0.00    +0.048 C 
BRANCH  16  19
ATOM     19  C   UNL     1      10.103  24.047  24.945  0.00  0.00    +0.332 C 
ATOM     20  O   UNL     1       9.432  23.040  25.144  0.00  0.00    -0.248 OA
BRANCH  19  21
ATOM     21  O   UNL     1       9.842  24.848  23.884  0.00  0.00    -0.479 OA
ATOM     22  H   UNL     1       9.993  25.805  24.014  0.00  0.00    +0.295 HD
ENDBRANCH  19  21
ENDBRANCH  16  19
ENDBRANCH  14  16
ENDBRANCH  10  12
ENDBRANCH   9  10
ENDBRANCH   5   9
ENDBRANCH   4   7
ENDBRANCH   1   4
BRANCH   1  23
ATOM     23  C   UNL     1      14.413  22.510  18.638  0.00  0.00    +0.175 C 
BRANCH  23  24
ATOM     24  C   UNL     1      13.522  23.158  17.568  0.00  0.00    +0.176 C 
ATOM     25  O   UNL     1      14.335  23.380  16.383  0.00  0.00    -0.332 OA
ATOM     26  C   UNL     1      13.620  23.900  15.213  0.00  0.00    +0.277 C 
ATOM     27  C   UNL     1      12.859  25.198  15.576  0.00  0.00    +0.110 C 
ATOM     28  C   UNL     1      12.005  25.020  16.849  0.00  0.00    +0.143 C 
ATOM     29  C   UNL     1      12.846  24.472  18.002  0.00  0.00    +0.133 C 
BRANCH  29  30
ATOM     30  N   UNL     1      12.004  24.225  19.183  0.00  0.00    -0.308 N 
ATOM     31  H   UNL     1      11.330  23.474  19.133  0.00  0.00    +0.149 HD
ATOM     32  C   UNL     1      12.071  24.929  20.316  0.00  0.00    +0.210 C 
ATOM     33  C   UNL     1      13.089  26.084  20.352  0.00  0.00    +0.109 C 
ATOM     34  O   UNL     1      11.363  24.690  21.295  0.00  0.00    -0.276 OA
ENDBRANCH  29  30
BRANCH  26  35
ATOM     35  C   UNL     1      12.625  22.853  14.670  0.00  0.00    +0.414 C 
ATOM     36  O   UNL     1      12.848  21.652  14.816  0.00  0.00    -0.240 OA
ATOM     37  O   UNL     1      11.600  23.210  14.088  0.00  0.00    -0.240 OA
ENDBRANCH  26  35
BRANCH  26  38
ATOM     38  O   UNL     1      14.602  24.216  14.192  0.00  0.00    -0.343 OA
ATOM     39  C   UNL     1      15.843  23.471  14.284  0.00  0.00    +0.198 C 
ENDBRANCH  26  38
BRANCH  28  40
ATOM     40  O   UNL     1      11.443  26.276  17.232  0.00  0.00    -0.390 OA
ATOM     41  H   UNL     1      12.113  26.807  17.669  0.00  0.00    +0.210 HD
ENDBRANCH  28  40
ENDBRANCH  23  24
BRANCH  23  42
ATOM     42  O   UNL     1      13.600  21.923  19.674  0.00  0.00    -0.387 OA
ATOM     43  H   UNL     1      14.167  21.549  20.352  0.00  0.00    +0.210 HD
ENDBRANCH  23  42
ENDBRANCH   1  23
TORSDOF 16
