REMARK VINA RESULT:    -6.308     14.768     17.655
REMARK INTER + INTRA:         -12.765
REMARK INTER:                  -9.450
REMARK INTRA:                  -3.315
REMARK UNBOUND:                -1.847
REMARK  Name = lig_assembled_2.pdb
REMARK  16 active torsions:
REMARK  status: ('A' for Active; 'I' for Inactive)
REMARK    1  A    between atoms: _2  and  _9
REMARK    2  A    between atoms: _4  and  _18
REMARK    3  A    between atoms: _6  and  _7
REMARK    4  A    between atoms: _6  and  _18
REMARK    5  A    between atoms: _14  and  _34
REMARK    6  A    between atoms: _16  and  _22
REMARK    7  A    between atoms: _17  and  _21
REMARK    8  A    between atoms: _21  and  _22
REMARK    9  A    between atoms: _24  and  _25
REMARK   10  A    between atoms: _26  and  _27
REMARK   11  A    between atoms: _28  and  _30
REMARK   12  A    between atoms: _30  and  _31
REMARK   13  A    between atoms: _30  and  _32
REMARK   14  A    between atoms: _32  and  _33
REMARK   15  A    between atoms: _32  and  _34
REMARK   16  A    between atoms: _35  and  _37
REMARK                            x       y       z     vdW  Elec       q    Type
REMARK                         _______ _______ _______ _____ _____    ______ ____
ROOT
ATOM      1  C   UNL     1      19.638  -1.395  22.754  0.00  0.00    +0.163 C 
ENDROOT
BRANCH   1   2
ATOM      2  O   UNL     1      19.749  -2.264  21.615  0.00  0.00    -0.388 OA
ATOM      3  H   UNL     1      20.671  -2.334  21.353  0.00  0.00    +0.210 HD
ENDBRANCH   1   2
BRANCH   1   4
ATOM      4  C   UNL     1      20.752  -1.698  23.751  0.00  0.00    +0.141 C 
BRANCH   4   7
ATOM      5  C   UNL     1      20.907  -0.625  25.972  0.00  0.00    +0.401 C 
ATOM      6  O   UNL     1      20.572  -1.639  26.589  0.00  0.00    -0.226 OA
ATOM      7  N   UNL     1      21.011  -0.561  24.644  0.00  0.00    -0.279 N 
ATOM      8  H   UNL     1      21.284   0.318  24.228  0.00  0.00    +0.152 HD
BRANCH   5   9
ATOM      9  O   UNL     1      21.202   0.568  26.703  0.00  0.00    -0.444 OA
BRANCH   9  10
ATOM     10  C   UNL     1      20.331   0.663  27.833  0.00  0.00    +0.292 C 
BRANCH  10  12
ATOM     11  N   UNL     1      18.416   2.124  28.400  0.00  0.00    -0.131 NA
ATOM     12  C   UNL     1      19.654   1.974  27.848  0.00  0.00    +0.121 A 
ATOM     13  C   UNL     1      20.085   3.192  27.372  0.00  0.00    +0.143 A 
ATOM     14  N   UNL     1      19.074   4.072  27.686  0.00  0.00    -0.220 N 
ATOM     15  N   UNL     1      18.067   3.398  28.292  0.00  0.00    -0.060 NA
BRANCH  14  16
ATOM     16  C   UNL     1      19.023   5.476  27.477  0.00  0.00    +0.067 A 
ATOM     17  C   UNL     1      18.847   6.007  26.191  0.00  0.00    +0.029 A 
ATOM     18  C   UNL     1      18.837   7.393  26.002  0.00  0.00    +0.022 A 
ATOM     19  C   UNL     1      18.999   8.248  27.091  0.00  0.00    +0.041 A 
ATOM     20 CL   UNL     1      19.008   9.950  26.845  0.00  0.00    -0.084 Cl
ATOM     21  C   UNL     1      19.160   7.730  28.374  0.00  0.00    +0.022 A 
ATOM     22  C   UNL     1      19.170   6.346  28.570  0.00  0.00    +0.029 A 
ENDBRANCH  14  16
ENDBRANCH  10  12
ENDBRANCH   9  10
ENDBRANCH   5   9
ENDBRANCH   4   7
ENDBRANCH   1   4
BRANCH   1  23
ATOM     23  C   UNL     1      18.273  -1.563  23.442  0.00  0.00    +0.175 C 
BRANCH  23  24
ATOM     24  C   UNL     1      17.596  -0.212  23.719  0.00  0.00    +0.176 C 
ATOM     25  O   UNL     1      18.538   0.840  23.372  0.00  0.00    -0.332 OA
ATOM     26  C   UNL     1      18.025   2.209  23.472  0.00  0.00    +0.277 C 
ATOM     27  C   UNL     1      17.447   2.469  24.885  0.00  0.00    +0.110 C 
ATOM     28  C   UNL     1      16.464   1.359  25.311  0.00  0.00    +0.143 C 
ATOM     29  C   UNL     1      17.100  -0.024  25.164  0.00  0.00    +0.133 C 
BRANCH  29  30
ATOM     30  N   UNL     1      16.124  -1.077  25.490  0.00  0.00    -0.308 N 
ATOM     31  H   UNL     1      15.387  -1.259  24.824  0.00  0.00    +0.149 HD
ATOM     32  C   UNL     1      16.150  -1.806  26.609  0.00  0.00    +0.210 C 
ATOM     33  C   UNL     1      17.270  -1.486  27.616  0.00  0.00    +0.109 C 
ATOM     34  O   UNL     1      15.328  -2.692  26.848  0.00  0.00    -0.276 OA
ENDBRANCH  29  30
BRANCH  26  35
ATOM     35  C   UNL     1      16.931   2.462  22.414  0.00  0.00    +0.414 C 
ATOM     36  O   UNL     1      16.966   1.875  21.333  0.00  0.00    -0.240 OA
ATOM     37  O   UNL     1      16.013   3.251  22.641  0.00  0.00    -0.240 OA
ENDBRANCH  26  35
BRANCH  28  38
ATOM     38  O   UNL     1      16.074   1.556  26.671  0.00  0.00    -0.390 OA
ATOM     39  H   UNL     1      15.134   1.385  26.764  0.00  0.00    +0.210 HD
ENDBRANCH  28  38
BRANCH  26  40
ATOM     40  O   UNL     1      19.133   3.121  23.256  0.00  0.00    -0.343 OA
ATOM     41  C   UNL     1      20.398   2.691  23.819  0.00  0.00    +0.198 C 
ENDBRANCH  26  40
ENDBRANCH  23  24
BRANCH  23  42
ATOM     42  O   UNL     1      18.423  -2.303  24.670  0.00  0.00    -0.387 OA
ATOM     43  H   UNL     1      17.913  -1.880  25.364  0.00  0.00    +0.210 HD
ENDBRANCH  23  42
ENDBRANCH   1  23
TORSDOF 14
