REMARK VINA RESULT:    -5.043     10.892     14.166
REMARK INTER + INTRA:         -13.157
REMARK INTER:                 -10.871
REMARK INTRA:                  -2.286
REMARK UNBOUND:                -3.545
REMARK  Name = lig_assembled_55.pdb
REMARK  20 active torsions:
REMARK  status: ('A' for Active; 'I' for Inactive)
REMARK    1  A    between atoms: _2  and  _10
REMARK    2  A    between atoms: _3  and  _11
REMARK    3  A    between atoms: _3  and  _38
REMARK    4  A    between atoms: _5  and  _18
REMARK    5  A    between atoms: _6  and  _38
REMARK    6  A    between atoms: _7  and  _8
REMARK    7  A    between atoms: _7  and  _18
REMARK    8  A    between atoms: _10  and  _11
REMARK    9  A    between atoms: _14  and  _34
REMARK   10  A    between atoms: _16  and  _22
REMARK   11  A    between atoms: _17  and  _21
REMARK   12  A    between atoms: _21  and  _22
REMARK   13  A    between atoms: _24  and  _25
REMARK   14  A    between atoms: _26  and  _27
REMARK   15  A    between atoms: _28  and  _30
REMARK   16  A    between atoms: _30  and  _31
REMARK   17  A    between atoms: _30  and  _32
REMARK   18  A    between atoms: _32  and  _33
REMARK   19  A    between atoms: _32  and  _34
REMARK   20  A    between atoms: _35  and  _37
REMARK                            x       y       z     vdW  Elec       q    Type
REMARK                         _______ _______ _______ _____ _____    ______ ____
ROOT
ATOM      1  C   UNL     1      17.717   1.265  26.386  0.00  0.00    +0.163 C 
ENDROOT
BRANCH   1   2
ATOM      2  O   UNL     1      18.076   0.219  27.303  0.00  0.00    -0.388 OA
ATOM      3  H   UNL     1      18.945  -0.122  27.076  0.00  0.00    +0.210 HD
ENDBRANCH   1   2
BRANCH   1   4
ATOM      4  C   UNL     1      16.486   0.868  25.553  0.00  0.00    +0.175 C 
BRANCH   4   5
ATOM      5  C   UNL     1      16.844  -0.102  24.418  0.00  0.00    +0.176 C 
ATOM      6  O   UNL     1      17.362  -1.321  25.019  0.00  0.00    -0.332 OA
ATOM      7  C   UNL     1      17.661  -2.411  24.085  0.00  0.00    +0.277 C 
ATOM      8  C   UNL     1      18.626  -1.923  22.976  0.00  0.00    +0.110 C 
ATOM      9  C   UNL     1      18.133  -0.612  22.329  0.00  0.00    +0.143 C 
ATOM     10  C   UNL     1      17.849   0.451  23.391  0.00  0.00    +0.133 C 
BRANCH  10  11
ATOM     11  N   UNL     1      17.298   1.666  22.770  0.00  0.00    -0.308 N 
ATOM     12  H   UNL     1      16.388   1.602  22.335  0.00  0.00    +0.149 HD
ATOM     13  C   UNL     1      17.922   2.846  22.742  0.00  0.00    +0.210 C 
ATOM     14  C   UNL     1      19.319   2.904  23.389  0.00  0.00    +0.109 C 
ATOM     15  O   UNL     1      17.430   3.851  22.227  0.00  0.00    -0.276 OA
ENDBRANCH  10  11
BRANCH   7  16
ATOM     16  C   UNL     1      16.367  -2.951  23.442  0.00  0.00    +0.414 C 
ATOM     17  O   UNL     1      16.423  -3.664  22.441  0.00  0.00    -0.240 OA
ATOM     18  O   UNL     1      15.268  -2.674  23.925  0.00  0.00    -0.240 OA
ENDBRANCH   7  16
BRANCH   7  19
ATOM     19  O   UNL     1      18.317  -3.471  24.828  0.00  0.00    -0.343 OA
ATOM     20  C   UNL     1      18.336  -3.290  26.266  0.00  0.00    +0.198 C 
ENDBRANCH   7  19
BRANCH   9  21
ATOM     21  O   UNL     1      19.122  -0.120  21.423  0.00  0.00    -0.390 OA
ATOM     22  H   UNL     1      18.750  -0.068  20.540  0.00  0.00    +0.210 HD
ENDBRANCH   9  21
ENDBRANCH   4   5
BRANCH   4  23
ATOM     23  O   UNL     1      15.848   2.045  25.018  0.00  0.00    -0.387 OA
ATOM     24  H   UNL     1      14.914   1.868  24.878  0.00  0.00    +0.210 HD
ENDBRANCH   4  23
ENDBRANCH   1   4
BRANCH   1  25
ATOM     25  C   UNL     1      17.421   2.551  27.151  0.00  0.00    +0.141 C 
BRANCH  25  28
ATOM     26  C   UNL     1      19.371   4.054  26.952  0.00  0.00    +0.401 C 
ATOM     27  O   UNL     1      20.035   3.461  27.805  0.00  0.00    -0.226 OA
ATOM     28  N   UNL     1      18.138   3.701  26.588  0.00  0.00    -0.279 N 
ATOM     29  H   UNL     1      17.671   4.256  25.885  0.00  0.00    +0.152 HD
BRANCH  26  30
ATOM     30  O   UNL     1      19.937   5.195  26.302  0.00  0.00    -0.444 OA
BRANCH  30  31
ATOM     31  C   UNL     1      18.902   6.134  25.998  0.00  0.00    +0.292 C 
BRANCH  31  33
ATOM     32  N   UNL     1      19.026   7.096  28.273  0.00  0.00    -0.131 NA
ATOM     33  C   UNL     1      18.965   7.285  26.917  0.00  0.00    +0.120 A 
ATOM     34  C   UNL     1      18.973   8.637  26.651  0.00  0.00    +0.137 A 
ATOM     35  N   UNL     1      19.020   9.215  27.884  0.00  0.00    -0.250 N 
ATOM     36  N   UNL     1      19.054   8.285  28.856  0.00  0.00    -0.065 NA
BRANCH  35  37
ATOM     37  C   UNL     1      19.062  10.623  28.211  0.00  0.00    +0.162 C 
BRANCH  37  38
ATOM     38  C   UNL     1      18.992  10.912  29.715  0.00  0.00    +0.129 C 
BRANCH  38  39
ATOM     39  N   UNL     1      17.633  10.719  30.299  0.00  0.00    -0.193 NA
ATOM     40  H   UNL     1      17.028  10.209  29.644  0.00  0.00    +0.148 HD
BRANCH  39  41
ATOM     41  S   UNL     1      17.577  10.097  31.864  0.00  0.00    +0.027 S 
ATOM     42  O   UNL     1      17.145  11.176  32.726  0.00  0.00    -0.158 OA
ATOM     43  O   UNL     1      16.857   8.844  31.811  0.00  0.00    -0.158 OA
ATOM     44  C   UNL     1      19.296   9.780  32.184  0.00  0.00    +0.214 C 
ENDBRANCH  39  41
ENDBRANCH  38  39
ENDBRANCH  37  38
ENDBRANCH  35  37
ENDBRANCH  31  33
ENDBRANCH  30  31
ENDBRANCH  26  30
ENDBRANCH  25  28
ENDBRANCH   1  25
TORSDOF 17
