REMARK VINA RESULT:    -7.166      4.398      8.299
REMARK INTER + INTRA:         -16.921
REMARK INTER:                 -12.683
REMARK INTRA:                  -4.239
REMARK UNBOUND:                -2.424
REMARK  Name = lig_assembled_81.pdb
REMARK  22 active torsions:
REMARK  status: ('A' for Active; 'I' for Inactive)
REMARK    1  A    between atoms: _2  and  _12
REMARK    2  A    between atoms: _7  and  _30
REMARK    3  A    between atoms: _8  and  _24
REMARK    4  A    between atoms: _9  and  _10
REMARK    5  A    between atoms: _9  and  _30
REMARK    6  A    between atoms: _14  and  _15
REMARK    7  A    between atoms: _21  and  _22
REMARK    8  A    between atoms: _22  and  _23
REMARK    9  A    between atoms: _23  and  _25
REMARK   10  A    between atoms: _24  and  _25
REMARK   11  A    between atoms: _26  and  _46
REMARK   12  A    between atoms: _28  and  _34
REMARK   13  A    between atoms: _29  and  _33
REMARK   14  A    between atoms: _33  and  _34
REMARK   15  A    between atoms: _36  and  _37
REMARK   16  A    between atoms: _38  and  _39
REMARK   17  A    between atoms: _40  and  _42
REMARK   18  A    between atoms: _42  and  _43
REMARK   19  A    between atoms: _42  and  _44
REMARK   20  A    between atoms: _44  and  _45
REMARK   21  A    between atoms: _44  and  _46
REMARK   22  A    between atoms: _47  and  _49
REMARK                            x       y       z     vdW  Elec       q    Type
REMARK                         _______ _______ _______ _____ _____    ______ ____
ROOT
ATOM      1  C   UNL     1      20.247   9.863  26.911  0.00  0.00    +0.401 C 
ATOM      2  O   UNL     1      20.888  10.898  26.711  0.00  0.00    -0.226 OA
ATOM      3  N   UNL     1      19.268   9.756  27.810  0.00  0.00    -0.279 N 
ATOM      4  H   UNL     1      18.794   8.867  27.894  0.00  0.00    +0.152 HD
ENDROOT
BRANCH   1   5
ATOM      5  O   UNL     1      20.553   8.697  26.142  0.00  0.00    -0.444 OA
BRANCH   5   6
ATOM      6  C   UNL     1      20.232   7.528  26.900  0.00  0.00    +0.289 C 
BRANCH   6   8
ATOM      7  N   UNL     1      21.086   5.759  25.432  0.00  0.00    -0.130 NA
ATOM      8  C   UNL     1      20.013   6.377  26.000  0.00  0.00    +0.100 C 
ATOM      9  C   UNL     1      18.860   5.763  25.549  0.00  0.00    +0.124 C 
ATOM     10  N   UNL     1      19.306   4.674  24.813  0.00  0.00    -0.187 N 
ATOM     11  N   UNL     1      20.632   4.825  24.615  0.00  0.00    -0.010 NA
BRANCH  10  12
ATOM     12  C   UNL     1      18.521   3.664  24.161  0.00  0.00    +0.150 A 
ATOM     13  C   UNL     1      18.441   2.303  24.547  0.00  0.00    +0.022 A 
ATOM     14  C   UNL     1      17.649   1.517  23.669  0.00  0.00    +0.081 A 
ATOM     15  N   UNL     1      17.102   2.041  22.538  0.00  0.00    -0.214 NA
ATOM     16  C   UNL     1      17.271   3.324  22.269  0.00  0.00    +0.215 A 
ATOM     17  N   UNL     1      16.787   3.811  21.078  0.00  0.00    -0.327 N 
ATOM     18  H   UNL     1      16.053   3.223  20.713  0.00  0.00    +0.145 HD
ATOM     19  H   UNL     1      16.644   4.809  21.112  0.00  0.00    +0.145 HD
ATOM     20  N   UNL     1      17.874   4.174  23.077  0.00  0.00    -0.198 NA
BRANCH  14  21
ATOM     21  C   UNL     1      17.304   0.050  23.788  0.00  0.00    +0.001 A 
ATOM     22  C   UNL     1      16.222  -0.469  24.524  0.00  0.00    +0.010 A 
ATOM     23  C   UNL     1      15.944  -1.845  24.587  0.00  0.00    +0.001 A 
ATOM     24  C   UNL     1      16.701  -2.750  23.867  0.00  0.00    +0.000 A 
ATOM     25  C   UNL     1      17.749  -2.280  23.079  0.00  0.00    +0.001 A 
ATOM     26  C   UNL     1      18.045  -0.909  23.056  0.00  0.00    +0.010 A 
ENDBRANCH  14  21
BRANCH  13  27
ATOM     27  C   UNL     1      18.993   1.634  25.809  0.00  0.00    +0.069 C 
BRANCH  27  28
ATOM     28  C   UNL     1      18.167   1.547  27.078  0.00  0.00    +0.164 C 
BRANCH  28  29
ATOM     29  O   UNL     1      18.217   0.303  27.786  0.00  0.00    -0.380 OA
BRANCH  29  30
ATOM     30  C   UNL     1      19.057  -0.571  27.006  0.00  0.00    +0.156 C 
ATOM     31  C   UNL     1      18.599  -2.009  27.091  0.00  0.00    +0.034 C 
ENDBRANCH  29  30
ENDBRANCH  28  29
ENDBRANCH  27  28
ENDBRANCH  13  27
ENDBRANCH  10  12
ENDBRANCH   6   8
ENDBRANCH   5   6
ENDBRANCH   1   5
BRANCH   3  32
ATOM     32  C   UNL     1      18.839  10.855  28.683  0.00  0.00    +0.141 C 
BRANCH  32  33
ATOM     33  C   UNL     1      18.528  10.371  30.096  0.00  0.00    +0.163 C 
BRANCH  33  34
ATOM     34  O   UNL     1      17.157  10.651  30.421  0.00  0.00    -0.388 OA
ATOM     35  H   UNL     1      17.116  11.398  31.023  0.00  0.00    +0.210 HD
ENDBRANCH  33  34
BRANCH  33  36
ATOM     36  C   UNL     1      18.821   8.864  30.199  0.00  0.00    +0.175 C 
BRANCH  36  37
ATOM     37  C   UNL     1      18.006   8.192  31.314  0.00  0.00    +0.176 C 
ATOM     38  O   UNL     1      18.049   9.056  32.482  0.00  0.00    -0.332 OA
ATOM     39  C   UNL     1      17.233   8.624  33.621  0.00  0.00    +0.277 C 
ATOM     40  C   UNL     1      17.597   7.175  34.028  0.00  0.00    +0.110 C 
ATOM     41  C   UNL     1      17.595   6.225  32.812  0.00  0.00    +0.143 C 
ATOM     42  C   UNL     1      18.472   6.772  31.686  0.00  0.00    +0.133 C 
BRANCH  42  43
ATOM     43  N   UNL     1      18.394   5.903  30.502  0.00  0.00    -0.308 N 
ATOM     44  H   UNL     1      17.514   5.856  30.008  0.00  0.00    +0.149 HD
ATOM     45  C   UNL     1      19.410   5.170  30.037  0.00  0.00    +0.210 C 
ATOM     46  C   UNL     1      20.730   5.242  30.827  0.00  0.00    +0.109 C 
ATOM     47  O   UNL     1      19.319   4.462  29.034  0.00  0.00    -0.276 OA
ENDBRANCH  42  43
BRANCH  39  48
ATOM     48  C   UNL     1      15.731   8.702  33.278  0.00  0.00    +0.414 C 
ATOM     49  O   UNL     1      15.310   9.585  32.532  0.00  0.00    -0.240 OA
ATOM     50  O   UNL     1      14.940   7.883  33.747  0.00  0.00    -0.240 OA
ENDBRANCH  39  48
BRANCH  39  51
ATOM     51  O   UNL     1      17.525   9.500  34.740  0.00  0.00    -0.343 OA
ATOM     52  C   UNL     1      18.291  10.685  34.407  0.00  0.00    +0.198 C 
ENDBRANCH  39  51
BRANCH  41  53
ATOM     53  O   UNL     1      18.080   4.940  33.204  0.00  0.00    -0.390 OA
ATOM     54  H   UNL     1      18.906   5.041  33.682  0.00  0.00    +0.210 HD
ENDBRANCH  41  53
ENDBRANCH  36  37
BRANCH  36  55
ATOM     55  O   UNL     1      20.230   8.645  30.412  0.00  0.00    -0.387 OA
ATOM     56  H   UNL     1      20.618   9.427  30.813  0.00  0.00    +0.210 HD
ENDBRANCH  36  55
ENDBRANCH  33  36
ENDBRANCH  32  33
ENDBRANCH   3  32
TORSDOF 19
