REMARK VINA RESULT:    -6.492      2.526      3.397
REMARK INTER + INTRA:         -13.173
REMARK INTER:                 -11.403
REMARK INTRA:                  -1.770
REMARK UNBOUND:                -1.557
REMARK  Name = lig_assembled_28.pdb
REMARK  17 active torsions:
REMARK  status: ('A' for Active; 'I' for Inactive)
REMARK    1  A    between atoms: _2  and  _9
REMARK    2  A    between atoms: _4  and  _22
REMARK    3  A    between atoms: _6  and  _7
REMARK    4  A    between atoms: _6  and  _22
REMARK    5  A    between atoms: _9  and  _10
REMARK    6  A    between atoms: _18  and  _38
REMARK    7  A    between atoms: _20  and  _26
REMARK    8  A    between atoms: _21  and  _25
REMARK    9  A    between atoms: _25  and  _26
REMARK   10  A    between atoms: _28  and  _29
REMARK   11  A    between atoms: _30  and  _31
REMARK   12  A    between atoms: _32  and  _34
REMARK   13  A    between atoms: _34  and  _35
REMARK   14  A    between atoms: _34  and  _36
REMARK   15  A    between atoms: _36  and  _37
REMARK   16  A    between atoms: _36  and  _38
REMARK   17  A    between atoms: _39  and  _41
REMARK                            x       y       z     vdW  Elec       q    Type
REMARK                         _______ _______ _______ _____ _____    ______ ____
ROOT
ATOM      1  C   UNL     1       3.684   3.633  34.005  0.00  0.00    +0.163 C 
ENDROOT
BRANCH   1   2
ATOM      2  O   UNL     1       4.146   4.735  33.206  0.00  0.00    -0.388 OA
ATOM      3  H   UNL     1       4.773   5.257  33.712  0.00  0.00    +0.210 HD
ENDBRANCH   1   2
BRANCH   1   4
ATOM      4  C   UNL     1       2.336   3.142  33.487  0.00  0.00    +0.141 C 
BRANCH   4   7
ATOM      5  C   UNL     1       0.912   3.983  31.651  0.00  0.00    +0.401 C 
ATOM      6  O   UNL     1      -0.105   4.049  32.345  0.00  0.00    -0.226 OA
ATOM      7  N   UNL     1       2.095   3.564  32.101  0.00  0.00    -0.279 N 
ATOM      8  H   UNL     1       2.870   3.536  31.453  0.00  0.00    +0.152 HD
BRANCH   5   9
ATOM      9  O   UNL     1       0.842   4.370  30.276  0.00  0.00    -0.444 OA
BRANCH   9  10
ATOM     10  C   UNL     1       0.372   3.268  29.494  0.00  0.00    +0.292 C 
BRANCH  10  12
ATOM     11  N   UNL     1      -0.222   4.030  27.210  0.00  0.00    -0.131 NA
ATOM     12  C   UNL     1       0.691   3.479  28.069  0.00  0.00    +0.120 A 
ATOM     13  C   UNL     1       1.857   3.226  27.384  0.00  0.00    +0.137 A 
ATOM     14  N   UNL     1       1.628   3.735  26.137  0.00  0.00    -0.247 N 
ATOM     15  N   UNL     1       0.359   4.171  26.026  0.00  0.00    -0.065 NA
BRANCH  14  16
ATOM     16  C   UNL     1       2.541   3.943  25.020  0.00  0.00    +0.180 C 
BRANCH  16  17
ATOM     17  C   UNL     1       2.104   3.261  23.745  0.00  0.00    -0.022 A 
ATOM     18  C   UNL     1       1.820   4.024  22.598  0.00  0.00    +0.055 A 
ATOM     19  C   UNL     1       1.538   3.352  21.428  0.00  0.00    +0.167 A 
ATOM     20  O   UNL     1       1.296   3.932  20.220  0.00  0.00    -0.453 OA
ATOM     21  C   UNL     1       1.202   2.764  19.377  0.00  0.00    +0.466 C 
ATOM     22  O   UNL     1       1.238   1.523  20.113  0.00  0.00    -0.453 OA
ATOM     23  C   UNL     1       1.502   1.982  21.366  0.00  0.00    +0.166 A 
ATOM     24  C   UNL     1       1.742   1.200  22.477  0.00  0.00    +0.050 A 
ATOM     25  C   UNL     1       2.053   1.850  23.675  0.00  0.00    +0.009 A 
ENDBRANCH  16  17
ENDBRANCH  14  16
ENDBRANCH  10  12
ENDBRANCH   9  10
ENDBRANCH   5   9
ENDBRANCH   4   7
ENDBRANCH   1   4
BRANCH   1  26
ATOM     26  C   UNL     1       3.549   4.043  35.481  0.00  0.00    +0.175 C 
BRANCH  26  27
ATOM     27  C   UNL     1       4.556   5.133  35.873  0.00  0.00    +0.176 C 
ATOM     28  O   UNL     1       5.847   4.774  35.307  0.00  0.00    -0.332 OA
ATOM     29  C   UNL     1       6.916   5.760  35.491  0.00  0.00    +0.277 C 
ATOM     30  C   UNL     1       7.081   6.106  36.991  0.00  0.00    +0.110 C 
ATOM     31  C   UNL     1       5.730   6.464  37.644  0.00  0.00    +0.143 C 
ATOM     32  C   UNL     1       4.690   5.373  37.389  0.00  0.00    +0.133 C 
BRANCH  32  33
ATOM     33  N   UNL     1       3.384   5.765  37.941  0.00  0.00    -0.308 N 
ATOM     34  H   UNL     1       2.900   6.537  37.505  0.00  0.00    +0.149 HD
ATOM     35  C   UNL     1       2.796   5.167  38.981  0.00  0.00    +0.210 C 
ATOM     36  C   UNL     1       3.571   4.011  39.640  0.00  0.00    +0.109 C 
ATOM     37  O   UNL     1       1.695   5.508  39.414  0.00  0.00    -0.276 OA
ENDBRANCH  32  33
BRANCH  29  38
ATOM     38  C   UNL     1       6.616   7.047  34.694  0.00  0.00    +0.414 C 
ATOM     39  O   UNL     1       5.583   7.140  34.033  0.00  0.00    -0.240 OA
ATOM     40  O   UNL     1       7.407   7.991  34.712  0.00  0.00    -0.240 OA
ENDBRANCH  29  38
BRANCH  29  41
ATOM     41  O   UNL     1       8.155   5.171  35.019  0.00  0.00    -0.343 OA
ATOM     42  C   UNL     1       8.009   3.896  34.344  0.00  0.00    +0.198 C 
ENDBRANCH  29  41
BRANCH  31  43
ATOM     43  O   UNL     1       5.904   6.628  39.052  0.00  0.00    -0.390 OA
ATOM     44  H   UNL     1       6.821   6.840  39.239  0.00  0.00    +0.210 HD
ENDBRANCH  31  43
ENDBRANCH  26  27
BRANCH  26  45
ATOM     45  O   UNL     1       3.707   2.891  36.333  0.00  0.00    -0.387 OA
ATOM     46  H   UNL     1       2.962   2.297  36.211  0.00  0.00    +0.210 HD
ENDBRANCH  26  45
ENDBRANCH   1  26
TORSDOF 15
