REMARK VINA RESULT:    -6.931      2.185      3.464
REMARK INTER + INTRA:         -13.198
REMARK INTER:                 -11.232
REMARK INTRA:                  -1.967
REMARK UNBOUND:                -1.202
REMARK  Name = lig_assembled_40.pdb
REMARK  17 active torsions:
REMARK  status: ('A' for Active; 'I' for Inactive)
REMARK    1  A    between atoms: _2  and  _9
REMARK    2  A    between atoms: _4  and  _19
REMARK    3  A    between atoms: _6  and  _7
REMARK    4  A    between atoms: _6  and  _19
REMARK    5  A    between atoms: _12  and  _13
REMARK    6  A    between atoms: _15  and  _35
REMARK    7  A    between atoms: _17  and  _23
REMARK    8  A    between atoms: _18  and  _22
REMARK    9  A    between atoms: _22  and  _23
REMARK   10  A    between atoms: _25  and  _26
REMARK   11  A    between atoms: _27  and  _28
REMARK   12  A    between atoms: _29  and  _31
REMARK   13  A    between atoms: _31  and  _32
REMARK   14  A    between atoms: _31  and  _33
REMARK   15  A    between atoms: _33  and  _34
REMARK   16  A    between atoms: _33  and  _35
REMARK   17  A    between atoms: _36  and  _38
REMARK                            x       y       z     vdW  Elec       q    Type
REMARK                         _______ _______ _______ _____ _____    ______ ____
ROOT
ATOM      1  C   UNL     1       2.501   2.718  32.776  0.00  0.00    +0.163 C 
ENDROOT
BRANCH   1   2
ATOM      2  O   UNL     1       2.085   1.617  33.600  0.00  0.00    -0.388 OA
ATOM      3  H   UNL     1       1.922   1.930  34.493  0.00  0.00    +0.210 HD
ENDBRANCH   1   2
BRANCH   1   4
ATOM      4  C   UNL     1       2.908   2.212  31.396  0.00  0.00    +0.141 C 
BRANCH   4   7
ATOM      5  C   UNL     1       2.219   2.778  29.091  0.00  0.00    +0.401 C 
ATOM      6  O   UNL     1       2.234   1.609  28.699  0.00  0.00    -0.226 OA
ATOM      7  N   UNL     1       2.526   3.151  30.334  0.00  0.00    -0.279 N 
ATOM      8  H   UNL     1       2.494   4.136  30.558  0.00  0.00    +0.152 HD
BRANCH   5   9
ATOM      9  O   UNL     1       1.858   3.814  28.173  0.00  0.00    -0.444 OA
BRANCH   9  10
ATOM     10  C   UNL     1       0.705   3.412  27.429  0.00  0.00    +0.292 C 
BRANCH  10  12
ATOM     11  N   UNL     1       0.795   5.053  25.579  0.00  0.00    -0.131 NA
ATOM     12  C   UNL     1       0.866   3.759  26.005  0.00  0.00    +0.121 A 
ATOM     13  C   UNL     1       1.110   2.944  24.925  0.00  0.00    +0.143 A 
ATOM     14  N   UNL     1       1.214   3.796  23.849  0.00  0.00    -0.220 N 
ATOM     15  N   UNL     1       0.998   5.069  24.268  0.00  0.00    -0.060 NA
BRANCH  14  16
ATOM     16  C   UNL     1       1.537   3.486  22.503  0.00  0.00    +0.067 A 
ATOM     17  C   UNL     1       1.698   4.500  21.552  0.00  0.00    +0.028 A 
ATOM     18  C   UNL     1       1.947   4.177  20.215  0.00  0.00    +0.005 A 
ATOM     19  C   UNL     1       2.038   2.841  19.811  0.00  0.00    -0.050 A 
ATOM     20  C   UNL     1       1.912   1.829  20.770  0.00  0.00    +0.005 A 
ATOM     21  C   UNL     1       2.258   2.489  18.369  0.00  0.00    +0.044 C 
ATOM     22  C   UNL     1       1.664   2.146  22.108  0.00  0.00    +0.028 A 
ENDBRANCH  14  16
ENDBRANCH  10  12
ENDBRANCH   9  10
ENDBRANCH   5   9
ENDBRANCH   4   7
ENDBRANCH   1   4
BRANCH   1  23
ATOM     23  C   UNL     1       3.682   3.469  33.416  0.00  0.00    +0.175 C 
BRANCH  23  24
ATOM     24  C   UNL     1       3.437   3.772  34.901  0.00  0.00    +0.176 C 
ATOM     25  O   UNL     1       2.022   4.063  35.071  0.00  0.00    -0.332 OA
ATOM     26  C   UNL     1       1.580   4.274  36.452  0.00  0.00    +0.277 C 
ATOM     27  C   UNL     1       2.426   5.381  37.128  0.00  0.00    +0.110 C 
ATOM     28  C   UNL     1       3.938   5.131  36.947  0.00  0.00    +0.143 C 
ATOM     29  C   UNL     1       4.287   4.922  35.473  0.00  0.00    +0.133 C 
BRANCH  29  30
ATOM     30  N   UNL     1       5.715   4.599  35.322  0.00  0.00    -0.308 N 
ATOM     31  H   UNL     1       6.025   3.684  35.619  0.00  0.00    +0.149 HD
ATOM     32  C   UNL     1       6.626   5.436  34.820  0.00  0.00    +0.210 C 
ATOM     33  C   UNL     1       6.126   6.831  34.401  0.00  0.00    +0.109 C 
ATOM     34  O   UNL     1       7.813   5.133  34.691  0.00  0.00    -0.276 OA
ENDBRANCH  29  30
BRANCH  26  35
ATOM     35  C   UNL     1       1.690   2.970  37.268  0.00  0.00    +0.414 C 
ATOM     36  O   UNL     1       1.612   2.997  38.496  0.00  0.00    -0.240 OA
ATOM     37  O   UNL     1       1.858   1.890  36.699  0.00  0.00    -0.240 OA
ENDBRANCH  26  35
BRANCH  28  38
ATOM     38  O   UNL     1       4.674   6.247  37.451  0.00  0.00    -0.390 OA
ATOM     39  H   UNL     1       5.175   5.978  38.224  0.00  0.00    +0.210 HD
ENDBRANCH  28  38
BRANCH  26  40
ATOM     40  O   UNL     1       0.197   4.713  36.419  0.00  0.00    -0.343 OA
ATOM     41  C   UNL     1      -0.610   4.116  35.372  0.00  0.00    +0.198 C 
ENDBRANCH  26  40
ENDBRANCH  23  24
BRANCH  23  42
ATOM     42  O   UNL     1       3.942   4.691  32.696  0.00  0.00    -0.387 OA
ATOM     43  H   UNL     1       4.033   5.416  33.318  0.00  0.00    +0.210 HD
ENDBRANCH  23  42
ENDBRANCH   1  23
TORSDOF 14
