REMARK VINA RESULT:    -5.958     13.129     17.376
REMARK INTER + INTRA:         -13.087
REMARK INTER:                 -11.365
REMARK INTRA:                  -1.723
REMARK UNBOUND:                -2.078
REMARK  Name = lig_assembled_14.pdb
REMARK  18 active torsions:
REMARK  status: ('A' for Active; 'I' for Inactive)
REMARK    1  A    between atoms: _2  and  _10
REMARK    2  A    between atoms: _3  and  _11
REMARK    3  A    between atoms: _5  and  _19
REMARK    4  A    between atoms: _7  and  _8
REMARK    5  A    between atoms: _7  and  _19
REMARK    6  A    between atoms: _10  and  _11
REMARK    7  A    between atoms: _15  and  _35
REMARK    8  A    between atoms: _17  and  _23
REMARK    9  A    between atoms: _18  and  _22
REMARK   10  A    between atoms: _22  and  _23
REMARK   11  A    between atoms: _25  and  _26
REMARK   12  A    between atoms: _27  and  _28
REMARK   13  A    between atoms: _29  and  _31
REMARK   14  A    between atoms: _31  and  _32
REMARK   15  A    between atoms: _31  and  _33
REMARK   16  A    between atoms: _33  and  _34
REMARK   17  A    between atoms: _33  and  _35
REMARK   18  A    between atoms: _36  and  _38
REMARK                            x       y       z     vdW  Elec       q    Type
REMARK                         _______ _______ _______ _____ _____    ______ ____
ROOT
ATOM      1  C   UNL     1       6.119   3.161  34.203  0.00  0.00    +0.163 C 
ENDROOT
BRANCH   1   2
ATOM      2  O   UNL     1       5.845   1.754  34.103  0.00  0.00    -0.388 OA
ATOM      3  H   UNL     1       4.981   1.623  33.706  0.00  0.00    +0.210 HD
ENDBRANCH   1   2
BRANCH   1   4
ATOM      4  C   UNL     1       7.516   3.490  33.648  0.00  0.00    +0.175 C 
BRANCH   4   5
ATOM      5  C   UNL     1       8.535   3.752  34.766  0.00  0.00    +0.176 C 
ATOM      6  O   UNL     1       8.880   2.472  35.365  0.00  0.00    -0.332 OA
ATOM      7  C   UNL     1       9.929   2.514  36.389  0.00  0.00    +0.277 C 
ATOM      8  C   UNL     1       9.561   3.529  37.499  0.00  0.00    +0.110 C 
ATOM      9  C   UNL     1       9.156   4.896  36.909  0.00  0.00    +0.143 C 
ATOM     10  C   UNL     1       8.062   4.735  35.852  0.00  0.00    +0.133 C 
BRANCH  10  11
ATOM     11  N   UNL     1       7.746   6.033  35.236  0.00  0.00    -0.308 N 
ATOM     12  H   UNL     1       8.431   6.440  34.615  0.00  0.00    +0.149 HD
ATOM     13  C   UNL     1       6.612   6.709  35.443  0.00  0.00    +0.210 C 
ATOM     14  C   UNL     1       5.599   6.075  36.415  0.00  0.00    +0.109 C 
ATOM     15  O   UNL     1       6.368   7.788  34.902  0.00  0.00    -0.276 OA
ENDBRANCH  10  11
BRANCH   7  16
ATOM     16  C   UNL     1      11.286   2.900  35.766  0.00  0.00    +0.414 C 
ATOM     17  O   UNL     1      11.995   3.751  36.303  0.00  0.00    -0.240 OA
ATOM     18  O   UNL     1      11.673   2.362  34.728  0.00  0.00    -0.240 OA
ENDBRANCH   7  16
BRANCH   9  19
ATOM     19  O   UNL     1       8.681   5.749  37.951  0.00  0.00    -0.390 OA
ATOM     20  H   UNL     1       8.529   5.231  38.745  0.00  0.00    +0.210 HD
ENDBRANCH   9  19
BRANCH   7  21
ATOM     21  O   UNL     1      10.024   1.196  36.988  0.00  0.00    -0.343 OA
ATOM     22  C   UNL     1       8.768   0.647  37.461  0.00  0.00    +0.198 C 
ENDBRANCH   7  21
ENDBRANCH   4   5
BRANCH   4  23
ATOM     23  O   UNL     1       7.443   4.627  32.765  0.00  0.00    -0.387 OA
ATOM     24  H   UNL     1       7.573   5.434  33.270  0.00  0.00    +0.210 HD
ENDBRANCH   4  23
ENDBRANCH   1   4
BRANCH   1  25
ATOM     25  C   UNL     1       5.066   3.953  33.436  0.00  0.00    +0.141 C 
BRANCH  25  28
ATOM     26  C   UNL     1       3.318   3.287  31.821  0.00  0.00    +0.401 C 
ATOM     27  O   UNL     1       2.435   3.963  32.354  0.00  0.00    -0.226 OA
ATOM     28  N   UNL     1       4.574   3.218  32.264  0.00  0.00    -0.279 N 
ATOM     29  H   UNL     1       5.225   2.628  31.764  0.00  0.00    +0.152 HD
BRANCH  26  30
ATOM     30  O   UNL     1       2.998   2.517  30.659  0.00  0.00    -0.444 OA
BRANCH  30  31
ATOM     31  C   UNL     1       1.623   2.716  30.319  0.00  0.00    +0.292 C 
BRANCH  31  33
ATOM     32  N   UNL     1       2.454   3.760  28.236  0.00  0.00    -0.131 NA
ATOM     33  C   UNL     1       1.488   3.039  28.887  0.00  0.00    +0.120 A 
ATOM     34  C   UNL     1       0.479   2.736  28.001  0.00  0.00    +0.137 A 
ATOM     35  N   UNL     1       0.885   3.311  26.836  0.00  0.00    -0.250 N 
ATOM     36  N   UNL     1       2.075   3.918  26.976  0.00  0.00    -0.065 NA
BRANCH  35  37
ATOM     37  C   UNL     1       0.178   3.374  25.574  0.00  0.00    +0.160 C 
BRANCH  37  38
ATOM     38  C   UNL     1      -0.299   4.796  25.257  0.00  0.00    +0.107 C 
BRANCH  38  39
ATOM     39  N   UNL     1       0.267   5.326  24.004  0.00  0.00    -0.301 NA
ATOM     40  C   UNL     1       1.629   4.851  23.740  0.00  0.00    +0.084 C 
ATOM     41  C   UNL     1       1.809   5.170  22.270  0.00  0.00    +0.017 C 
ATOM     42  C   UNL     1       0.449   4.873  21.666  0.00  0.00    +0.017 C 
ATOM     43  C   UNL     1      -0.530   4.926  22.834  0.00  0.00    +0.084 C 
ENDBRANCH  38  39
ENDBRANCH  37  38
ENDBRANCH  35  37
ENDBRANCH  31  33
ENDBRANCH  30  31
ENDBRANCH  26  30
ENDBRANCH  25  28
ENDBRANCH   1  25
TORSDOF 16
