REMARK VINA RESULT:    -5.884      1.547      3.923
REMARK INTER + INTRA:         -14.421
REMARK INTER:                 -12.280
REMARK INTRA:                  -2.141
REMARK UNBOUND:                -2.172
REMARK  Name = lig_assembled_54.pdb
REMARK  24 active torsions:
REMARK  status: ('A' for Active; 'I' for Inactive)
REMARK    1  A    between atoms: _2  and  _9
REMARK    2  A    between atoms: _4  and  _21
REMARK    3  A    between atoms: _5  and  _14
REMARK    4  A    between atoms: _6  and  _7
REMARK    5  A    between atoms: _6  and  _21
REMARK    6  A    between atoms: _9  and  _10
REMARK    7  A    between atoms: _10  and  _11
REMARK    8  A    between atoms: _11  and  _15
REMARK    9  A    between atoms: _11  and  _16
REMARK   10  A    between atoms: _12  and  _13
REMARK   11  A    between atoms: _12  and  _16
REMARK   12  A    between atoms: _14  and  _15
REMARK   13  A    between atoms: _17  and  _37
REMARK   14  A    between atoms: _19  and  _25
REMARK   15  A    between atoms: _20  and  _24
REMARK   16  A    between atoms: _24  and  _25
REMARK   17  A    between atoms: _27  and  _28
REMARK   18  A    between atoms: _29  and  _30
REMARK   19  A    between atoms: _31  and  _33
REMARK   20  A    between atoms: _33  and  _34
REMARK   21  A    between atoms: _33  and  _35
REMARK   22  A    between atoms: _35  and  _36
REMARK   23  A    between atoms: _35  and  _37
REMARK   24  A    between atoms: _38  and  _40
REMARK                            x       y       z     vdW  Elec       q    Type
REMARK                         _______ _______ _______ _____ _____    ______ ____
ROOT
ATOM      1  C   UNL     1       3.387   2.768  32.557  0.00  0.00    +0.163 C 
ENDROOT
BRANCH   1   2
ATOM      2  O   UNL     1       4.213   1.935  31.726  0.00  0.00    -0.388 OA
ATOM      3  H   UNL     1       3.928   2.010  30.812  0.00  0.00    +0.210 HD
ENDBRANCH   1   2
BRANCH   1   4
ATOM      4  C   UNL     1       4.222   3.865  33.238  0.00  0.00    +0.175 C 
BRANCH   4   5
ATOM      5  C   UNL     1       5.626   3.373  33.617  0.00  0.00    +0.176 C 
ATOM      6  O   UNL     1       5.504   2.011  34.111  0.00  0.00    -0.332 OA
ATOM      7  C   UNL     1       6.766   1.334  34.424  0.00  0.00    +0.277 C 
ATOM      8  C   UNL     1       7.601   2.179  35.418  0.00  0.00    +0.110 C 
ATOM      9  C   UNL     1       7.732   3.644  34.950  0.00  0.00    +0.143 C 
ATOM     10  C   UNL     1       6.360   4.248  34.650  0.00  0.00    +0.133 C 
BRANCH  10  11
ATOM     11  N   UNL     1       6.503   5.615  34.122  0.00  0.00    -0.308 N 
ATOM     12  H   UNL     1       6.865   5.723  33.185  0.00  0.00    +0.149 HD
ATOM     13  C   UNL     1       6.185   6.721  34.801  0.00  0.00    +0.210 C 
ATOM     14  C   UNL     1       5.661   6.523  36.236  0.00  0.00    +0.109 C 
ATOM     15  O   UNL     1       6.302   7.852  34.328  0.00  0.00    -0.276 OA
ENDBRANCH  10  11
BRANCH   7  16
ATOM     16  C   UNL     1       7.587   1.087  33.142  0.00  0.00    +0.414 C 
ATOM     17  O   UNL     1       8.799   1.300  33.130  0.00  0.00    -0.240 OA
ATOM     18  O   UNL     1       7.038   0.675  32.119  0.00  0.00    -0.240 OA
ENDBRANCH   7  16
BRANCH   9  19
ATOM     19  O   UNL     1       8.375   4.418  35.964  0.00  0.00    -0.390 OA
ATOM     20  H   UNL     1       8.177   4.045  36.826  0.00  0.00    +0.210 HD
ENDBRANCH   9  19
BRANCH   7  21
ATOM     21  O   UNL     1       6.452   0.066  35.055  0.00  0.00    -0.343 OA
ATOM     22  C   UNL     1       7.495  -0.469  35.908  0.00  0.00    +0.198 C 
ENDBRANCH   7  21
ENDBRANCH   4   5
BRANCH   4  23
ATOM     23  O   UNL     1       3.536   4.357  34.408  0.00  0.00    -0.387 OA
ATOM     24  H   UNL     1       3.925   5.190  34.681  0.00  0.00    +0.210 HD
ENDBRANCH   4  23
ENDBRANCH   1   4
BRANCH   1  25
ATOM     25  C   UNL     1       2.286   3.410  31.720  0.00  0.00    +0.141 C 
BRANCH  25  28
ATOM     26  C   UNL     1       1.702   3.637  29.329  0.00  0.00    +0.401 C 
ATOM     27  O   UNL     1       0.527   3.941  29.548  0.00  0.00    -0.226 OA
ATOM     28  N   UNL     1       2.593   3.366  30.285  0.00  0.00    -0.279 N 
ATOM     29  H   UNL     1       3.531   3.117  30.006  0.00  0.00    +0.152 HD
BRANCH  26  30
ATOM     30  O   UNL     1       2.159   3.559  27.977  0.00  0.00    -0.444 OA
BRANCH  30  31
ATOM     31  C   UNL     1       1.101   3.084  27.141  0.00  0.00    +0.292 C 
BRANCH  31  33
ATOM     32  N   UNL     1       0.045   4.884  25.809  0.00  0.00    -0.131 NA
ATOM     33  C   UNL     1       1.005   3.914  25.925  0.00  0.00    +0.120 A 
ATOM     34  C   UNL     1       1.782   3.910  24.787  0.00  0.00    +0.137 A 
ATOM     35  N   UNL     1       1.269   4.923  24.035  0.00  0.00    -0.251 N 
ATOM     36  N   UNL     1       0.221   5.503  24.649  0.00  0.00    -0.065 NA
BRANCH  35  37
ATOM     37  C   UNL     1       1.750   5.435  22.768  0.00  0.00    +0.150 C 
BRANCH  37  38
ATOM     38  C   UNL     1       1.624   4.402  21.659  0.00  0.00    +0.084 C 
BRANCH  38  39
ATOM     39  C   UNL     1       0.390   4.605  20.772  0.00  0.00    +0.252 C 
BRANCH  39  40
ATOM     40  O   UNL     1      -0.738   3.932  21.336  0.00  0.00    -0.352 OA
BRANCH  40  41
ATOM     41  C   UNL     1      -1.492   3.169  20.395  0.00  0.00    +0.159 C 
ATOM     42  C   UNL     1      -2.898   3.731  20.326  0.00  0.00    +0.034 C 
ENDBRANCH  40  41
ENDBRANCH  39  40
BRANCH  39  43
ATOM     43  O   UNL     1       0.688   4.058  19.482  0.00  0.00    -0.352 OA
BRANCH  43  44
ATOM     44  C   UNL     1       2.049   3.639  19.367  0.00  0.00    +0.159 C 
ATOM     45  C   UNL     1       2.159   2.608  18.262  0.00  0.00    +0.034 C 
ENDBRANCH  43  44
ENDBRANCH  39  43
ENDBRANCH  38  39
ENDBRANCH  37  38
ENDBRANCH  35  37
ENDBRANCH  31  33
ENDBRANCH  30  31
ENDBRANCH  26  30
ENDBRANCH  25  28
ENDBRANCH   1  25
TORSDOF 20
