REMARK VINA RESULT:    -5.519      8.536     13.267
REMARK INTER + INTRA:         -12.613
REMARK INTER:                  -9.716
REMARK INTRA:                  -2.897
REMARK UNBOUND:                -2.094
REMARK  Name = lig_assembled_19.pdb
REMARK  20 active torsions:
REMARK  status: ('A' for Active; 'I' for Inactive)
REMARK    1  A    between atoms: _2  and  _9
REMARK    2  A    between atoms: _4  and  _18
REMARK    3  A    between atoms: _5  and  _11
REMARK    4  A    between atoms: _6  and  _7
REMARK    5  A    between atoms: _6  and  _18
REMARK    6  A    between atoms: _9  and  _10
REMARK    7  A    between atoms: _10  and  _13
REMARK    8  A    between atoms: _11  and  _13
REMARK    9  A    between atoms: _14  and  _34
REMARK   10  A    between atoms: _16  and  _22
REMARK   11  A    between atoms: _17  and  _21
REMARK   12  A    between atoms: _21  and  _22
REMARK   13  A    between atoms: _24  and  _25
REMARK   14  A    between atoms: _26  and  _27
REMARK   15  A    between atoms: _28  and  _30
REMARK   16  A    between atoms: _30  and  _31
REMARK   17  A    between atoms: _30  and  _32
REMARK   18  A    between atoms: _32  and  _33
REMARK   19  A    between atoms: _32  and  _34
REMARK   20  A    between atoms: _35  and  _37
REMARK                            x       y       z     vdW  Elec       q    Type
REMARK                         _______ _______ _______ _____ _____    ______ ____
ROOT
ATOM      1  C   UNL     1       3.358   4.424  37.118  0.00  0.00    +0.163 C 
ENDROOT
BRANCH   1   2
ATOM      2  O   UNL     1       3.330   5.229  35.928  0.00  0.00    -0.388 OA
ATOM      3  H   UNL     1       4.094   5.025  35.384  0.00  0.00    +0.210 HD
ENDBRANCH   1   2
BRANCH   1   4
ATOM      4  C   UNL     1       4.728   4.518  37.813  0.00  0.00    +0.175 C 
BRANCH   4   5
ATOM      5  C   UNL     1       5.621   5.598  37.185  0.00  0.00    +0.176 C 
ATOM      6  O   UNL     1       6.247   5.028  36.002  0.00  0.00    -0.332 OA
ATOM      7  C   UNL     1       7.061   5.953  35.207  0.00  0.00    +0.277 C 
ATOM      8  C   UNL     1       8.135   6.628  36.095  0.00  0.00    +0.110 C 
ATOM      9  C   UNL     1       7.522   7.221  37.380  0.00  0.00    +0.143 C 
ATOM     10  C   UNL     1       6.694   6.175  38.127  0.00  0.00    +0.133 C 
BRANCH  10  11
ATOM     11  N   UNL     1       6.045   6.774  39.303  0.00  0.00    -0.308 N 
ATOM     12  H   UNL     1       5.316   7.456  39.143  0.00  0.00    +0.149 HD
ATOM     13  C   UNL     1       6.355   6.477  40.568  0.00  0.00    +0.210 C 
ATOM     14  C   UNL     1       7.487   5.454  40.778  0.00  0.00    +0.109 C 
ATOM     15  O   UNL     1       5.783   6.984  41.534  0.00  0.00    -0.276 OA
ENDBRANCH  10  11
BRANCH   7  16
ATOM     16  C   UNL     1       6.177   7.036  34.555  0.00  0.00    +0.414 C 
ATOM     17  O   UNL     1       5.067   6.746  34.108  0.00  0.00    -0.240 OA
ATOM     18  O   UNL     1       6.572   8.200  34.475  0.00  0.00    -0.240 OA
ENDBRANCH   7  16
BRANCH   9  19
ATOM     19  O   UNL     1       8.562   7.697  38.236  0.00  0.00    -0.390 OA
ATOM     20  H   UNL     1       8.682   7.085  38.966  0.00  0.00    +0.210 HD
ENDBRANCH   9  19
BRANCH   7  21
ATOM     21  O   UNL     1       7.734   5.186  34.176  0.00  0.00    -0.343 OA
ATOM     22  C   UNL     1       7.334   3.796  34.088  0.00  0.00    +0.198 C 
ENDBRANCH   7  21
ENDBRANCH   4   5
BRANCH   4  23
ATOM     23  O   UNL     1       5.393   3.240  37.775  0.00  0.00    -0.387 OA
ATOM     24  H   UNL     1       6.343   3.371  37.813  0.00  0.00    +0.210 HD
ENDBRANCH   4  23
ENDBRANCH   1   4
BRANCH   1  25
ATOM     25  C   UNL     1       2.266   4.878  38.081  0.00  0.00    +0.141 C 
BRANCH  25  28
ATOM     26  C   UNL     1       2.561   6.835  39.561  0.00  0.00    +0.401 C 
ATOM     27  O   UNL     1       2.716   6.159  40.581  0.00  0.00    -0.226 OA
ATOM     28  N   UNL     1       2.339   6.320  38.351  0.00  0.00    -0.279 N 
ATOM     29  H   UNL     1       2.215   6.956  37.577  0.00  0.00    +0.152 HD
BRANCH  26  30
ATOM     30  O   UNL     1       2.613   8.261  39.658  0.00  0.00    -0.444 OA
BRANCH  30  31
ATOM     31  C   UNL     1       2.559   8.648  41.034  0.00  0.00    +0.292 C 
BRANCH  31  33
ATOM     32  N   UNL     1       3.229  10.939  40.368  0.00  0.00    -0.131 NA
ATOM     33  C   UNL     1       3.320   9.893  41.249  0.00  0.00    +0.120 A 
ATOM     34  C   UNL     1       4.185  10.234  42.263  0.00  0.00    +0.137 A 
ATOM     35  N   UNL     1       4.593  11.491  41.935  0.00  0.00    -0.248 N 
ATOM     36  N   UNL     1       4.015  11.916  40.800  0.00  0.00    -0.065 NA
BRANCH  35  37
ATOM     37  C   UNL     1       5.513  12.343  42.657  0.00  0.00    +0.186 C 
BRANCH  37  38
ATOM     38  C   UNL     1       6.963  12.064  42.274  0.00  0.00    +0.255 C 
BRANCH  38  39
ATOM     39  O   UNL     1       7.662  11.321  43.292  0.00  0.00    -0.463 OA
BRANCH  39  40
ATOM     40  C   UNL     1       7.928  10.019  43.002  0.00  0.00    +0.304 C 
ATOM     41  O   UNL     1       8.606   9.638  42.058  0.00  0.00    -0.251 OA
ATOM     42  C   UNL     1       7.306   9.108  44.016  0.00  0.00    +0.136 C 
ENDBRANCH  39  40
ENDBRANCH  38  39
ENDBRANCH  37  38
ENDBRANCH  35  37
ENDBRANCH  31  33
ENDBRANCH  30  31
ENDBRANCH  26  30
ENDBRANCH  25  28
ENDBRANCH   1  25
TORSDOF 17
