REMARK VINA RESULT:    -5.473     14.863     17.528
REMARK INTER + INTRA:         -12.409
REMARK INTER:                 -10.743
REMARK INTRA:                  -1.665
REMARK UNBOUND:                -2.936
REMARK  Name = lig_assembled_93.pdb
REMARK  16 active torsions:
REMARK  status: ('A' for Active; 'I' for Inactive)
REMARK    1  A    between atoms: _2  and  _9
REMARK    2  A    between atoms: _4  and  _18
REMARK    3  A    between atoms: _6  and  _7
REMARK    4  A    between atoms: _6  and  _18
REMARK    5  A    between atoms: _14  and  _34
REMARK    6  A    between atoms: _16  and  _22
REMARK    7  A    between atoms: _17  and  _21
REMARK    8  A    between atoms: _21  and  _22
REMARK    9  A    between atoms: _24  and  _25
REMARK   10  A    between atoms: _26  and  _27
REMARK   11  A    between atoms: _28  and  _30
REMARK   12  A    between atoms: _30  and  _31
REMARK   13  A    between atoms: _30  and  _32
REMARK   14  A    between atoms: _32  and  _33
REMARK   15  A    between atoms: _32  and  _34
REMARK   16  A    between atoms: _35  and  _37
REMARK                            x       y       z     vdW  Elec       q    Type
REMARK                         _______ _______ _______ _____ _____    ______ ____
ROOT
ATOM      1  C   UNL     1      16.405  -0.150  26.729  0.00  0.00    +0.163 C 
ENDROOT
BRANCH   1   2
ATOM      2  O   UNL     1      15.586   1.028  26.645  0.00  0.00    -0.388 OA
ATOM      3  H   UNL     1      16.078   1.730  26.212  0.00  0.00    +0.210 HD
ENDBRANCH   1   2
BRANCH   1   4
ATOM      4  C   UNL     1      17.776   0.207  27.295  0.00  0.00    +0.141 C 
BRANCH   4   7
ATOM      5  C   UNL     1      18.763   2.133  28.488  0.00  0.00    +0.401 C 
ATOM      6  O   UNL     1      19.580   1.449  29.109  0.00  0.00    -0.226 OA
ATOM      7  N   UNL     1      17.877   1.634  27.624  0.00  0.00    -0.279 N 
ATOM      8  H   UNL     1      17.241   2.274  27.171  0.00  0.00    +0.152 HD
BRANCH   5   9
ATOM      9  O   UNL     1      18.741   3.547  28.694  0.00  0.00    -0.444 OA
BRANCH   9  10
ATOM     10  C   UNL     1      20.019   4.098  28.363  0.00  0.00    +0.292 C 
BRANCH  10  12
ATOM     11  N   UNL     1      18.655   5.480  26.841  0.00  0.00    -0.131 NA
ATOM     12  C   UNL     1      19.878   5.125  27.314  0.00  0.00    +0.121 A 
ATOM     13  C   UNL     1      20.838   5.868  26.667  0.00  0.00    +0.143 A 
ATOM     14  N   UNL     1      20.146   6.695  25.799  0.00  0.00    -0.219 N 
ATOM     15  N   UNL     1      18.829   6.421  25.925  0.00  0.00    -0.060 NA
BRANCH  14  16
ATOM     16  C   UNL     1      20.673   7.690  24.917  0.00  0.00    +0.080 A 
ATOM     17  C   UNL     1      20.935   7.307  23.579  0.00  0.00    +0.029 A 
ATOM     18  C   UNL     1      21.467   8.202  22.648  0.00  0.00    +0.002 A 
ATOM     19  C   UNL     1      21.753   9.504  23.023  0.00  0.00    +0.001 A 
ATOM     20  C   UNL     1      21.500   9.911  24.331  0.00  0.00    +0.016 A 
ATOM     21  C   UNL     1      20.960   9.022  25.285  0.00  0.00    +0.039 A 
ATOM     22  I   UNL     1      20.686   9.936  27.174  0.00  0.00    -0.042 I 
ENDBRANCH  14  16
ENDBRANCH  10  12
ENDBRANCH   9  10
ENDBRANCH   5   9
ENDBRANCH   4   7
ENDBRANCH   1   4
BRANCH   1  23
ATOM     23  C   UNL     1      16.574  -0.803  25.346  0.00  0.00    +0.175 C 
BRANCH  23  24
ATOM     24  C   UNL     1      17.414   0.064  24.397  0.00  0.00    +0.176 C 
ATOM     25  O   UNL     1      16.635   1.246  24.063  0.00  0.00    -0.332 OA
ATOM     26  C   UNL     1      17.323   2.248  23.243  0.00  0.00    +0.277 C 
ATOM     27  C   UNL     1      17.874   1.601  21.948  0.00  0.00    +0.110 C 
ATOM     28  C   UNL     1      18.683   0.323  22.250  0.00  0.00    +0.143 C 
ATOM     29  C   UNL     1      17.874  -0.648  23.111  0.00  0.00    +0.133 C 
BRANCH  29  30
ATOM     30  N   UNL     1      18.686  -1.823  23.464  0.00  0.00    -0.308 N 
ATOM     31  H   UNL     1      19.628  -1.664  23.794  0.00  0.00    +0.149 HD
ATOM     32  C   UNL     1      18.260  -3.086  23.378  0.00  0.00    +0.210 C 
ATOM     33  C   UNL     1      16.830  -3.297  22.847  0.00  0.00    +0.109 C 
ATOM     34  O   UNL     1      18.958  -4.050  23.694  0.00  0.00    -0.276 OA
ENDBRANCH  29  30
BRANCH  26  35
ATOM     35  C   UNL     1      18.481   2.896  24.029  0.00  0.00    +0.414 C 
ATOM     36  O   UNL     1      18.859   2.407  25.093  0.00  0.00    -0.240 OA
ATOM     37  O   UNL     1      19.038   3.908  23.599  0.00  0.00    -0.240 OA
ENDBRANCH  26  35
BRANCH  28  38
ATOM     38  O   UNL     1      19.041  -0.321  21.026  0.00  0.00    -0.390 OA
ATOM     39  H   UNL     1      18.380  -0.981  20.805  0.00  0.00    +0.210 HD
ENDBRANCH  28  38
BRANCH  26  40
ATOM     40  O   UNL     1      16.356   3.264  22.871  0.00  0.00    -0.343 OA
ATOM     41  C   UNL     1      16.795   4.176  21.834  0.00  0.00    +0.198 C 
ENDBRANCH  26  40
ENDBRANCH  23  24
BRANCH  23  42
ATOM     42  O   UNL     1      15.283  -1.071  24.763  0.00  0.00    -0.387 OA
ATOM     43  H   UNL     1      15.012  -1.965  24.983  0.00  0.00    +0.210 HD
ENDBRANCH  23  42
ENDBRANCH   1  23
TORSDOF 14
