REMARK VINA RESULT:    -6.069      3.760     10.296
REMARK INTER + INTRA:         -14.167
REMARK INTER:                 -10.033
REMARK INTRA:                  -4.133
REMARK UNBOUND:                -2.243
REMARK  Name = lig_assembled_31.pdb
REMARK  20 active torsions:
REMARK  status: ('A' for Active; 'I' for Inactive)
REMARK    1  A    between atoms: _2  and  _11
REMARK    2  A    between atoms: _3  and  _12
REMARK    3  A    between atoms: _4  and  _14
REMARK    4  A    between atoms: _6  and  _24
REMARK    5  A    between atoms: _8  and  _9
REMARK    6  A    between atoms: _8  and  _24
REMARK    7  A    between atoms: _11  and  _12
REMARK    8  A    between atoms: _14  and  _15
REMARK    9  A    between atoms: _20  and  _40
REMARK   10  A    between atoms: _22  and  _28
REMARK   11  A    between atoms: _23  and  _27
REMARK   12  A    between atoms: _27  and  _28
REMARK   13  A    between atoms: _30  and  _31
REMARK   14  A    between atoms: _32  and  _33
REMARK   15  A    between atoms: _34  and  _36
REMARK   16  A    between atoms: _36  and  _37
REMARK   17  A    between atoms: _36  and  _38
REMARK   18  A    between atoms: _38  and  _39
REMARK   19  A    between atoms: _38  and  _40
REMARK   20  A    between atoms: _41  and  _43
REMARK                            x       y       z     vdW  Elec       q    Type
REMARK                         _______ _______ _______ _____ _____    ______ ____
ROOT
ATOM      1  C   UNL     1      18.802   9.762  27.257  0.00  0.00    +0.401 C 
ATOM      2  O   UNL     1      17.790  10.395  26.948  0.00  0.00    -0.226 OA
ATOM      3  N   UNL     1      19.559  10.039  28.320  0.00  0.00    -0.279 N 
ATOM      4  H   UNL     1      20.365   9.456  28.496  0.00  0.00    +0.152 HD
ENDROOT
BRANCH   1   5
ATOM      5  O   UNL     1      19.208   8.659  26.442  0.00  0.00    -0.444 OA
BRANCH   5   6
ATOM      6  C   UNL     1      20.387   8.067  26.992  0.00  0.00    +0.292 C 
BRANCH   6   8
ATOM      7  N   UNL     1      19.087   6.824  28.693  0.00  0.00    -0.131 NA
ATOM      8  C   UNL     1      20.050   6.827  27.720  0.00  0.00    +0.120 A 
ATOM      9  C   UNL     1      20.567   5.557  27.595  0.00  0.00    +0.137 A 
ATOM     10  N   UNL     1      19.883   4.833  28.526  0.00  0.00    -0.250 N 
ATOM     11  N   UNL     1      18.991   5.593  29.180  0.00  0.00    -0.065 NA
BRANCH  10  12
ATOM     12  C   UNL     1      20.027   3.428  28.849  0.00  0.00    +0.164 C 
BRANCH  12  13
ATOM     13  C   UNL     1      18.674   2.766  29.061  0.00  0.00    +0.129 C 
BRANCH  13  14
ATOM     14  N   UNL     1      17.676   3.083  28.048  0.00  0.00    -0.298 N 
ATOM     15  H   UNL     1      16.969   3.782  28.221  0.00  0.00    +0.150 HD
ATOM     16  C   UNL     1      17.434   2.160  27.064  0.00  0.00    +0.300 C 
ATOM     17  O   UNL     1      18.090   1.128  26.945  0.00  0.00    -0.253 OA
ATOM     18  N   UNL     1      16.426   2.496  26.215  0.00  0.00    -0.292 N 
ATOM     19  H   UNL     1      15.859   3.323  26.338  0.00  0.00    +0.151 HD
BRANCH  18  20
ATOM     20  C   UNL     1      16.098   1.590  25.138  0.00  0.00    +0.180 C 
BRANCH  20  21
ATOM     21  C   UNL     1      16.653   2.009  23.827  0.00  0.00    +0.122 A 
ATOM     22  O   UNL     1      16.124   3.103  23.200  0.00  0.00    -0.466 OA
ATOM     23  C   UNL     1      16.812   3.258  22.035  0.00  0.00    +0.195 A 
ATOM     24  C   UNL     1      17.772   2.281  21.902  0.00  0.00    +0.041 A 
ATOM     25  C   UNL     1      17.670   1.473  23.058  0.00  0.00    +0.046 A 
ENDBRANCH  20  21
ENDBRANCH  18  20
ENDBRANCH  13  14
ENDBRANCH  12  13
ENDBRANCH  10  12
ENDBRANCH   6   8
ENDBRANCH   5   6
ENDBRANCH   1   5
BRANCH   3  26
ATOM     26  C   UNL     1      19.285  11.142  29.249  0.00  0.00    +0.141 C 
BRANCH  26  27
ATOM     27  C   UNL     1      18.801  10.637  30.604  0.00  0.00    +0.163 C 
BRANCH  27  28
ATOM     28  O   UNL     1      17.417  10.257  30.521  0.00  0.00    -0.388 OA
ATOM     29  H   UNL     1      17.138   9.878  31.358  0.00  0.00    +0.210 HD
ENDBRANCH  27  28
BRANCH  27  30
ATOM     30  C   UNL     1      19.671   9.450  31.052  0.00  0.00    +0.175 C 
BRANCH  30  31
ATOM     31  C   UNL     1      18.897   8.470  31.946  0.00  0.00    +0.176 C 
ATOM     32  O   UNL     1      18.192   9.246  32.954  0.00  0.00    -0.332 OA
ATOM     33  C   UNL     1      17.309   8.482  33.840  0.00  0.00    +0.277 C 
ATOM     34  C   UNL     1      18.089   7.329  34.518  0.00  0.00    +0.110 C 
ATOM     35  C   UNL     1      18.881   6.494  33.489  0.00  0.00    +0.143 C 
ATOM     36  C   UNL     1      19.764   7.390  32.619  0.00  0.00    +0.133 C 
BRANCH  36  37
ATOM     37  N   UNL     1      20.446   6.594  31.587  0.00  0.00    -0.308 N 
ATOM     38  H   UNL     1      19.879   6.171  30.866  0.00  0.00    +0.149 HD
ATOM     39  C   UNL     1      21.766   6.393  31.541  0.00  0.00    +0.210 C 
ATOM     40  C   UNL     1      22.600   7.029  32.669  0.00  0.00    +0.109 C 
ATOM     41  O   UNL     1      22.312   5.734  30.656  0.00  0.00    -0.276 OA
ENDBRANCH  36  37
BRANCH  33  42
ATOM     42  C   UNL     1      16.114   7.903  33.054  0.00  0.00    +0.414 C 
ATOM     43  O   UNL     1      15.271   7.213  33.627  0.00  0.00    -0.240 OA
ATOM     44  O   UNL     1      15.992   8.126  31.849  0.00  0.00    -0.240 OA
ENDBRANCH  33  42
BRANCH  35  45
ATOM     45  O   UNL     1      19.701   5.543  34.170  0.00  0.00    -0.390 OA
ATOM     46  H   UNL     1      20.226   5.991  34.837  0.00  0.00    +0.210 HD
ENDBRANCH  35  45
BRANCH  33  47
ATOM     47  O   UNL     1      16.826   9.377  34.874  0.00  0.00    -0.343 OA
ATOM     48  C   UNL     1      16.359  10.666  34.399  0.00  0.00    +0.198 C 
ENDBRANCH  33  47
ENDBRANCH  30  31
BRANCH  30  49
ATOM     49  O   UNL     1      20.846   9.926  31.737  0.00  0.00    -0.387 OA
ATOM     50  H   UNL     1      21.631   9.577  31.309  0.00  0.00    +0.210 HD
ENDBRANCH  30  49
ENDBRANCH  27  30
ENDBRANCH  26  27
ENDBRANCH   3  26
TORSDOF 18
