REMARK VINA RESULT:    -5.543      1.696      4.010
REMARK INTER + INTRA:         -12.468
REMARK INTER:                 -10.977
REMARK INTRA:                  -1.492
REMARK UNBOUND:                -1.902
REMARK  Name = lig_assembled_13.pdb
REMARK  20 active torsions:
REMARK  status: ('A' for Active; 'I' for Inactive)
REMARK    1  A    between atoms: _2  and  _9
REMARK    2  A    between atoms: _4  and  _18
REMARK    3  A    between atoms: _5  and  _11
REMARK    4  A    between atoms: _6  and  _7
REMARK    5  A    between atoms: _6  and  _18
REMARK    6  A    between atoms: _9  and  _10
REMARK    7  A    between atoms: _10  and  _12
REMARK    8  A    between atoms: _11  and  _12
REMARK    9  A    between atoms: _14  and  _34
REMARK   10  A    between atoms: _16  and  _22
REMARK   11  A    between atoms: _17  and  _21
REMARK   12  A    between atoms: _21  and  _22
REMARK   13  A    between atoms: _24  and  _25
REMARK   14  A    between atoms: _26  and  _27
REMARK   15  A    between atoms: _28  and  _30
REMARK   16  A    between atoms: _30  and  _31
REMARK   17  A    between atoms: _30  and  _32
REMARK   18  A    between atoms: _32  and  _33
REMARK   19  A    between atoms: _32  and  _34
REMARK   20  A    between atoms: _35  and  _37
REMARK                            x       y       z     vdW  Elec       q    Type
REMARK                         _______ _______ _______ _____ _____    ______ ____
ROOT
ATOM      1  C   UNL     1       2.783   2.741  32.681  0.00  0.00    +0.163 C 
ENDROOT
BRANCH   1   2
ATOM      2  O   UNL     1       3.561   1.791  31.934  0.00  0.00    -0.388 OA
ATOM      3  H   UNL     1       3.062   1.500  31.167  0.00  0.00    +0.210 HD
ENDBRANCH   1   2
BRANCH   1   4
ATOM      4  C   UNL     1       3.690   3.772  33.374  0.00  0.00    +0.175 C 
BRANCH   4   5
ATOM      5  C   UNL     1       5.118   3.243  33.574  0.00  0.00    +0.176 C 
ATOM      6  O   UNL     1       5.025   1.872  34.049  0.00  0.00    -0.332 OA
ATOM      7  C   UNL     1       6.300   1.164  34.196  0.00  0.00    +0.277 C 
ATOM      8  C   UNL     1       7.263   1.967  35.104  0.00  0.00    +0.110 C 
ATOM      9  C   UNL     1       7.370   3.440  34.657  0.00  0.00    +0.143 C 
ATOM     10  C   UNL     1       5.986   4.078  34.533  0.00  0.00    +0.133 C 
BRANCH  10  11
ATOM     11  N   UNL     1       6.097   5.454  34.024  0.00  0.00    -0.308 N 
ATOM     12  H   UNL     1       6.362   5.579  33.057  0.00  0.00    +0.149 HD
ATOM     13  C   UNL     1       5.869   6.548  34.755  0.00  0.00    +0.210 C 
ATOM     14  C   UNL     1       5.492   6.325  36.232  0.00  0.00    +0.109 C 
ATOM     15  O   UNL     1       5.955   7.688  34.298  0.00  0.00    -0.276 OA
ENDBRANCH  10  11
BRANCH   7  16
ATOM     16  C   UNL     1       6.959   0.933  32.820  0.00  0.00    +0.414 C 
ATOM     17  O   UNL     1       8.176   0.768  32.736  0.00  0.00    -0.240 OA
ATOM     18  O   UNL     1       6.276   0.911  31.796  0.00  0.00    -0.240 OA
ENDBRANCH   7  16
BRANCH   7  19
ATOM     19  O   UNL     1       6.033  -0.114  34.830  0.00  0.00    -0.343 OA
ATOM     20  C   UNL     1       5.581  -1.160  33.933  0.00  0.00    +0.198 C 
ENDBRANCH   7  19
BRANCH   9  21
ATOM     21  O   UNL     1       8.144   4.176  35.605  0.00  0.00    -0.390 OA
ATOM     22  H   UNL     1       8.633   4.867  35.153  0.00  0.00    +0.210 HD
ENDBRANCH   9  21
ENDBRANCH   4   5
BRANCH   4  23
ATOM     23  O   UNL     1       3.122   4.160  34.641  0.00  0.00    -0.387 OA
ATOM     24  H   UNL     1       3.435   5.037  34.877  0.00  0.00    +0.210 HD
ENDBRANCH   4  23
ENDBRANCH   1   4
BRANCH   1  25
ATOM     25  C   UNL     1       1.809   3.461  31.754  0.00  0.00    +0.141 C 
BRANCH  25  28
ATOM     26  C   UNL     1       1.524   3.702  29.311  0.00  0.00    +0.401 C 
ATOM     27  O   UNL     1       0.299   3.828  29.371  0.00  0.00    -0.226 OA
ATOM     28  N   UNL     1       2.308   3.521  30.374  0.00  0.00    -0.279 N 
ATOM     29  H   UNL     1       3.302   3.418  30.223  0.00  0.00    +0.152 HD
BRANCH  26  30
ATOM     30  O   UNL     1       2.165   3.746  28.033  0.00  0.00    -0.444 OA
BRANCH  30  31
ATOM     31  C   UNL     1       1.332   3.111  27.060  0.00  0.00    +0.292 C 
BRANCH  31  33
ATOM     32  N   UNL     1       0.152   4.898  25.819  0.00  0.00    -0.131 NA
ATOM     33  C   UNL     1       1.164   3.979  25.881  0.00  0.00    +0.120 A 
ATOM     34  C   UNL     1       1.899   4.039  24.721  0.00  0.00    +0.137 A 
ATOM     35  N   UNL     1       1.243   4.967  23.965  0.00  0.00    -0.241 N 
ATOM     36  N   UNL     1       0.224   5.515  24.645  0.00  0.00    -0.065 NA
BRANCH  35  37
ATOM     37  C   UNL     1       1.583   5.451  22.646  0.00  0.00    +0.265 C 
BRANCH  37  38
ATOM     38  C   UNL     1       1.278   4.440  21.579  0.00  0.00    +0.329 C 
ATOM     39  O   UNL     1       2.088   3.868  20.864  0.00  0.00    -0.249 OA
BRANCH  38  40
ATOM     40  O   UNL     1      -0.079   4.328  21.448  0.00  0.00    -0.464 OA
BRANCH  40  41
ATOM     41  C   UNL     1      -0.516   3.408  20.437  0.00  0.00    +0.229 C 
ATOM     42  C   UNL     1      -1.727   4.012  19.750  0.00  0.00    +0.048 C 
ENDBRANCH  40  41
ENDBRANCH  38  40
ENDBRANCH  37  38
ENDBRANCH  35  37
ENDBRANCH  31  33
ENDBRANCH  30  31
ENDBRANCH  26  30
ENDBRANCH  25  28
ENDBRANCH   1  25
TORSDOF 17
