REMARK VINA RESULT:    -5.201      5.402      7.221
REMARK INTER + INTRA:         -13.060
REMARK INTER:                 -10.101
REMARK INTRA:                  -2.960
REMARK UNBOUND:                -3.450
REMARK  Name = lig_assembled_66.pdb
REMARK  18 active torsions:
REMARK  status: ('A' for Active; 'I' for Inactive)
REMARK    1  A    between atoms: _2  and  _10
REMARK    2  A    between atoms: _5  and  _21
REMARK    3  A    between atoms: _7  and  _8
REMARK    4  A    between atoms: _7  and  _21
REMARK    5  A    between atoms: _10  and  _11
REMARK    6  A    between atoms: _15  and  _16
REMARK    7  A    between atoms: _17  and  _37
REMARK    8  A    between atoms: _19  and  _25
REMARK    9  A    between atoms: _20  and  _24
REMARK   10  A    between atoms: _24  and  _25
REMARK   11  A    between atoms: _27  and  _28
REMARK   12  A    between atoms: _29  and  _30
REMARK   13  A    between atoms: _31  and  _33
REMARK   14  A    between atoms: _33  and  _34
REMARK   15  A    between atoms: _33  and  _35
REMARK   16  A    between atoms: _35  and  _36
REMARK   17  A    between atoms: _35  and  _37
REMARK   18  A    between atoms: _38  and  _40
REMARK                            x       y       z     vdW  Elec       q    Type
REMARK                         _______ _______ _______ _____ _____    ______ ____
ROOT
ATOM      1  C   UNL     1       2.805  -0.236  28.454  0.00  0.00    +0.163 C 
ENDROOT
BRANCH   1   2
ATOM      2  O   UNL     1       3.719  -0.006  29.538  0.00  0.00    -0.388 OA
ATOM      3  H   UNL     1       4.281   0.744  29.330  0.00  0.00    +0.210 HD
ENDBRANCH   1   2
BRANCH   1   4
ATOM      4  C   UNL     1       2.693  -1.738  28.138  0.00  0.00    +0.175 C 
BRANCH   4   5
ATOM      5  C   UNL     1       3.844  -2.229  27.249  0.00  0.00    +0.176 C 
ATOM      6  O   UNL     1       5.071  -2.159  28.026  0.00  0.00    -0.332 OA
ATOM      7  C   UNL     1       6.269  -2.691  27.369  0.00  0.00    +0.277 C 
ATOM      8  C   UNL     1       6.481  -2.010  25.995  0.00  0.00    +0.110 C 
ATOM      9  C   UNL     1       5.193  -2.031  25.145  0.00  0.00    +0.143 C 
ATOM     10  C   UNL     1       4.010  -1.458  25.926  0.00  0.00    +0.133 C 
BRANCH  10  11
ATOM     11  N   UNL     1       2.772  -1.564  25.137  0.00  0.00    -0.308 N 
ATOM     12  H   UNL     1       2.377  -2.484  25.001  0.00  0.00    +0.149 HD
ATOM     13  C   UNL     1       2.138  -0.524  24.589  0.00  0.00    +0.210 C 
ATOM     14  C   UNL     1       2.780   0.861  24.792  0.00  0.00    +0.109 C 
ATOM     15  O   UNL     1       1.094  -0.641  23.945  0.00  0.00    -0.276 OA
ENDBRANCH  10  11
BRANCH   7  16
ATOM     16  C   UNL     1       6.154  -4.217  27.176  0.00  0.00    +0.414 C 
ATOM     17  O   UNL     1       6.668  -4.759  26.198  0.00  0.00    -0.240 OA
ATOM     18  O   UNL     1       5.549  -4.907  27.998  0.00  0.00    -0.240 OA
ENDBRANCH   7  16
BRANCH   7  19
ATOM     19  O   UNL     1       7.413  -2.390  28.210  0.00  0.00    -0.343 OA
ATOM     20  C   UNL     1       7.088  -1.974  29.561  0.00  0.00    +0.198 C 
ENDBRANCH   7  19
BRANCH   9  21
ATOM     21  O   UNL     1       5.388  -1.264  23.956  0.00  0.00    -0.390 OA
ATOM     22  H   UNL     1       6.123  -0.659  24.082  0.00  0.00    +0.210 HD
ENDBRANCH   9  21
ENDBRANCH   4   5
BRANCH   4  23
ATOM     23  O   UNL     1       1.426  -2.021  27.512  0.00  0.00    -0.387 OA
ATOM     24  H   UNL     1       1.530  -2.745  26.891  0.00  0.00    +0.210 HD
ENDBRANCH   4  23
ENDBRANCH   1   4
BRANCH   1  25
ATOM     25  C   UNL     1       1.427   0.314  28.807  0.00  0.00    +0.141 C 
BRANCH  25  28
ATOM     26  C   UNL     1      -0.264   0.928  27.113  0.00  0.00    +0.401 C 
ATOM     27  O   UNL     1      -0.993  -0.037  27.354  0.00  0.00    -0.226 OA
ATOM     28  N   UNL     1       0.888   1.167  27.740  0.00  0.00    -0.279 N 
ATOM     29  H   UNL     1       1.421   1.981  27.466  0.00  0.00    +0.152 HD
BRANCH  26  30
ATOM     30  O   UNL     1      -0.657   1.860  26.102  0.00  0.00    -0.444 OA
BRANCH  30  31
ATOM     31  C   UNL     1      -0.409   3.192  26.557  0.00  0.00    +0.292 C 
BRANCH  31  33
ATOM     32  N   UNL     1       1.853   3.938  25.873  0.00  0.00    -0.131 NA
ATOM     33  C   UNL     1       0.505   3.891  25.632  0.00  0.00    +0.120 A 
ATOM     34  C   UNL     1       0.238   4.531  24.443  0.00  0.00    +0.137 A 
ATOM     35  N   UNL     1       1.469   4.895  23.980  0.00  0.00    -0.247 N 
ATOM     36  N   UNL     1       2.436   4.554  24.853  0.00  0.00    -0.065 NA
BRANCH  35  37
ATOM     37  C   UNL     1       1.814   5.324  22.637  0.00  0.00    +0.180 C 
BRANCH  37  38
ATOM     38  C   UNL     1       1.755   4.213  21.621  0.00  0.00    -0.025 A 
ATOM     39  C   UNL     1       1.919   2.878  22.019  0.00  0.00    +0.005 A 
ATOM     40  C   UNL     1       1.782   1.836  21.099  0.00  0.00    +0.002 A 
ATOM     41  C   UNL     1       1.498   2.118  19.762  0.00  0.00    +0.019 A 
ATOM     42  C   UNL     1       1.367   3.444  19.341  0.00  0.00    +0.052 A 
ATOM     43  C   UNL     1       1.493   4.487  20.268  0.00  0.00    +0.024 A 
BRANCH  42  44
ATOM     44  C   UNL     1       1.092   3.736  17.965  0.00  0.00    +0.099 C 
ATOM     45  N   UNL     1       0.877   3.977  16.849  0.00  0.00    -0.191 NA
ENDBRANCH  42  44
ENDBRANCH  37  38
ENDBRANCH  35  37
ENDBRANCH  31  33
ENDBRANCH  30  31
ENDBRANCH  26  30
ENDBRANCH  25  28
ENDBRANCH   1  25
TORSDOF 16
