REMARK VINA RESULT:    -5.715      3.461      8.714
REMARK INTER + INTRA:         -16.338
REMARK INTER:                  -9.548
REMARK INTRA:                  -6.790
REMARK UNBOUND:                -5.110
REMARK SMILES CC(=O)N[C@@H]1[C@@H](O)C[C@](O)(C(=O)O)O[C@H]1C(O)[C@H](O)CNC(=O)OCc1cn([C@@H](C)C(=O)OCc2ccccc2)nn1
REMARK SMILES IDX 24 1 22 2 21 3 23 5 20 6 18 7 16 8 15 9 9 10 8 11 14 12 6 13
REMARK SMILES IDX 5 14 10 15 11 17 12 18 13 19 7 21 4 23 2 24 1 26 3 27 17 28
REMARK SMILES IDX 19 30 25 32 26 33 27 34 42 35 28 36 41 37 29 38 30 39 31 40
REMARK SMILES IDX 32 41 33 42 34 43 35 44 36 45 40 46 37 47 39 48 38 49
REMARK H PARENT 21 4 10 16 13 20 7 22 4 25 17 29 19 31
REMARK Flexibility Score: inf
ROOT
ATOM      1  O   UNL     1      25.990  41.161   3.998  1.00  0.00    -0.443 OA
ENDROOT
BRANCH   1   2
ATOM      2  C   UNL     1      27.276  40.602   4.184  1.00  0.00     0.407 C 
ATOM      3  N   UNL     1      28.325  41.383   4.714  1.00  0.00    -0.319 N 
ATOM      4  H   UNL     1      28.073  42.397   4.937  1.00  0.00     0.167 HD
ATOM      5  O   UNL     1      27.396  39.408   3.852  1.00  0.00    -0.225 OA
BRANCH   3   6
ATOM      6  C   UNL     1      29.643  40.882   4.944  1.00  0.00     0.154 C 
BRANCH   6   7
ATOM      7  C   UNL     1      29.959  40.770   6.398  1.00  0.00     0.165 C 
BRANCH   7   8
ATOM      8  C   UNL     1      29.873  39.312   6.842  1.00  0.00     0.176 C 
BRANCH   8   9
ATOM      9  C   UNL     1      31.127  38.810   7.488  1.00  0.00     0.178 C 
ATOM     10  C   UNL     1      30.624  39.385   9.702  1.00  0.00     0.269 C 
ATOM     11  C   UNL     1      31.526  40.570   9.572  1.00  0.00     0.112 C 
ATOM     12  O   UNL     1      30.878  38.380   8.802  1.00  0.00    -0.332 OA
ATOM     13  C   UNL     1      32.769  40.160   8.809  1.00  0.00     0.145 C 
ATOM     14  C   UNL     1      32.305  39.726   7.427  1.00  0.00     0.142 C 
BRANCH  10  15
ATOM     15  O   UNL     1      29.306  39.779   9.659  1.00  0.00    -0.357 OA
ATOM     16  H   UNL     1      28.978  40.141  10.528  1.00  0.00     0.214 HD
ENDBRANCH  10  15
BRANCH  10  17
ATOM     17  C   UNL     1      30.855  38.775  11.062  1.00  0.00     0.364 C 
ATOM     18  O   UNL     1      31.799  37.966  11.250  1.00  0.00    -0.246 OA
BRANCH  17  19
ATOM     19  O   UNL     1      30.049  39.076  12.150  1.00  0.00    -0.477 OA
ATOM     20  H   UNL     1      30.344  39.747  12.876  1.00  0.00     0.296 HD
ENDBRANCH  17  19
ENDBRANCH  10  17
BRANCH  13  21
ATOM     21  O   UNL     1      33.673  41.201   8.748  1.00  0.00    -0.391 OA
ATOM     22  H   UNL     1      34.575  40.953   9.073  1.00  0.00     0.211 HD
ENDBRANCH  13  21
BRANCH  14  23
ATOM     23  N   UNL     1      33.440  39.147   6.702  1.00  0.00    -0.348 N 
ATOM     24  C   UNL     1      33.845  39.607   5.414  1.00  0.00     0.217 C 
ATOM     25  H   UNL     1      34.001  38.357   7.118  1.00  0.00     0.163 HD
ATOM     26  C   UNL     1      35.011  38.975   4.724  1.00  0.00     0.114 C 
ATOM     27  O   UNL     1      33.218  40.544   4.867  1.00  0.00    -0.275 OA
ENDBRANCH  14  23
ENDBRANCH   8   9
BRANCH   8  28
ATOM     28  O   UNL     1      29.608  38.518   5.720  1.00  0.00    -0.388 OA
ATOM     29  H   UNL     1      29.799  39.046   4.898  1.00  0.00     0.211 HD
ENDBRANCH   8  28
ENDBRANCH   7   8
BRANCH   7  30
ATOM     30  O   UNL     1      29.056  41.535   7.136  1.00  0.00    -0.388 OA
ATOM     31  H   UNL     1      28.757  42.353   6.641  1.00  0.00     0.211 HD
ENDBRANCH   7  30
ENDBRANCH   6   7
ENDBRANCH   3   6
ENDBRANCH   1   2
BRANCH   1  32
ATOM     32  C   UNL     1      25.399  41.868   5.069  1.00  0.00     0.294 C 
BRANCH  32  33
ATOM     33  C   UNL     1      25.225  41.021   6.264  1.00  0.00     0.120 A 
ATOM     34  C   UNL     1      24.133  40.276   6.644  1.00  0.00     0.139 A 
ATOM     35  N   UNL     1      26.146  40.824   7.222  1.00  0.00    -0.132 NA
ATOM     36  N   UNL     1      24.410  39.652   7.813  1.00  0.00    -0.238 N 
ATOM     37  N   UNL     1      25.626  39.999   8.136  1.00  0.00    -0.066 NA
BRANCH  36  38
ATOM     38  C   UNL     1      23.520  38.781   8.533  1.00  0.00     0.215 C 
ATOM     39  C   UNL     1      23.435  37.437   7.845  1.00  0.00     0.046 C 
BRANCH  38  40
ATOM     40  C   UNL     1      23.960  38.679   9.931  1.00  0.00     0.331 C 
ATOM     41  O   UNL     1      23.713  39.628  10.734  1.00  0.00    -0.250 OA
BRANCH  40  42
ATOM     42  O   UNL     1      24.640  37.583  10.419  1.00  0.00    -0.459 OA
BRANCH  42  43
ATOM     43  C   UNL     1      26.019  37.459  10.572  1.00  0.00     0.268 C 
BRANCH  43  44
ATOM     44  C   UNL     1      26.548  36.556   9.512  1.00  0.00    -0.011 A 
ATOM     45  C   UNL     1      26.153  35.238   9.460  1.00  0.00     0.007 A 
ATOM     46  C   UNL     1      27.428  37.036   8.580  1.00  0.00     0.007 A 
ATOM     47  C   UNL     1      26.635  34.403   8.482  1.00  0.00     0.000 A 
ATOM     48  C   UNL     1      27.924  36.227   7.596  1.00  0.00     0.000 A 
ATOM     49  C   UNL     1      27.528  34.913   7.549  1.00  0.00     0.000 A 
ENDBRANCH  43  44
ENDBRANCH  42  43
ENDBRANCH  40  42
ENDBRANCH  38  40
ENDBRANCH  36  38
ENDBRANCH  32  33
ENDBRANCH   1  32
TORSDOF 19
BEGIN_RES LYS A 131
REMARK  4 active torsions:
REMARK  status: ('A' for Active; 'I' for Inactive)
REMARK    1  A    between atoms: CA   and  CB  
REMARK    2  A    between atoms: CB   and  CG  
REMARK    3  A    between atoms: CG   and  CD  
REMARK    4  A    between atoms: CD   and  CE  
ROOT
ATOM      1  CA  LYS A 131      29.867  25.555  16.977  1.00 20.52     0.186 C 
ENDROOT
BRANCH   1   2
ATOM      2  CB  LYS A 131      28.345  25.722  17.026  1.00 20.94     0.034 C 
BRANCH   2   3
ATOM      3  CG  LYS A 131      27.601  24.402  16.895  1.00 22.96     0.005 C 
BRANCH   3   4
ATOM      4  CD  LYS A 131      26.670  24.159  18.051  1.00 24.33     0.041 C 
BRANCH   4   5
ATOM      5  CE  LYS A 131      25.404  24.990  17.868  1.00 26.91     0.338 C 
ATOM      6  NZ  LYS A 131      24.525  24.376  16.845  1.00 27.40     0.618 N 
ENDBRANCH   4   5
ENDBRANCH   3   4
ENDBRANCH   2   3
ENDBRANCH   1   2
END_RES LYS A 131
BEGIN_RES LYS A 135
REMARK  4 active torsions:
REMARK  status: ('A' for Active; 'I' for Inactive)
REMARK    5  A    between atoms: CA   and  CB  
REMARK    6  A    between atoms: CB   and  CG  
REMARK    7  A    between atoms: CG   and  CD  
REMARK    8  A    between atoms: CD   and  CE  
ROOT
ATOM      7  CA  LYS A 135      33.193  34.663   9.290  1.00 25.02     0.186 C 
ENDROOT
BRANCH   7   8
ATOM      8  CB  LYS A 135      32.060  35.360  10.034  1.00 26.63     0.034 C 
BRANCH   8   9
ATOM      9  CG  LYS A 135      30.689  34.882   9.629  1.00 29.45     0.005 C 
BRANCH   9  10
ATOM     10  CD  LYS A 135      29.723  34.968  10.800  1.00 32.00     0.041 C 
BRANCH  10  11
ATOM     11  CE  LYS A 135      30.462  34.794  12.114  1.00 34.25     0.338 C 
ATOM     12  NZ  LYS A 135      29.533  34.374  13.200  1.00 35.99     0.618 N 
ENDBRANCH  10  11
ENDBRANCH   9  10
ENDBRANCH   8   9
ENDBRANCH   7   8
END_RES LYS A 135
