REMARK VINA RESULT:    -4.688      7.607     13.043
REMARK INTER + INTRA:         -15.211
REMARK INTER:                  -8.702
REMARK INTRA:                  -6.509
REMARK UNBOUND:                -6.275
REMARK SMILES CC(=O)N[C@@H]1[C@@H](O)C[C@](O)(C(=O)O)O[C@H]1C(O)[C@H](O)CNC(=O)OCc1cn(Cc2ccccc2OC(C)=O)nn1
REMARK SMILES IDX 21 1 22 2 23 3 20 5 18 6 16 7 15 8 9 9 8 10 14 11 6 12 5 13
REMARK SMILES IDX 10 14 11 16 12 17 13 18 7 20 4 22 2 23 1 25 3 26 17 27 19 29
REMARK SMILES IDX 24 31 25 32 26 33 27 34 41 35 28 36 40 37 29 38 30 39 35 40
REMARK SMILES IDX 31 41 34 42 32 43 33 44 36 45 37 46 39 47 38 48
REMARK H PARENT 21 4 10 15 13 19 7 21 4 24 17 28 19 30
REMARK Flexibility Score: inf
ROOT
ATOM      1  N   UNL     1      26.233  32.042  18.741  1.00  0.00    -0.319 N 
ATOM      2  C   UNL     1      25.789  33.038  17.820  1.00  0.00     0.407 C 
ATOM      3  O   UNL     1      25.727  34.221  18.215  1.00  0.00    -0.225 OA
ATOM      4  H   UNL     1      26.279  31.062  18.402  1.00  0.00     0.167 HD
ENDROOT
BRANCH   1   5
ATOM      5  C   UNL     1      26.596  32.391  20.089  1.00  0.00     0.154 C 
BRANCH   5   6
ATOM      6  C   UNL     1      28.099  32.144  20.256  1.00  0.00     0.165 C 
BRANCH   6   7
ATOM      7  C   UNL     1      28.412  30.733  19.841  1.00  0.00     0.176 C 
BRANCH   7   8
ATOM      8  C   UNL     1      29.381  30.134  20.823  1.00  0.00     0.178 C 
ATOM      9  C   UNL     1      31.550  30.393  21.621  1.00  0.00     0.269 C 
ATOM     10  C   UNL     1      32.002  29.109  20.966  1.00  0.00     0.112 C 
ATOM     11  O   UNL     1      30.512  30.887  20.848  1.00  0.00    -0.332 OA
ATOM     12  C   UNL     1      30.879  28.130  21.025  1.00  0.00     0.145 C 
ATOM     13  C   UNL     1      29.565  28.684  20.550  1.00  0.00     0.142 C 
BRANCH   9  14
ATOM     14  O   UNL     1      32.623  31.296  21.455  1.00  0.00    -0.357 OA
ATOM     15  H   UNL     1      32.851  31.748  22.299  1.00  0.00     0.214 HD
ENDBRANCH   9  14
BRANCH   9  16
ATOM     16  C   UNL     1      31.222  30.247  23.052  1.00  0.00     0.364 C 
ATOM     17  O   UNL     1      30.264  30.828  23.617  1.00  0.00    -0.246 OA
BRANCH  16  18
ATOM     18  O   UNL     1      32.003  29.423  23.840  1.00  0.00    -0.477 OA
ATOM     19  H   UNL     1      32.998  29.584  24.019  1.00  0.00     0.296 HD
ENDBRANCH  16  18
ENDBRANCH   9  16
BRANCH  12  20
ATOM     20  O   UNL     1      31.256  27.023  20.233  1.00  0.00    -0.391 OA
ATOM     21  H   UNL     1      32.169  26.727  20.525  1.00  0.00     0.211 HD
ENDBRANCH  12  20
BRANCH  13  22
ATOM     22  N   UNL     1      28.502  27.949  21.210  1.00  0.00    -0.348 N 
ATOM     23  C   UNL     1      27.466  27.293  20.478  1.00  0.00     0.217 C 
ATOM     24  H   UNL     1      28.470  27.881  22.249  1.00  0.00     0.163 HD
ATOM     25  C   UNL     1      26.407  26.557  21.204  1.00  0.00     0.114 C 
ATOM     26  O   UNL     1      27.463  27.345  19.230  1.00  0.00    -0.275 OA
ENDBRANCH  13  22
ENDBRANCH   7   8
BRANCH   7  27
ATOM     27  O   UNL     1      28.942  30.679  18.546  1.00  0.00    -0.388 OA
ATOM     28  H   UNL     1      28.470  29.975  18.043  1.00  0.00     0.211 HD
ENDBRANCH   7  27
ENDBRANCH   6   7
BRANCH   6  29
ATOM     29  O   UNL     1      28.415  32.430  21.566  1.00  0.00    -0.388 OA
ATOM     30  H   UNL     1      29.376  32.420  21.757  1.00  0.00     0.211 HD
ENDBRANCH   6  29
ENDBRANCH   5   6
ENDBRANCH   1   5
BRANCH   2  31
ATOM     31  O   UNL     1      25.443  32.680  16.528  1.00  0.00    -0.443 OA
BRANCH  31  32
ATOM     32  C   UNL     1      26.221  33.055  15.416  1.00  0.00     0.294 C 
BRANCH  32  33
ATOM     33  C   UNL     1      27.524  32.377  15.496  1.00  0.00     0.120 A 
ATOM     34  C   UNL     1      28.778  32.956  15.283  1.00  0.00     0.138 A 
ATOM     35  N   UNL     1      27.788  31.077  15.784  1.00  0.00    -0.132 NA
ATOM     36  N   UNL     1      29.691  32.006  15.448  1.00  0.00    -0.248 N 
ATOM     37  N   UNL     1      29.089  30.870  15.752  1.00  0.00    -0.067 NA
BRANCH  36  38
ATOM     38  C   UNL     1      31.124  32.175  15.324  1.00  0.00     0.185 C 
BRANCH  38  39
ATOM     39  C   UNL     1      31.509  33.223  16.329  1.00  0.00     0.016 A 
ATOM     40  C   UNL     1      32.226  34.308  15.899  1.00  0.00     0.135 A 
ATOM     41  C   UNL     1      31.140  33.074  17.642  1.00  0.00     0.009 A 
ATOM     42  C   UNL     1      32.602  35.290  16.779  1.00  0.00     0.047 A 
ATOM     43  C   UNL     1      31.517  34.069  18.551  1.00  0.00     0.001 A 
ATOM     44  C   UNL     1      32.233  35.144  18.100  1.00  0.00     0.004 A 
BRANCH  40  45
ATOM     45  O   UNL     1      32.579  34.421  14.563  1.00  0.00    -0.426 OA
BRANCH  45  46
ATOM     46  C   UNL     1      31.891  35.358  13.793  1.00  0.00     0.308 C 
ATOM     47  O   UNL     1      30.726  35.686  14.117  1.00  0.00    -0.252 OA
ATOM     48  C   UNL     1      32.519  35.969  12.598  1.00  0.00     0.139 C 
ENDBRANCH  45  46
ENDBRANCH  40  45
ENDBRANCH  38  39
ENDBRANCH  36  38
ENDBRANCH  32  33
ENDBRANCH  31  32
ENDBRANCH   2  31
TORSDOF 18
BEGIN_RES LYS A 131
REMARK  4 active torsions:
REMARK  status: ('A' for Active; 'I' for Inactive)
REMARK    1  A    between atoms: CA   and  CB  
REMARK    2  A    between atoms: CB   and  CG  
REMARK    3  A    between atoms: CG   and  CD  
REMARK    4  A    between atoms: CD   and  CE  
ROOT
ATOM      1  CA  LYS A 131      29.867  25.555  16.977  1.00 20.52     0.186 C 
ENDROOT
BRANCH   1   2
ATOM      2  CB  LYS A 131      28.345  25.722  17.026  1.00 20.94     0.034 C 
BRANCH   2   3
ATOM      3  CG  LYS A 131      27.600  24.418  16.786  1.00 22.96     0.005 C 
BRANCH   3   4
ATOM      4  CD  LYS A 131      26.953  23.896  18.039  1.00 24.33     0.041 C 
BRANCH   4   5
ATOM      5  CE  LYS A 131      25.561  24.503  18.184  1.00 26.91     0.338 C 
ATOM      6  NZ  LYS A 131      24.811  24.393  16.911  1.00 27.40     0.618 N 
ENDBRANCH   4   5
ENDBRANCH   3   4
ENDBRANCH   2   3
ENDBRANCH   1   2
END_RES LYS A 131
BEGIN_RES LYS A 135
REMARK  4 active torsions:
REMARK  status: ('A' for Active; 'I' for Inactive)
REMARK    5  A    between atoms: CA   and  CB  
REMARK    6  A    between atoms: CB   and  CG  
REMARK    7  A    between atoms: CG   and  CD  
REMARK    8  A    between atoms: CD   and  CE  
ROOT
ATOM      7  CA  LYS A 135      33.193  34.663   9.290  1.00 25.02     0.186 C 
ENDROOT
BRANCH   7   8
ATOM      8  CB  LYS A 135      32.060  35.360  10.034  1.00 26.63     0.034 C 
BRANCH   8   9
ATOM      9  CG  LYS A 135      30.800  35.500   9.219  1.00 29.45     0.005 C 
BRANCH   9  10
ATOM     10  CD  LYS A 135      30.133  34.147   9.026  1.00 32.00     0.041 C 
BRANCH  10  11
ATOM     11  CE  LYS A 135      28.677  34.321   8.640  1.00 34.25     0.338 C 
ATOM     12  NZ  LYS A 135      27.774  33.757   9.681  1.00 35.99     0.618 N 
ENDBRANCH  10  11
ENDBRANCH   9  10
ENDBRANCH   8   9
ENDBRANCH   7   8
END_RES LYS A 135
