REMARK VINA RESULT:    -4.043      6.120     11.807
REMARK INTER + INTRA:         -14.355
REMARK INTER:                  -7.970
REMARK INTRA:                  -6.385
REMARK UNBOUND:                -5.938
REMARK SMILES CCOC(CCn1cc(COC(=O)NC[C@@H](O)C(O)[C@@H]2O[C@@](O)(C(=O)O)C[C@H](O)[C@H]2NC(C)=O)nn1)OCC
REMARK SMILES IDX 11 1 12 2 14 3 13 5 15 6 16 7 18 8 20 9 22 10 27 11 21 12
REMARK SMILES IDX 28 13 30 14 23 15 24 17 25 18 26 19 29 21 31 23 32 24 33 26
REMARK SMILES IDX 34 27 19 28 17 30 10 32 9 33 8 34 35 35 7 36 36 37 6 38 5 39
REMARK SMILES IDX 4 40 3 41 2 42 1 43 37 44 38 45 39 46
REMARK H PARENT 14 4 23 16 26 20 29 22 31 25 19 29 17 31
REMARK Flexibility Score: inf
ROOT
ATOM      1  O   UNL     1      30.250  38.962   9.439  1.00  0.00    -0.443 OA
ENDROOT
BRANCH   1   2
ATOM      2  C   UNL     1      29.458  39.485   8.406  1.00  0.00     0.407 C 
ATOM      3  N   UNL     1      28.273  38.847   7.982  1.00  0.00    -0.319 N 
ATOM      4  H   UNL     1      28.023  37.953   8.514  1.00  0.00     0.167 HD
ATOM      5  O   UNL     1      29.835  40.530   7.871  1.00  0.00    -0.225 OA
BRANCH   3   6
ATOM      6  C   UNL     1      27.385  39.259   6.942  1.00  0.00     0.154 C 
BRANCH   6   7
ATOM      7  C   UNL     1      25.995  39.486   7.463  1.00  0.00     0.165 C 
BRANCH   7   8
ATOM      8  C   UNL     1      25.703  38.320   8.404  1.00  0.00     0.176 C 
BRANCH   8   9
ATOM      9  C   UNL     1      24.279  37.868   8.308  1.00  0.00     0.178 C 
ATOM     10  C   UNL     1      22.192  38.448   9.138  1.00  0.00     0.269 C 
ATOM     11  C   UNL     1      21.717  37.085   8.755  1.00  0.00     0.112 C 
ATOM     12  O   UNL     1      23.360  38.856   8.510  1.00  0.00    -0.332 OA
ATOM     13  C   UNL     1      22.778  36.024   8.747  1.00  0.00     0.145 C 
ATOM     14  C   UNL     1      24.065  36.665   9.220  1.00  0.00     0.142 C 
BRANCH  10  15
ATOM     15  O   UNL     1      22.283  38.564  10.528  1.00  0.00    -0.357 OA
ATOM     16  H   UNL     1      22.848  39.373  10.711  1.00  0.00     0.214 HD
ENDBRANCH  10  15
BRANCH  10  17
ATOM     17  C   UNL     1      21.138  39.404   8.693  1.00  0.00     0.364 C 
ATOM     18  O   UNL     1      20.014  39.424   9.237  1.00  0.00    -0.246 OA
BRANCH  17  19
ATOM     19  O   UNL     1      21.431  40.290   7.639  1.00  0.00    -0.477 OA
ATOM     20  H   UNL     1      20.671  40.451   6.980  1.00  0.00     0.296 HD
ENDBRANCH  17  19
ENDBRANCH  10  17
BRANCH  13  21
ATOM     21  O   UNL     1      22.439  34.899   9.488  1.00  0.00    -0.391 OA
ATOM     22  H   UNL     1      23.055  34.879  10.265  1.00  0.00     0.211 HD
ENDBRANCH  13  21
BRANCH  14  23
ATOM     23  N   UNL     1      25.205  35.787   9.059  1.00  0.00    -0.348 N 
ATOM     24  C   UNL     1      25.794  35.193  10.207  1.00  0.00     0.217 C 
ATOM     25  H   UNL     1      25.629  35.555   8.144  1.00  0.00     0.163 HD
ATOM     26  C   UNL     1      26.957  34.286  10.137  1.00  0.00     0.114 C 
ATOM     27  O   UNL     1      25.302  35.453  11.339  1.00  0.00    -0.275 OA
ENDBRANCH  14  23
ENDBRANCH   8   9
BRANCH   8  28
ATOM     28  O   UNL     1      26.053  38.696   9.691  1.00  0.00    -0.388 OA
ATOM     29  H   UNL     1      25.366  38.445  10.366  1.00  0.00     0.211 HD
ENDBRANCH   8  28
ENDBRANCH   7   8
BRANCH   7  30
ATOM     30  O   UNL     1      25.074  39.421   6.449  1.00  0.00    -0.388 OA
ATOM     31  H   UNL     1      24.302  38.835   6.659  1.00  0.00     0.211 HD
ENDBRANCH   7  30
ENDBRANCH   6   7
ENDBRANCH   3   6
ENDBRANCH   1   2
BRANCH   1  32
ATOM     32  C   UNL     1      30.135  39.477  10.762  1.00  0.00     0.294 C 
BRANCH  32  33
ATOM     33  C   UNL     1      29.165  38.666  11.519  1.00  0.00     0.120 A 
ATOM     34  C   UNL     1      29.517  37.449  12.111  1.00  0.00     0.138 A 
ATOM     35  N   UNL     1      27.883  38.833  11.810  1.00  0.00    -0.132 NA
ATOM     36  N   UNL     1      28.430  36.942  12.728  1.00  0.00    -0.252 N 
ATOM     37  N   UNL     1      27.461  37.790  12.535  1.00  0.00    -0.067 NA
BRANCH  36  38
ATOM     38  C   UNL     1      28.422  35.695  13.440  1.00  0.00     0.151 C 
BRANCH  38  39
ATOM     39  C   UNL     1      29.612  34.822  13.119  1.00  0.00     0.086 C 
BRANCH  39  40
ATOM     40  C   UNL     1      30.503  34.590  14.300  1.00  0.00     0.251 C 
BRANCH  40  41
ATOM     41  O   UNL     1      29.711  34.203  15.374  1.00  0.00    -0.353 OA
BRANCH  41  42
ATOM     42  C   UNL     1      30.473  33.483  16.302  1.00  0.00     0.160 C 
ATOM     43  C   UNL     1      31.112  32.272  15.674  1.00  0.00     0.035 C 
ENDBRANCH  41  42
ENDBRANCH  40  41
BRANCH  40  44
ATOM     44  O   UNL     1      31.220  35.704  14.652  1.00  0.00    -0.353 OA
BRANCH  44  45
ATOM     45  C   UNL     1      32.355  35.877  13.860  1.00  0.00     0.160 C 
ATOM     46  C   UNL     1      33.406  34.857  14.284  1.00  0.00     0.035 C 
ENDBRANCH  44  45
ENDBRANCH  40  44
ENDBRANCH  39  40
ENDBRANCH  38  39
ENDBRANCH  36  38
ENDBRANCH  32  33
ENDBRANCH   1  32
TORSDOF 21
BEGIN_RES LYS A 131
REMARK  4 active torsions:
REMARK  status: ('A' for Active; 'I' for Inactive)
REMARK    1  A    between atoms: CA   and  CB  
REMARK    2  A    between atoms: CB   and  CG  
REMARK    3  A    between atoms: CG   and  CD  
REMARK    4  A    between atoms: CD   and  CE  
ROOT
ATOM      1  CA  LYS A 131      29.867  25.555  16.977  1.00 20.52     0.186 C 
ENDROOT
BRANCH   1   2
ATOM      2  CB  LYS A 131      28.345  25.722  17.026  1.00 20.94     0.034 C 
BRANCH   2   3
ATOM      3  CG  LYS A 131      27.601  24.405  16.865  1.00 22.96     0.005 C 
BRANCH   3   4
ATOM      4  CD  LYS A 131      26.573  24.200  17.943  1.00 24.33     0.041 C 
BRANCH   4   5
ATOM      5  CE  LYS A 131      26.408  25.489  18.741  1.00 26.91     0.338 C 
ATOM      6  NZ  LYS A 131      25.038  26.030  18.576  1.00 27.40     0.618 N 
ENDBRANCH   4   5
ENDBRANCH   3   4
ENDBRANCH   2   3
ENDBRANCH   1   2
END_RES LYS A 131
BEGIN_RES LYS A 135
REMARK  4 active torsions:
REMARK  status: ('A' for Active; 'I' for Inactive)
REMARK    5  A    between atoms: CA   and  CB  
REMARK    6  A    between atoms: CB   and  CG  
REMARK    7  A    between atoms: CG   and  CD  
REMARK    8  A    between atoms: CD   and  CE  
ROOT
ATOM      7  CA  LYS A 135      33.193  34.663   9.290  1.00 25.02     0.186 C 
ENDROOT
BRANCH   7   8
ATOM      8  CB  LYS A 135      32.060  35.360  10.034  1.00 26.63     0.034 C 
BRANCH   8   9
ATOM      9  CG  LYS A 135      30.736  34.651   9.916  1.00 29.45     0.005 C 
BRANCH   9  10
ATOM     10  CD  LYS A 135      30.334  34.503   8.457  1.00 32.00     0.041 C 
BRANCH  10  11
ATOM     11  CE  LYS A 135      29.601  35.741   7.978  1.00 34.25     0.338 C 
ATOM     12  NZ  LYS A 135      28.799  35.451   6.757  1.00 35.99     0.618 N 
ENDBRANCH  10  11
ENDBRANCH   9  10
ENDBRANCH   8   9
ENDBRANCH   7   8
END_RES LYS A 135
