REMARK VINA RESULT:    -5.824      2.805      4.519
REMARK INTER + INTRA:         -16.148
REMARK INTER:                 -11.372
REMARK INTRA:                  -4.777
REMARK UNBOUND:                -5.216
REMARK SMILES CC(=O)N[C@@H]1[C@@H](O)C[C@](O)(C(=O)O)O[C@H]1C(O)[C@H](O)CNC(=O)OCc1cn(-c2cc(C(=O)O)nc(-c3ccccc3)c2)nn1
REMARK SMILES IDX 21 1 22 2 23 3 20 5 18 6 16 7 15 8 9 9 8 10 14 11 6 12 5 13
REMARK SMILES IDX 10 14 11 16 12 17 13 18 7 20 4 22 2 23 1 25 3 26 17 27 19 29
REMARK SMILES IDX 24 31 25 32 26 33 27 34 45 35 28 36 44 37 29 38 30 39 43 40
REMARK SMILES IDX 31 41 36 42 35 43 32 44 33 45 34 46 37 48 38 49 42 50 39 51
REMARK SMILES IDX 41 52 40 53
REMARK H PARENT 21 4 10 15 13 19 7 21 4 24 17 28 19 30 34 47
REMARK Flexibility Score: inf
ROOT
ATOM      1  N   UNL     1      25.017  30.275  17.364  1.00  0.00    -0.319 N 
ATOM      2  C   UNL     1      23.650  30.332  16.946  1.00  0.00     0.407 C 
ATOM      3  O   UNL     1      22.765  29.945  17.752  1.00  0.00    -0.225 OA
ATOM      4  H   UNL     1      25.712  30.615  16.638  1.00  0.00     0.167 HD
ENDROOT
BRANCH   1   5
ATOM      5  C   UNL     1      25.433  29.800  18.656  1.00  0.00     0.154 C 
BRANCH   5   6
ATOM      6  C   UNL     1      26.015  28.422  18.564  1.00  0.00     0.165 C 
BRANCH   6   7
ATOM      7  C   UNL     1      27.367  28.433  19.268  1.00  0.00     0.176 C 
BRANCH   7   8
ATOM      8  C   UNL     1      28.055  29.731  19.033  1.00  0.00     0.178 C 
ATOM      9  C   UNL     1      28.970  30.997  17.309  1.00  0.00     0.269 C 
ATOM     10  C   UNL     1      29.001  32.037  18.423  1.00  0.00     0.112 C 
ATOM     11  O   UNL     1      28.262  29.872  17.643  1.00  0.00    -0.332 OA
ATOM     12  C   UNL     1      29.690  31.428  19.592  1.00  0.00     0.145 C 
ATOM     13  C   UNL     1      29.394  29.913  19.662  1.00  0.00     0.142 C 
BRANCH   9  14
ATOM     14  O   UNL     1      30.332  30.703  17.061  1.00  0.00    -0.357 OA
ATOM     15  H   UNL     1      30.517  29.881  17.584  1.00  0.00     0.214 HD
ENDBRANCH   9  14
BRANCH   9  16
ATOM     16  C   UNL     1      28.387  31.554  16.074  1.00  0.00     0.364 C 
ATOM     17  O   UNL     1      28.991  32.439  15.441  1.00  0.00    -0.246 OA
BRANCH  16  18
ATOM     18  O   UNL     1      27.172  31.100  15.607  1.00  0.00    -0.477 OA
ATOM     19  H   UNL     1      26.590  31.635  14.969  1.00  0.00     0.296 HD
ENDBRANCH  16  18
ENDBRANCH   9  16
BRANCH  12  20
ATOM     20  O   UNL     1      31.047  31.664  19.634  1.00  0.00    -0.391 OA
ATOM     21  H   UNL     1      31.537  30.848  19.874  1.00  0.00     0.211 HD
ENDBRANCH  12  20
BRANCH  13  22
ATOM     22  N   UNL     1      29.513  29.493  21.032  1.00  0.00    -0.348 N 
ATOM     23  C   UNL     1      30.718  28.869  21.523  1.00  0.00     0.217 C 
ATOM     24  H   UNL     1      28.740  29.642  21.684  1.00  0.00     0.163 HD
ATOM     25  C   UNL     1      30.882  28.426  22.916  1.00  0.00     0.114 C 
ATOM     26  O   UNL     1      31.640  28.724  20.666  1.00  0.00    -0.275 OA
ENDBRANCH  13  22
ENDBRANCH   7   8
BRANCH   7  27
ATOM     27  O   UNL     1      28.138  27.335  18.999  1.00  0.00    -0.388 OA
ATOM     28  H   UNL     1      29.082  27.407  19.228  1.00  0.00     0.211 HD
ENDBRANCH   7  27
ENDBRANCH   6   7
BRANCH   6  29
ATOM     29  O   UNL     1      26.219  28.189  17.188  1.00  0.00    -0.388 OA
ATOM     30  H   UNL     1      27.157  28.418  17.021  1.00  0.00     0.211 HD
ENDBRANCH   6  29
ENDBRANCH   5   6
ENDBRANCH   1   5
BRANCH   2  31
ATOM     31  O   UNL     1      23.317  30.802  15.684  1.00  0.00    -0.443 OA
BRANCH  31  32
ATOM     32  C   UNL     1      22.942  32.159  15.562  1.00  0.00     0.294 C 
BRANCH  32  33
ATOM     33  C   UNL     1      23.983  32.828  14.740  1.00  0.00     0.121 A 
ATOM     34  C   UNL     1      23.852  33.283  13.422  1.00  0.00     0.144 A 
ATOM     35  N   UNL     1      25.260  33.147  15.057  1.00  0.00    -0.131 NA
ATOM     36  N   UNL     1      25.008  33.835  13.014  1.00  0.00    -0.220 N 
ATOM     37  N   UNL     1      25.842  33.739  14.022  1.00  0.00    -0.062 NA
BRANCH  36  38
ATOM     38  C   UNL     1      25.207  34.402  11.703  1.00  0.00     0.071 A 
ATOM     39  C   UNL     1      24.194  35.037  11.031  1.00  0.00     0.064 A 
ATOM     40  C   UNL     1      26.447  34.314  11.081  1.00  0.00     0.057 A 
ATOM     41  C   UNL     1      24.350  35.589   9.776  1.00  0.00     0.151 A 
ATOM     42  C   UNL     1      26.616  34.858   9.834  1.00  0.00     0.073 A 
ATOM     43  N   UNL     1      25.571  35.471   9.231  1.00  0.00    -0.241 NA
BRANCH  41  44
ATOM     44  C   UNL     1      23.262  36.259   9.084  1.00  0.00     0.354 C 
ATOM     45  O   UNL     1      22.095  36.098   9.493  1.00  0.00    -0.245 OA
BRANCH  44  46
ATOM     46  O   UNL     1      23.490  37.065   7.989  1.00  0.00    -0.477 OA
ATOM     47  H   UNL     1      22.748  37.604   7.531  1.00  0.00     0.297 HD
ENDBRANCH  44  46
ENDBRANCH  41  44
BRANCH  42  48
ATOM     48  C   UNL     1      27.919  34.779   9.149  1.00  0.00     0.000 A 
ATOM     49  C   UNL     1      28.029  35.340   7.895  1.00  0.00     0.010 A 
ATOM     50  C   UNL     1      28.981  34.165   9.750  1.00  0.00     0.010 A 
ATOM     51  C   UNL     1      29.243  35.268   7.254  1.00  0.00     0.001 A 
ATOM     52  C   UNL     1      30.183  34.115   9.071  1.00  0.00     0.001 A 
ATOM     53  C   UNL     1      30.345  34.660   7.817  1.00  0.00     0.000 A 
ENDBRANCH  42  48
ENDBRANCH  36  38
ENDBRANCH  32  33
ENDBRANCH  31  32
ENDBRANCH   2  31
TORSDOF 18
BEGIN_RES LYS A 131
REMARK  4 active torsions:
REMARK  status: ('A' for Active; 'I' for Inactive)
REMARK    1  A    between atoms: CA   and  CB  
REMARK    2  A    between atoms: CB   and  CG  
REMARK    3  A    between atoms: CG   and  CD  
REMARK    4  A    between atoms: CD   and  CE  
ROOT
ATOM      1  CA  LYS A 131      29.867  25.555  16.977  1.00 20.52     0.186 C 
ENDROOT
BRANCH   1   2
ATOM      2  CB  LYS A 131      28.345  25.722  17.026  1.00 20.94     0.034 C 
BRANCH   2   3
ATOM      3  CG  LYS A 131      27.602  24.400  16.914  1.00 22.96     0.005 C 
BRANCH   3   4
ATOM      4  CD  LYS A 131      26.147  24.536  17.268  1.00 24.33     0.041 C 
BRANCH   4   5
ATOM      5  CE  LYS A 131      25.991  24.549  18.785  1.00 26.91     0.338 C 
ATOM      6  NZ  LYS A 131      25.512  23.233  19.269  1.00 27.40     0.618 N 
ENDBRANCH   4   5
ENDBRANCH   3   4
ENDBRANCH   2   3
ENDBRANCH   1   2
END_RES LYS A 131
BEGIN_RES LYS A 135
REMARK  4 active torsions:
REMARK  status: ('A' for Active; 'I' for Inactive)
REMARK    5  A    between atoms: CA   and  CB  
REMARK    6  A    between atoms: CB   and  CG  
REMARK    7  A    between atoms: CG   and  CD  
REMARK    8  A    between atoms: CD   and  CE  
ROOT
ATOM      7  CA  LYS A 135      33.193  34.663   9.290  1.00 25.02     0.186 C 
ENDROOT
BRANCH   7   8
ATOM      8  CB  LYS A 135      32.060  35.360  10.034  1.00 26.63     0.034 C 
BRANCH   8   9
ATOM      9  CG  LYS A 135      32.508  36.069  11.286  1.00 29.45     0.005 C 
BRANCH   9  10
ATOM     10  CD  LYS A 135      31.317  36.391  12.175  1.00 32.00     0.041 C 
BRANCH  10  11
ATOM     11  CE  LYS A 135      31.142  35.324  13.238  1.00 34.25     0.338 C 
ATOM     12  NZ  LYS A 135      29.846  34.608  13.072  1.00 35.99     0.618 N 
ENDBRANCH  10  11
ENDBRANCH   9  10
ENDBRANCH   8   9
ENDBRANCH   7   8
END_RES LYS A 135
