REMARK VINA RESULT:    -4.164      4.563      9.981
REMARK INTER + INTRA:         -14.726
REMARK INTER:                  -9.231
REMARK INTRA:                  -5.495
REMARK UNBOUND:                -6.788
REMARK SMILES CC(=O)N[C@@H]1[C@@H](O)C[C@](O)(C(=O)O)O[C@H]1C(O)[C@H](O)CNC(=O)OCc1cn(CC(=O)NCc2cccs2)nn1
REMARK SMILES IDX 21 1 22 2 23 3 20 5 18 6 16 7 15 8 9 9 8 10 14 11 6 12 5 13
REMARK SMILES IDX 10 14 11 16 12 17 13 18 7 20 4 22 2 23 1 25 3 26 17 27 19 29
REMARK SMILES IDX 24 31 25 32 26 33 27 34 40 35 28 36 39 37 29 38 30 39 31 40
REMARK SMILES IDX 32 41 33 43 34 44 35 45 38 46 36 47 37 48
REMARK H PARENT 21 4 10 15 13 19 7 21 4 24 17 28 19 30 32 42
REMARK Flexibility Score: inf
ROOT
ATOM      1  N   UNL     1      30.715  32.711  14.366  1.00  0.00    -0.319 N 
ATOM      2  C   UNL     1      30.067  33.826  13.795  1.00  0.00     0.407 C 
ATOM      3  O   UNL     1      28.942  34.157  14.242  1.00  0.00    -0.225 OA
ATOM      4  H   UNL     1      31.649  32.453  13.978  1.00  0.00     0.167 HD
ENDROOT
BRANCH   1   5
ATOM      5  C   UNL     1      30.185  31.902  15.445  1.00  0.00     0.154 C 
BRANCH   5   6
ATOM      6  C   UNL     1      30.712  32.366  16.774  1.00  0.00     0.165 C 
BRANCH   6   7
ATOM      7  C   UNL     1      29.663  32.683  17.785  1.00  0.00     0.176 C 
BRANCH   7   8
ATOM      8  C   UNL     1      29.410  31.696  18.862  1.00  0.00     0.178 C 
ATOM      9  C   UNL     1      30.683  30.291  20.232  1.00  0.00     0.269 C 
ATOM     10  C   UNL     1      29.339  30.177  20.929  1.00  0.00     0.112 C 
ATOM     11  O   UNL     1      30.709  31.207  19.223  1.00  0.00    -0.332 OA
ATOM     12  C   UNL     1      28.322  29.800  19.908  1.00  0.00     0.145 C 
ATOM     13  C   UNL     1      28.622  30.486  18.560  1.00  0.00     0.142 C 
BRANCH   9  14
ATOM     14  O   UNL     1      30.980  28.989  19.786  1.00  0.00    -0.357 OA
ATOM     15  H   UNL     1      31.373  29.052  18.872  1.00  0.00     0.214 HD
ENDBRANCH   9  14
BRANCH   9  16
ATOM     16  C   UNL     1      31.738  30.672  21.206  1.00  0.00     0.364 C 
ATOM     17  O   UNL     1      32.208  29.797  21.963  1.00  0.00    -0.246 OA
BRANCH  16  18
ATOM     18  O   UNL     1      32.220  31.974  21.301  1.00  0.00    -0.477 OA
ATOM     19  H   UNL     1      31.655  32.621  21.853  1.00  0.00     0.296 HD
ENDBRANCH  16  18
ENDBRANCH   9  16
BRANCH  12  20
ATOM     20  O   UNL     1      28.171  28.440  19.742  1.00  0.00    -0.391 OA
ATOM     21  H   UNL     1      28.262  28.181  18.791  1.00  0.00     0.211 HD
ENDBRANCH  12  20
BRANCH  13  22
ATOM     22  N   UNL     1      27.369  30.622  17.918  1.00  0.00    -0.348 N 
ATOM     23  C   UNL     1      26.933  29.649  16.994  1.00  0.00     0.217 C 
ATOM     24  H   UNL     1      26.747  31.421  18.103  1.00  0.00     0.163 HD
ATOM     25  C   UNL     1      25.618  29.749  16.290  1.00  0.00     0.114 C 
ATOM     26  O   UNL     1      27.634  28.622  16.701  1.00  0.00    -0.275 OA
ENDBRANCH  13  22
ENDBRANCH   7   8
BRANCH   7  27
ATOM     27  O   UNL     1      29.569  34.020  18.144  1.00  0.00    -0.388 OA
ATOM     28  H   UNL     1      30.299  34.572  17.838  1.00  0.00     0.211 HD
ENDBRANCH   7  27
ENDBRANCH   6   7
BRANCH   6  29
ATOM     29  O   UNL     1      31.705  33.333  16.689  1.00  0.00    -0.388 OA
ATOM     30  H   UNL     1      32.387  33.130  16.008  1.00  0.00     0.211 HD
ENDBRANCH   6  29
ENDBRANCH   5   6
ENDBRANCH   1   5
BRANCH   2  31
ATOM     31  O   UNL     1      30.633  34.573  12.753  1.00  0.00    -0.443 OA
BRANCH  31  32
ATOM     32  C   UNL     1      31.027  35.917  12.961  1.00  0.00     0.294 C 
BRANCH  32  33
ATOM     33  C   UNL     1      32.011  35.941  14.080  1.00  0.00     0.120 A 
ATOM     34  C   UNL     1      32.087  36.833  15.129  1.00  0.00     0.138 A 
ATOM     35  N   UNL     1      33.027  35.088  14.285  1.00  0.00    -0.132 NA
ATOM     36  N   UNL     1      33.122  36.499  15.915  1.00  0.00    -0.243 N 
ATOM     37  N   UNL     1      33.677  35.434  15.379  1.00  0.00    -0.067 NA
BRANCH  36  38
ATOM     38  C   UNL     1      33.512  37.220  17.138  1.00  0.00     0.245 C 
BRANCH  38  39
ATOM     39  C   UNL     1      34.993  37.235  17.166  1.00  0.00     0.242 C 
ATOM     40  O   UNL     1      35.588  38.362  17.115  1.00  0.00    -0.273 OA
ATOM     41  N   UNL     1      35.819  36.089  17.245  1.00  0.00    -0.350 N 
ATOM     42  H   UNL     1      35.335  35.174  17.286  1.00  0.00     0.163 HD
BRANCH  41  43
ATOM     43  C   UNL     1      37.262  36.151  17.271  1.00  0.00     0.162 C 
BRANCH  43  44
ATOM     44  C   UNL     1      37.733  34.892  17.973  1.00  0.00     0.024 A 
ATOM     45  C   UNL     1      38.465  33.886  17.509  1.00  0.00     0.017 A 
ATOM     46  S   UNL     1      37.403  34.461  19.618  1.00  0.00    -0.147 S 
ATOM     47  C   UNL     1      38.780  32.841  18.303  1.00  0.00     0.012 A 
ATOM     48  C   UNL     1      38.287  32.904  19.615  1.00  0.00     0.065 A 
ENDBRANCH  43  44
ENDBRANCH  41  43
ENDBRANCH  38  39
ENDBRANCH  36  38
ENDBRANCH  32  33
ENDBRANCH  31  32
ENDBRANCH   2  31
TORSDOF 18
BEGIN_RES LYS A 131
REMARK  4 active torsions:
REMARK  status: ('A' for Active; 'I' for Inactive)
REMARK    1  A    between atoms: CA   and  CB  
REMARK    2  A    between atoms: CB   and  CG  
REMARK    3  A    between atoms: CG   and  CD  
REMARK    4  A    between atoms: CD   and  CE  
ROOT
ATOM      1  CA  LYS A 131      29.867  25.555  16.977  1.00 20.52     0.186 C 
ENDROOT
BRANCH   1   2
ATOM      2  CB  LYS A 131      28.345  25.722  17.026  1.00 20.94     0.034 C 
BRANCH   2   3
ATOM      3  CG  LYS A 131      27.602  24.397  16.943  1.00 22.96     0.005 C 
BRANCH   3   4
ATOM      4  CD  LYS A 131      26.446  24.336  17.902  1.00 24.33     0.041 C 
BRANCH   4   5
ATOM      5  CE  LYS A 131      26.117  25.741  18.394  1.00 26.91     0.338 C 
ATOM      6  NZ  LYS A 131      24.924  26.271  17.691  1.00 27.40     0.618 N 
ENDBRANCH   4   5
ENDBRANCH   3   4
ENDBRANCH   2   3
ENDBRANCH   1   2
END_RES LYS A 131
BEGIN_RES LYS A 135
REMARK  4 active torsions:
REMARK  status: ('A' for Active; 'I' for Inactive)
REMARK    5  A    between atoms: CA   and  CB  
REMARK    6  A    between atoms: CB   and  CG  
REMARK    7  A    between atoms: CG   and  CD  
REMARK    8  A    between atoms: CD   and  CE  
ROOT
ATOM      7  CA  LYS A 135      33.193  34.663   9.290  1.00 25.02     0.186 C 
ENDROOT
BRANCH   7   8
ATOM      8  CB  LYS A 135      32.060  35.360  10.034  1.00 26.63     0.034 C 
BRANCH   8   9
ATOM      9  CG  LYS A 135      30.801  35.501   9.219  1.00 29.45     0.005 C 
BRANCH   9  10
ATOM     10  CD  LYS A 135      30.070  34.170   9.125  1.00 32.00     0.041 C 
BRANCH  10  11
ATOM     11  CE  LYS A 135      28.657  34.373   8.615  1.00 34.25     0.338 C 
ATOM     12  NZ  LYS A 135      27.663  33.726   9.516  1.00 35.99     0.618 N 
ENDBRANCH  10  11
ENDBRANCH   9  10
ENDBRANCH   8   9
ENDBRANCH   7   8
END_RES LYS A 135
