REMARK VINA RESULT:    -4.167      3.144      6.033
REMARK INTER + INTRA:         -14.888
REMARK INTER:                  -8.446
REMARK INTRA:                  -6.442
REMARK UNBOUND:                -7.311
REMARK SMILES CC(=O)N[C@@H]1[C@@H](O)C[C@](O)(C(=O)O)O[C@H]1C(O)[C@H](O)CNC(=O)OCc1cn(-c2ccc(O)c([N+](=O)[O-])c2)nn1
REMARK SMILES IDX 21 1 22 2 23 3 20 5 18 6 16 7 15 8 9 9 8 10 14 11 6 12 5 13
REMARK SMILES IDX 10 14 11 16 12 17 13 18 7 20 4 22 2 23 1 25 3 26 17 27 19 29
REMARK SMILES IDX 24 31 25 32 26 33 27 34 40 35 28 36 39 37 29 38 30 39 38 40
REMARK SMILES IDX 31 41 34 42 32 43 35 44 36 45 37 46 33 47
REMARK H PARENT 21 4 10 15 13 19 7 21 4 24 17 28 19 30 33 48
REMARK Flexibility Score: inf
ROOT
ATOM      1  N   UNL     1      30.760  31.385  21.917  1.00  0.00    -0.319 N 
ATOM      2  C   UNL     1      29.395  31.669  22.191  1.00  0.00     0.407 C 
ATOM      3  O   UNL     1      28.609  30.787  22.672  1.00  0.00    -0.225 OA
ATOM      4  H   UNL     1      31.364  32.129  21.534  1.00  0.00     0.167 HD
ENDROOT
BRANCH   1   5
ATOM      5  C   UNL     1      31.269  30.073  22.188  1.00  0.00     0.154 C 
BRANCH   5   6
ATOM      6  C   UNL     1      31.602  29.231  21.009  1.00  0.00     0.165 C 
BRANCH   6   7
ATOM      7  C   UNL     1      31.031  27.837  21.024  1.00  0.00     0.176 C 
BRANCH   7   8
ATOM      8  C   UNL     1      29.541  27.773  20.900  1.00  0.00     0.178 C 
ATOM      9  C   UNL     1      27.701  28.603  19.805  1.00  0.00     0.269 C 
ATOM     10  C   UNL     1      27.109  27.360  20.429  1.00  0.00     0.112 C 
ATOM     11  O   UNL     1      29.049  28.766  20.070  1.00  0.00    -0.332 OA
ATOM     12  C   UNL     1      27.334  27.392  21.903  1.00  0.00     0.145 C 
ATOM     13  C   UNL     1      28.826  27.597  22.189  1.00  0.00     0.142 C 
BRANCH   9  14
ATOM     14  O   UNL     1      27.004  29.686  20.322  1.00  0.00    -0.357 OA
ATOM     15  H   UNL     1      27.675  30.398  20.512  1.00  0.00     0.214 HD
ENDBRANCH   9  14
BRANCH   9  16
ATOM     16  C   UNL     1      27.441  28.532  18.346  1.00  0.00     0.364 C 
ATOM     17  O   UNL     1      26.619  27.706  17.868  1.00  0.00    -0.246 OA
BRANCH  16  18
ATOM     18  O   UNL     1      28.101  29.378  17.476  1.00  0.00    -0.477 OA
ATOM     19  H   UNL     1      28.826  29.080  16.851  1.00  0.00     0.296 HD
ENDBRANCH  16  18
ENDBRANCH   9  16
BRANCH  12  20
ATOM     20  O   UNL     1      26.568  28.456  22.415  1.00  0.00    -0.391 OA
ATOM     21  H   UNL     1      25.683  28.056  22.673  1.00  0.00     0.211 HD
ENDBRANCH  12  20
BRANCH  13  22
ATOM     22  N   UNL     1      29.322  26.345  22.783  1.00  0.00    -0.348 N 
ATOM     23  C   UNL     1      29.552  26.194  24.166  1.00  0.00     0.217 C 
ATOM     24  H   UNL     1      29.512  25.535  22.146  1.00  0.00     0.163 HD
ATOM     25  C   UNL     1      30.055  24.915  24.724  1.00  0.00     0.114 C 
ATOM     26  O   UNL     1      29.333  27.142  24.930  1.00  0.00    -0.275 OA
ENDBRANCH  13  22
ENDBRANCH   7   8
BRANCH   7  27
ATOM     27  O   UNL     1      31.581  27.054  20.009  1.00  0.00    -0.388 OA
ATOM     28  H   UNL     1      32.203  27.534  19.438  1.00  0.00     0.211 HD
ENDBRANCH   7  27
ENDBRANCH   6   7
BRANCH   6  29
ATOM     29  O   UNL     1      33.002  29.169  20.943  1.00  0.00    -0.388 OA
ATOM     30  H   UNL     1      33.278  29.634  20.102  1.00  0.00     0.211 HD
ENDBRANCH   6  29
ENDBRANCH   5   6
ENDBRANCH   1   5
BRANCH   2  31
ATOM     31  O   UNL     1      28.929  32.934  21.922  1.00  0.00    -0.443 OA
BRANCH  31  32
ATOM     32  C   UNL     1      27.791  33.102  21.133  1.00  0.00     0.294 C 
BRANCH  32  33
ATOM     33  C   UNL     1      28.047  32.922  19.679  1.00  0.00     0.121 A 
ATOM     34  C   UNL     1      29.027  33.520  18.900  1.00  0.00     0.144 A 
ATOM     35  N   UNL     1      27.372  32.135  18.822  1.00  0.00    -0.131 NA
ATOM     36  N   UNL     1      28.928  33.097  17.631  1.00  0.00    -0.220 N 
ATOM     37  N   UNL     1      27.911  32.252  17.608  1.00  0.00    -0.062 NA
BRANCH  36  38
ATOM     38  C   UNL     1      29.722  33.450  16.505  1.00  0.00     0.073 A 
ATOM     39  C   UNL     1      31.063  33.125  16.474  1.00  0.00     0.033 A 
ATOM     40  C   UNL     1      29.213  34.118  15.411  1.00  0.00     0.118 A 
ATOM     41  C   UNL     1      31.855  33.459  15.388  1.00  0.00     0.056 A 
ATOM     42  C   UNL     1      29.966  34.473  14.304  1.00  0.00     0.312 A 
ATOM     43  C   UNL     1      31.313  34.125  14.315  1.00  0.00     0.194 A 
BRANCH  42  44
ATOM     44  N   UNL     1      29.429  35.157  13.193  1.00  0.00     0.066 N 
ATOM     45  O   UNL     1      29.851  36.279  12.908  1.00  0.00    -0.258 OA
ATOM     46  O   UNL     1      28.453  34.578  12.445  1.00  0.00    -0.258 OA
ENDBRANCH  42  44
BRANCH  43  47
ATOM     47  O   UNL     1      32.068  34.484  13.200  1.00  0.00    -0.502 OA
ATOM     48  H   UNL     1      32.081  35.476  12.925  1.00  0.00     0.293 HD
ENDBRANCH  43  47
ENDBRANCH  36  38
ENDBRANCH  32  33
ENDBRANCH  31  32
ENDBRANCH   2  31
TORSDOF 17
BEGIN_RES LYS A 131
REMARK  4 active torsions:
REMARK  status: ('A' for Active; 'I' for Inactive)
REMARK    1  A    between atoms: CA   and  CB  
REMARK    2  A    between atoms: CB   and  CG  
REMARK    3  A    between atoms: CG   and  CD  
REMARK    4  A    between atoms: CD   and  CE  
ROOT
ATOM      1  CA  LYS A 131      29.867  25.555  16.977  1.00 20.52     0.186 C 
ENDROOT
BRANCH   1   2
ATOM      2  CB  LYS A 131      28.345  25.722  17.026  1.00 20.94     0.034 C 
BRANCH   2   3
ATOM      3  CG  LYS A 131      27.601  24.406  16.860  1.00 22.96     0.005 C 
BRANCH   3   4
ATOM      4  CD  LYS A 131      26.534  24.223  17.903  1.00 24.33     0.041 C 
BRANCH   4   5
ATOM      5  CE  LYS A 131      25.716  22.977  17.582  1.00 26.91     0.338 C 
ATOM      6  NZ  LYS A 131      24.555  22.868  18.496  1.00 27.40     0.618 N 
ENDBRANCH   4   5
ENDBRANCH   3   4
ENDBRANCH   2   3
ENDBRANCH   1   2
END_RES LYS A 131
BEGIN_RES LYS A 135
REMARK  4 active torsions:
REMARK  status: ('A' for Active; 'I' for Inactive)
REMARK    5  A    between atoms: CA   and  CB  
REMARK    6  A    between atoms: CB   and  CG  
REMARK    7  A    between atoms: CG   and  CD  
REMARK    8  A    between atoms: CD   and  CE  
ROOT
ATOM      7  CA  LYS A 135      33.193  34.663   9.290  1.00 25.02     0.186 C 
ENDROOT
BRANCH   7   8
ATOM      8  CB  LYS A 135      32.060  35.360  10.034  1.00 26.63     0.034 C 
BRANCH   8   9
ATOM      9  CG  LYS A 135      30.700  34.780   9.741  1.00 29.45     0.005 C 
BRANCH   9  10
ATOM     10  CD  LYS A 135      30.460  34.707   8.241  1.00 32.00     0.041 C 
BRANCH  10  11
ATOM     11  CE  LYS A 135      28.981  34.837   7.931  1.00 34.25     0.338 C 
ATOM     12  NZ  LYS A 135      28.764  35.545   6.639  1.00 35.99     0.618 N 
ENDBRANCH  10  11
ENDBRANCH   9  10
ENDBRANCH   8   9
ENDBRANCH   7   8
END_RES LYS A 135
