REMARK VINA RESULT:    -3.530      3.479      7.840
REMARK INTER + INTRA:         -14.093
REMARK INTER:                  -7.975
REMARK INTRA:                  -6.118
REMARK UNBOUND:                -7.158
REMARK SMILES CCN(CC)CCn1cc(COC(=O)NC[C@@H](O)C(O)[C@@H]2O[C@@](O)(C(=O)O)C[C@H](O)[C@H]2NC(C)=O)nn1
REMARK SMILES IDX 15 1 13 2 14 3 16 5 17 6 19 7 21 8 23 9 28 10 22 11 29 12
REMARK SMILES IDX 31 13 24 14 25 16 26 17 27 18 30 20 32 22 33 23 34 25 35 26
REMARK SMILES IDX 20 27 18 29 12 31 11 32 10 33 9 34 36 35 8 36 37 37 7 38
REMARK SMILES IDX 6 39 3 40 2 41 1 42 4 43 5 44
REMARK H PARENT 15 4 24 15 27 19 30 21 32 24 20 28 18 30
REMARK Flexibility Score: inf
ROOT
ATOM      1  N   UNL     1      30.253  30.966  17.449  1.00  0.00    -0.319 N 
ATOM      2  C   UNL     1      29.607  31.032  18.721  1.00  0.00     0.407 C 
ATOM      3  O   UNL     1      29.468  32.125  19.296  1.00  0.00    -0.225 OA
ATOM      4  H   UNL     1      30.334  30.023  17.031  1.00  0.00     0.167 HD
ENDROOT
BRANCH   1   5
ATOM      5  C   UNL     1      30.771  32.107  16.761  1.00  0.00     0.154 C 
BRANCH   5   6
ATOM      6  C   UNL     1      30.218  32.288  15.375  1.00  0.00     0.165 C 
BRANCH   6   7
ATOM      7  C   UNL     1      30.869  33.474  14.698  1.00  0.00     0.176 C 
BRANCH   7   8
ATOM      8  C   UNL     1      30.577  34.755  15.425  1.00  0.00     0.178 C 
ATOM      9  C   UNL     1      28.883  35.513  13.980  1.00  0.00     0.269 C 
ATOM     10  C   UNL     1      29.902  36.431  13.318  1.00  0.00     0.112 C 
ATOM     11  O   UNL     1      29.264  35.096  15.221  1.00  0.00    -0.332 OA
ATOM     12  C   UNL     1      30.768  36.996  14.449  1.00  0.00     0.145 C 
ATOM     13  C   UNL     1      31.506  35.855  15.050  1.00  0.00     0.142 C 
BRANCH   9  14
ATOM     14  O   UNL     1      28.592  34.498  13.072  1.00  0.00    -0.357 OA
ATOM     15  H   UNL     1      29.187  33.709  13.216  1.00  0.00     0.214 HD
ENDBRANCH   9  14
BRANCH   9  16
ATOM     16  C   UNL     1      27.629  36.311  14.166  1.00  0.00     0.364 C 
ATOM     17  O   UNL     1      26.921  36.677  13.204  1.00  0.00    -0.246 OA
BRANCH  16  18
ATOM     18  O   UNL     1      27.244  36.653  15.445  1.00  0.00    -0.477 OA
ATOM     19  H   UNL     1      27.752  37.313  16.027  1.00  0.00     0.296 HD
ENDBRANCH  16  18
ENDBRANCH   9  16
BRANCH  12  20
ATOM     20  O   UNL     1      31.604  37.965  13.893  1.00  0.00    -0.391 OA
ATOM     21  H   UNL     1      32.184  37.477  13.227  1.00  0.00     0.211 HD
ENDBRANCH  12  20
BRANCH  13  22
ATOM     22  N   UNL     1      32.383  36.251  16.135  1.00  0.00    -0.348 N 
ATOM     23  C   UNL     1      33.764  35.909  16.186  1.00  0.00     0.217 C 
ATOM     24  H   UNL     1      32.025  36.823  16.952  1.00  0.00     0.163 HD
ATOM     25  C   UNL     1      34.623  36.344  17.333  1.00  0.00     0.114 C 
ATOM     26  O   UNL     1      34.278  35.238  15.271  1.00  0.00    -0.275 OA
ENDBRANCH  13  22
ENDBRANCH   7   8
BRANCH   7  27
ATOM     27  O   UNL     1      32.243  33.171  14.700  1.00  0.00    -0.388 OA
ATOM     28  H   UNL     1      32.516  33.182  13.744  1.00  0.00     0.211 HD
ENDBRANCH   7  27
ENDBRANCH   6   7
BRANCH   6  29
ATOM     29  O   UNL     1      28.853  32.317  15.401  1.00  0.00    -0.388 OA
ATOM     30  H   UNL     1      28.523  31.927  16.248  1.00  0.00     0.211 HD
ENDBRANCH   6  29
ENDBRANCH   5   6
ENDBRANCH   1   5
BRANCH   2  31
ATOM     31  O   UNL     1      29.113  29.908  19.362  1.00  0.00    -0.443 OA
BRANCH  31  32
ATOM     32  C   UNL     1      27.744  29.532  19.285  1.00  0.00     0.294 C 
BRANCH  32  33
ATOM     33  C   UNL     1      27.257  29.859  17.921  1.00  0.00     0.120 A 
ATOM     34  C   UNL     1      26.083  30.568  17.670  1.00  0.00     0.138 A 
ATOM     35  N   UNL     1      27.770  29.582  16.715  1.00  0.00    -0.132 NA
ATOM     36  N   UNL     1      25.949  30.684  16.352  1.00  0.00    -0.251 N 
ATOM     37  N   UNL     1      26.974  30.085  15.786  1.00  0.00    -0.067 NA
BRANCH  36  38
ATOM     38  C   UNL     1      24.874  31.344  15.661  1.00  0.00     0.161 C 
BRANCH  38  39
ATOM     39  C   UNL     1      24.307  30.393  14.622  1.00  0.00     0.108 C 
BRANCH  39  40
ATOM     40  N   UNL     1      23.169  30.911  13.934  1.00  0.00    -0.302 NA
BRANCH  40  41
ATOM     41  C   UNL     1      22.930  30.344  12.649  1.00  0.00     0.081 C 
ATOM     42  C   UNL     1      23.376  28.876  12.718  1.00  0.00     0.021 C 
ENDBRANCH  40  41
BRANCH  40  43
ATOM     43  C   UNL     1      23.022  32.322  14.048  1.00  0.00     0.081 C 
ATOM     44  C   UNL     1      22.695  33.012  12.760  1.00  0.00     0.021 C 
ENDBRANCH  40  43
ENDBRANCH  39  40
ENDBRANCH  38  39
ENDBRANCH  36  38
ENDBRANCH  32  33
ENDBRANCH  31  32
ENDBRANCH   2  31
TORSDOF 19
BEGIN_RES LYS A 131
REMARK  4 active torsions:
REMARK  status: ('A' for Active; 'I' for Inactive)
REMARK    1  A    between atoms: CA   and  CB  
REMARK    2  A    between atoms: CB   and  CG  
REMARK    3  A    between atoms: CG   and  CD  
REMARK    4  A    between atoms: CD   and  CE  
ROOT
ATOM      1  CA  LYS A 131      29.867  25.555  16.977  1.00 20.52     0.186 C 
ENDROOT
BRANCH   1   2
ATOM      2  CB  LYS A 131      28.345  25.722  17.026  1.00 20.94     0.034 C 
BRANCH   2   3
ATOM      3  CG  LYS A 131      27.599  24.419  16.779  1.00 22.96     0.005 C 
BRANCH   3   4
ATOM      4  CD  LYS A 131      26.890  23.931  18.012  1.00 24.33     0.041 C 
BRANCH   4   5
ATOM      5  CE  LYS A 131      25.523  24.602  18.111  1.00 26.91     0.338 C 
ATOM      6  NZ  LYS A 131      24.734  24.356  16.882  1.00 27.40     0.618 N 
ENDBRANCH   4   5
ENDBRANCH   3   4
ENDBRANCH   2   3
ENDBRANCH   1   2
END_RES LYS A 131
BEGIN_RES LYS A 135
REMARK  4 active torsions:
REMARK  status: ('A' for Active; 'I' for Inactive)
REMARK    5  A    between atoms: CA   and  CB  
REMARK    6  A    between atoms: CB   and  CG  
REMARK    7  A    between atoms: CG   and  CD  
REMARK    8  A    between atoms: CD   and  CE  
ROOT
ATOM      7  CA  LYS A 135      33.193  34.663   9.290  1.00 25.02     0.186 C 
ENDROOT
BRANCH   7   8
ATOM      8  CB  LYS A 135      32.060  35.360  10.034  1.00 26.63     0.034 C 
BRANCH   8   9
ATOM      9  CG  LYS A 135      30.736  34.651   9.915  1.00 29.45     0.005 C 
BRANCH   9  10
ATOM     10  CD  LYS A 135      30.328  34.516   8.457  1.00 32.00     0.041 C 
BRANCH  10  11
ATOM     11  CE  LYS A 135      28.817  34.539   8.321  1.00 34.25     0.338 C 
ATOM     12  NZ  LYS A 135      28.166  33.820   9.451  1.00 35.99     0.618 N 
ENDBRANCH  10  11
ENDBRANCH   9  10
ENDBRANCH   8   9
ENDBRANCH   7   8
END_RES LYS A 135
