REMARK VINA RESULT:    -4.661      4.150      7.492
REMARK INTER + INTRA:         -13.862
REMARK INTER:                  -9.639
REMARK INTRA:                  -4.223
REMARK UNBOUND:                -5.796
REMARK SMILES CC(=O)N[C@@H]1[C@@H](O)C[C@](O)(C(=O)O)O[C@H]1C(O)[C@H](O)CNC(=O)OCc1cn(C2CCCCC2)nn1
REMARK SMILES IDX 20 1 18 2 16 3 15 4 9 5 8 6 14 7 6 8 5 9 10 10 11 12 12 13
REMARK SMILES IDX 13 14 7 16 4 18 2 19 1 21 3 22 17 23 19 25 21 27 22 28 23 30
REMARK SMILES IDX 24 31 25 32 26 33 27 34 36 35 28 36 35 37 29 38 30 39 34 40
REMARK SMILES IDX 31 41 33 42 32 43
REMARK H PARENT 10 11 13 15 7 17 4 20 17 24 19 26 21 29
REMARK Flexibility Score: inf
ROOT
ATOM      1  C   UNL     1      30.062  31.027  16.506  1.00  0.00     0.154 C 
ENDROOT
BRANCH   1   2
ATOM      2  C   UNL     1      29.436  32.276  15.904  1.00  0.00     0.165 C 
BRANCH   2   3
ATOM      3  C   UNL     1      30.461  32.893  15.003  1.00  0.00     0.176 C 
BRANCH   3   4
ATOM      4  C   UNL     1      30.817  34.327  15.329  1.00  0.00     0.178 C 
ATOM      5  C   UNL     1      31.249  35.521  13.347  1.00  0.00     0.269 C 
ATOM      6  C   UNL     1      32.538  36.080  13.925  1.00  0.00     0.112 C 
ATOM      7  O   UNL     1      30.411  35.205  14.362  1.00  0.00    -0.332 OA
ATOM      8  C   UNL     1      33.184  35.097  14.865  1.00  0.00     0.145 C 
ATOM      9  C   UNL     1      32.193  34.529  15.861  1.00  0.00     0.142 C 
BRANCH   5  10
ATOM     10  O   UNL     1      31.516  34.495  12.443  1.00  0.00    -0.357 OA
ATOM     11  H   UNL     1      31.429  34.875  11.513  1.00  0.00     0.214 HD
ENDBRANCH   5  10
BRANCH   5  12
ATOM     12  C   UNL     1      30.638  36.650  12.591  1.00  0.00     0.364 C 
ATOM     13  O   UNL     1      29.394  36.738  12.495  1.00  0.00    -0.246 OA
BRANCH  12  14
ATOM     14  O   UNL     1      31.438  37.587  12.004  1.00  0.00    -0.477 OA
ATOM     15  H   UNL     1      31.809  38.404  12.473  1.00  0.00     0.296 HD
ENDBRANCH  12  14
ENDBRANCH   5  12
BRANCH   8  16
ATOM     16  O   UNL     1      33.846  34.096  14.167  1.00  0.00    -0.391 OA
ATOM     17  H   UNL     1      34.359  33.529  14.792  1.00  0.00     0.211 HD
ENDBRANCH   8  16
BRANCH   9  18
ATOM     18  N   UNL     1      32.180  35.376  17.055  1.00  0.00    -0.348 N 
ATOM     19  C   UNL     1      31.824  34.793  18.289  1.00  0.00     0.217 C 
ATOM     20  H   UNL     1      32.426  36.384  17.013  1.00  0.00     0.163 HD
ATOM     21  C   UNL     1      31.782  35.575  19.564  1.00  0.00     0.114 C 
ATOM     22  O   UNL     1      31.515  33.564  18.401  1.00  0.00    -0.275 OA
ENDBRANCH   9  18
ENDBRANCH   3   4
BRANCH   3  23
ATOM     23  O   UNL     1      31.524  32.069  14.743  1.00  0.00    -0.388 OA
ATOM     24  H   UNL     1      31.932  32.221  13.832  1.00  0.00     0.211 HD
ENDBRANCH   3  23
ENDBRANCH   2   3
BRANCH   2  25
ATOM     25  O   UNL     1      29.000  33.069  16.938  1.00  0.00    -0.388 OA
ATOM     26  H   UNL     1      28.076  33.321  16.786  1.00  0.00     0.211 HD
ENDBRANCH   2  25
ENDBRANCH   1   2
BRANCH   1  27
ATOM     27  N   UNL     1      29.001  30.102  16.830  1.00  0.00    -0.319 N 
ATOM     28  C   UNL     1      28.374  29.988  18.096  1.00  0.00     0.407 C 
ATOM     29  H   UNL     1      28.625  29.432  16.090  1.00  0.00     0.167 HD
ATOM     30  O   UNL     1      28.746  30.730  19.036  1.00  0.00    -0.225 OA
BRANCH  28  31
ATOM     31  O   UNL     1      27.354  29.068  18.321  1.00  0.00    -0.443 OA
BRANCH  31  32
ATOM     32  C   UNL     1      26.026  29.514  18.431  1.00  0.00     0.294 C 
BRANCH  32  33
ATOM     33  C   UNL     1      25.467  29.653  17.060  1.00  0.00     0.120 A 
ATOM     34  C   UNL     1      24.262  29.107  16.599  1.00  0.00     0.138 A 
ATOM     35  N   UNL     1      25.959  30.298  15.986  1.00  0.00    -0.132 NA
ATOM     36  N   UNL     1      24.085  29.438  15.308  1.00  0.00    -0.249 N 
ATOM     37  N   UNL     1      25.135  30.162  14.963  1.00  0.00    -0.067 NA
BRANCH  36  38
ATOM     38  C   UNL     1      22.959  29.070  14.461  1.00  0.00     0.109 C 
ATOM     39  C   UNL     1      21.815  30.026  14.713  1.00  0.00     0.027 C 
ATOM     40  C   UNL     1      23.353  29.181  13.005  1.00  0.00     0.027 C 
ATOM     41  C   UNL     1      21.672  31.034  13.588  1.00  0.00     0.002 C 
ATOM     42  C   UNL     1      22.079  29.022  12.193  1.00  0.00     0.002 C 
ATOM     43  C   UNL     1      21.316  30.327  12.308  1.00  0.00     0.000 C 
ENDBRANCH  36  38
ENDBRANCH  32  33
ENDBRANCH  31  32
ENDBRANCH  28  31
ENDBRANCH   1  27
TORSDOF 15
BEGIN_RES LYS A 131
REMARK  4 active torsions:
REMARK  status: ('A' for Active; 'I' for Inactive)
REMARK    1  A    between atoms: CA   and  CB  
REMARK    2  A    between atoms: CB   and  CG  
REMARK    3  A    between atoms: CG   and  CD  
REMARK    4  A    between atoms: CD   and  CE  
ROOT
ATOM      1  CA  LYS A 131      29.867  25.555  16.977  1.00 20.52     0.186 C 
ENDROOT
BRANCH   1   2
ATOM      2  CB  LYS A 131      28.345  25.722  17.026  1.00 20.94     0.034 C 
BRANCH   2   3
ATOM      3  CG  LYS A 131      27.602  24.398  16.928  1.00 22.96     0.005 C 
BRANCH   3   4
ATOM      4  CD  LYS A 131      26.609  24.223  18.044  1.00 24.33     0.041 C 
BRANCH   4   5
ATOM      5  CE  LYS A 131      25.926  25.556  18.332  1.00 26.91     0.338 C 
ATOM      6  NZ  LYS A 131      25.964  25.855  19.783  1.00 27.40     0.618 N 
ENDBRANCH   4   5
ENDBRANCH   3   4
ENDBRANCH   2   3
ENDBRANCH   1   2
END_RES LYS A 131
BEGIN_RES LYS A 135
REMARK  4 active torsions:
REMARK  status: ('A' for Active; 'I' for Inactive)
REMARK    5  A    between atoms: CA   and  CB  
REMARK    6  A    between atoms: CB   and  CG  
REMARK    7  A    between atoms: CG   and  CD  
REMARK    8  A    between atoms: CD   and  CE  
ROOT
ATOM      7  CA  LYS A 135      33.193  34.663   9.290  1.00 25.02     0.186 C 
ENDROOT
BRANCH   7   8
ATOM      8  CB  LYS A 135      32.060  35.360  10.034  1.00 26.63     0.034 C 
BRANCH   8   9
ATOM      9  CG  LYS A 135      30.701  35.108   9.434  1.00 29.45     0.005 C 
BRANCH   9  10
ATOM     10  CD  LYS A 135      30.121  36.393   8.862  1.00 32.00     0.041 C 
BRANCH  10  11
ATOM     11  CE  LYS A 135      28.606  36.324   8.828  1.00 34.25     0.338 C 
ATOM     12  NZ  LYS A 135      28.140  35.114   8.095  1.00 35.99     0.618 N 
ENDBRANCH  10  11
ENDBRANCH   9  10
ENDBRANCH   8   9
ENDBRANCH   7   8
END_RES LYS A 135
