REMARK VINA RESULT:    -4.996      4.358      8.327
REMARK INTER + INTRA:         -15.126
REMARK INTER:                  -8.921
REMARK INTRA:                  -6.205
REMARK UNBOUND:                -6.187
REMARK SMILES CC(=O)N[C@@H]1[C@@H](O)C[C@](O)(C(=O)O)O[C@H]1C(O)[C@H](O)CNC(=O)OCc1cn(-c2cc(Cl)ccc2C(=O)N(C)C)nn1
REMARK SMILES IDX 21 1 22 2 23 3 20 5 18 6 16 7 15 8 9 9 8 10 14 11 6 12 5 13
REMARK SMILES IDX 10 14 11 16 12 17 13 18 7 20 4 22 2 23 1 25 3 26 17 27 19 29
REMARK SMILES IDX 24 31 25 32 26 33 27 34 42 35 28 36 41 37 29 38 30 39 35 40
REMARK SMILES IDX 31 41 34 42 32 43 33 44 36 45 37 46 38 47 39 48 40 49
REMARK H PARENT 21 4 10 15 13 19 7 21 4 24 17 28 19 30
REMARK Flexibility Score: inf
ROOT
ATOM      1  N   UNL     1      29.837  30.764  17.596  1.00  0.00    -0.319 N 
ATOM      2  C   UNL     1      28.699  30.869  18.411  1.00  0.00     0.407 C 
ATOM      3  O   UNL     1      28.225  31.990  18.687  1.00  0.00    -0.225 OA
ATOM      4  H   UNL     1      30.223  29.820  17.367  1.00  0.00     0.167 HD
ENDROOT
BRANCH   1   5
ATOM      5  C   UNL     1      30.508  31.914  17.050  1.00  0.00     0.154 C 
BRANCH   5   6
ATOM      6  C   UNL     1      30.283  31.978  15.561  1.00  0.00     0.165 C 
BRANCH   6   7
ATOM      7  C   UNL     1      29.453  33.167  15.149  1.00  0.00     0.176 C 
BRANCH   7   8
ATOM      8  C   UNL     1      30.260  34.131  14.366  1.00  0.00     0.178 C 
ATOM      9  C   UNL     1      32.075  35.530  14.280  1.00  0.00     0.269 C 
ATOM     10  C   UNL     1      31.740  35.477  12.810  1.00  0.00     0.112 C 
ATOM     11  O   UNL     1      31.181  34.872  15.087  1.00  0.00    -0.332 OA
ATOM     12  C   UNL     1      30.294  35.716  12.525  1.00  0.00     0.145 C 
ATOM     13  C   UNL     1      29.392  35.139  13.612  1.00  0.00     0.142 C 
BRANCH   9  14
ATOM     14  O   UNL     1      32.046  36.880  14.672  1.00  0.00    -0.357 OA
ATOM     15  H   UNL     1      31.122  37.028  15.040  1.00  0.00     0.214 HD
ENDBRANCH   9  14
BRANCH   9  16
ATOM     16  C   UNL     1      33.416  34.996  14.545  1.00  0.00     0.364 C 
ATOM     17  O   UNL     1      34.018  35.323  15.596  1.00  0.00    -0.246 OA
BRANCH  16  18
ATOM     18  O   UNL     1      34.088  34.131  13.696  1.00  0.00    -0.477 OA
ATOM     19  H   UNL     1      33.761  34.097  12.718  1.00  0.00     0.296 HD
ENDBRANCH  16  18
ENDBRANCH   9  16
BRANCH  12  20
ATOM     20  O   UNL     1      30.091  37.106  12.403  1.00  0.00    -0.391 OA
ATOM     21  H   UNL     1      30.850  37.437  11.851  1.00  0.00     0.211 HD
ENDBRANCH  12  20
BRANCH  13  22
ATOM     22  N   UNL     1      28.212  34.547  13.082  1.00  0.00    -0.348 N 
ATOM     23  C   UNL     1      27.132  35.359  12.655  1.00  0.00     0.217 C 
ATOM     24  H   UNL     1      28.114  33.517  12.995  1.00  0.00     0.163 HD
ATOM     25  C   UNL     1      25.907  34.687  12.102  1.00  0.00     0.114 C 
ATOM     26  O   UNL     1      27.132  36.602  12.709  1.00  0.00    -0.275 OA
ENDBRANCH  13  22
ENDBRANCH   7   8
BRANCH   7  27
ATOM     27  O   UNL     1      28.800  33.679  16.242  1.00  0.00    -0.388 OA
ATOM     28  H   UNL     1      27.811  33.547  16.087  1.00  0.00     0.211 HD
ENDBRANCH   7  27
ENDBRANCH   6   7
BRANCH   6  29
ATOM     29  O   UNL     1      29.543  30.826  15.147  1.00  0.00    -0.388 OA
ATOM     30  H   UNL     1      28.616  31.062  14.944  1.00  0.00     0.211 HD
ENDBRANCH   6  29
ENDBRANCH   5   6
ENDBRANCH   1   5
BRANCH   2  31
ATOM     31  O   UNL     1      28.040  29.770  18.952  1.00  0.00    -0.443 OA
BRANCH  31  32
ATOM     32  C   UNL     1      27.457  28.814  18.088  1.00  0.00     0.294 C 
BRANCH  32  33
ATOM     33  C   UNL     1      26.226  29.335  17.476  1.00  0.00     0.121 A 
ATOM     34  C   UNL     1      25.959  29.648  16.160  1.00  0.00     0.144 A 
ATOM     35  N   UNL     1      25.091  29.607  18.141  1.00  0.00    -0.131 NA
ATOM     36  N   UNL     1      24.680  30.098  16.057  1.00  0.00    -0.219 N 
ATOM     37  N   UNL     1      24.196  30.057  17.275  1.00  0.00    -0.062 NA
BRANCH  36  38
ATOM     38  C   UNL     1      23.995  30.528  14.889  1.00  0.00     0.081 A 
ATOM     39  C   UNL     1      23.220  29.642  14.155  1.00  0.00     0.049 A 
ATOM     40  C   UNL     1      24.107  31.838  14.487  1.00  0.00     0.065 A 
ATOM     41  C   UNL     1      22.550  30.036  13.024  1.00  0.00     0.043 A 
ATOM     42  C   UNL     1      23.444  32.271  13.350  1.00  0.00     0.017 A 
ATOM     43  Cl  UNL     1      21.564  28.919  12.084  1.00  0.00    -0.084 Cl
ATOM     44  C   UNL     1      22.674  31.354  12.636  1.00  0.00     0.021 A 
BRANCH  40  45
ATOM     45  C   UNL     1      24.916  32.750  15.261  1.00  0.00     0.255 C 
ATOM     46  O   UNL     1      26.153  32.913  15.063  1.00  0.00    -0.269 OA
ATOM     47  N   UNL     1      24.325  33.509  16.297  1.00  0.00    -0.345 N 
ATOM     48  C   UNL     1      22.915  33.356  16.559  1.00  0.00     0.146 C 
ATOM     49  C   UNL     1      25.093  34.442  17.108  1.00  0.00     0.146 C 
ENDBRANCH  40  45
ENDBRANCH  36  38
ENDBRANCH  32  33
ENDBRANCH  31  32
ENDBRANCH   2  31
TORSDOF 16
BEGIN_RES LYS A 131
REMARK  4 active torsions:
REMARK  status: ('A' for Active; 'I' for Inactive)
REMARK    1  A    between atoms: CA   and  CB  
REMARK    2  A    between atoms: CB   and  CG  
REMARK    3  A    between atoms: CG   and  CD  
REMARK    4  A    between atoms: CD   and  CE  
ROOT
ATOM      1  CA  LYS A 131      29.867  25.555  16.977  1.00 20.52     0.186 C 
ENDROOT
BRANCH   1   2
ATOM      2  CB  LYS A 131      28.345  25.722  17.026  1.00 20.94     0.034 C 
BRANCH   2   3
ATOM      3  CG  LYS A 131      27.599  24.430  16.729  1.00 22.96     0.005 C 
BRANCH   3   4
ATOM      4  CD  LYS A 131      27.000  23.824  17.968  1.00 24.33     0.041 C 
BRANCH   4   5
ATOM      5  CE  LYS A 131      25.557  23.417  17.689  1.00 26.91     0.338 C 
ATOM      6  NZ  LYS A 131      24.876  24.447  16.870  1.00 27.40     0.618 N 
ENDBRANCH   4   5
ENDBRANCH   3   4
ENDBRANCH   2   3
ENDBRANCH   1   2
END_RES LYS A 131
BEGIN_RES LYS A 135
REMARK  4 active torsions:
REMARK  status: ('A' for Active; 'I' for Inactive)
REMARK    5  A    between atoms: CA   and  CB  
REMARK    6  A    between atoms: CB   and  CG  
REMARK    7  A    between atoms: CG   and  CD  
REMARK    8  A    between atoms: CD   and  CE  
ROOT
ATOM      7  CA  LYS A 135      33.193  34.663   9.290  1.00 25.02     0.186 C 
ENDROOT
BRANCH   7   8
ATOM      8  CB  LYS A 135      32.060  35.360  10.034  1.00 26.63     0.034 C 
BRANCH   8   9
ATOM      9  CG  LYS A 135      30.877  35.688   9.160  1.00 29.45     0.005 C 
BRANCH   9  10
ATOM     10  CD  LYS A 135      30.245  34.418   8.612  1.00 32.00     0.041 C 
BRANCH  10  11
ATOM     11  CE  LYS A 135      28.876  34.712   8.030  1.00 34.25     0.338 C 
ATOM     12  NZ  LYS A 135      28.340  36.002   8.546  1.00 35.99     0.618 N 
ENDBRANCH  10  11
ENDBRANCH   9  10
ENDBRANCH   8   9
ENDBRANCH   7   8
END_RES LYS A 135
