REMARK VINA RESULT:    -4.696      3.315      8.048
REMARK INTER + INTRA:         -14.618
REMARK INTER:                  -9.121
REMARK INTRA:                  -5.497
REMARK UNBOUND:                -6.490
REMARK SMILES CC(=O)N[C@@H]1[C@@H](O)C[C@](O)(C(=O)O)O[C@H]1C(O)[C@H](O)CNC(=O)OCc1cn(-c2ccc3[nH]ncc3c2)nn1
REMARK SMILES IDX 20 1 18 2 16 3 15 4 9 5 8 6 14 7 6 8 5 9 10 10 11 12 12 13
REMARK SMILES IDX 13 14 7 16 4 18 2 19 1 21 3 22 17 23 19 25 21 27 22 28 23 30
REMARK SMILES IDX 24 31 25 32 26 33 27 34 39 35 28 36 38 37 29 38 30 39 37 40
REMARK SMILES IDX 31 41 36 42 32 43 35 44 33 45 34 46
REMARK H PARENT 10 11 13 15 7 17 4 20 17 24 19 26 21 29 33 47
REMARK Flexibility Score: inf
ROOT
ATOM      1  C   UNL     1      31.922  39.137  10.388  1.00  0.00     0.154 C 
ENDROOT
BRANCH   1   2
ATOM      2  C   UNL     1      31.418  39.148   9.012  1.00  0.00     0.165 C 
BRANCH   2   3
ATOM      3  C   UNL     1      29.905  39.460   8.983  1.00  0.00     0.176 C 
BRANCH   3   4
ATOM      4  C   UNL     1      29.074  38.314   8.605  1.00  0.00     0.178 C 
ATOM      5  C   UNL     1      28.488  38.622   6.362  1.00  0.00     0.269 C 
ATOM      6  C   UNL     1      27.386  39.507   6.872  1.00  0.00     0.112 C 
ATOM      7  O   UNL     1      29.115  37.874   7.315  1.00  0.00    -0.332 OA
ATOM      8  C   UNL     1      26.696  38.977   8.080  1.00  0.00     0.145 C 
ATOM      9  C   UNL     1      27.636  38.455   9.120  1.00  0.00     0.142 C 
BRANCH   5  10
ATOM     10  O   UNL     1      29.423  39.400   5.680  1.00  0.00    -0.357 OA
ATOM     11  H   UNL     1      29.846  40.074   6.266  1.00  0.00     0.214 HD
ENDBRANCH   5  10
BRANCH   5  12
ATOM     12  C   UNL     1      27.875  37.689   5.389  1.00  0.00     0.364 C 
ATOM     13  O   UNL     1      27.649  36.511   5.713  1.00  0.00    -0.246 OA
BRANCH  12  14
ATOM     14  O   UNL     1      27.557  38.130   4.122  1.00  0.00    -0.477 OA
ATOM     15  H   UNL     1      28.262  38.441   3.439  1.00  0.00     0.296 HD
ENDBRANCH  12  14
ENDBRANCH   5  12
BRANCH   8  16
ATOM     16  O   UNL     1      25.879  40.001   8.595  1.00  0.00    -0.391 OA
ATOM     17  H   UNL     1      26.202  40.155   9.515  1.00  0.00     0.211 HD
ENDBRANCH   8  16
BRANCH   9  18
ATOM     18  N   UNL     1      27.169  37.250   9.752  1.00  0.00    -0.348 N 
ATOM     19  C   UNL     1      27.283  37.029  11.151  1.00  0.00     0.217 C 
ATOM     20  H   UNL     1      26.718  36.484   9.165  1.00  0.00     0.163 HD
ATOM     21  C   UNL     1      26.789  35.775  11.751  1.00  0.00     0.114 C 
ATOM     22  O   UNL     1      27.813  37.923  11.859  1.00  0.00    -0.275 OA
ENDBRANCH   9  18
ENDBRANCH   3   4
BRANCH   3  23
ATOM     23  O   UNL     1      29.660  39.677  10.387  1.00  0.00    -0.388 OA
ATOM     24  H   UNL     1      28.702  39.560  10.584  1.00  0.00     0.211 HD
ENDBRANCH   3  23
ENDBRANCH   2   3
BRANCH   2  25
ATOM     25  O   UNL     1      31.484  37.770   8.577  1.00  0.00    -0.388 OA
ATOM     26  H   UNL     1      32.129  37.281   9.159  1.00  0.00     0.211 HD
ENDBRANCH   2  25
ENDBRANCH   1   2
BRANCH   1  27
ATOM     27  N   UNL     1      32.039  37.852  11.020  1.00  0.00    -0.319 N 
ATOM     28  C   UNL     1      31.539  37.606  12.325  1.00  0.00     0.407 C 
ATOM     29  H   UNL     1      32.450  37.053  10.512  1.00  0.00     0.167 HD
ATOM     30  O   UNL     1      30.979  38.554  12.935  1.00  0.00    -0.225 OA
BRANCH  28  31
ATOM     31  O   UNL     1      31.633  36.391  12.963  1.00  0.00    -0.443 OA
BRANCH  31  32
ATOM     32  C   UNL     1      32.130  36.206  14.275  1.00  0.00     0.294 C 
BRANCH  32  33
ATOM     33  C   UNL     1      31.627  34.879  14.769  1.00  0.00     0.121 A 
ATOM     34  C   UNL     1      30.331  34.414  14.797  1.00  0.00     0.144 A 
ATOM     35  N   UNL     1      32.374  33.868  15.294  1.00  0.00    -0.131 NA
ATOM     36  N   UNL     1      30.368  33.159  15.332  1.00  0.00    -0.220 N 
ATOM     37  N   UNL     1      31.620  32.855  15.624  1.00  0.00    -0.062 NA
BRANCH  36  38
ATOM     38  C   UNL     1      29.230  32.336  15.532  1.00  0.00     0.067 A 
ATOM     39  C   UNL     1      29.400  30.979  15.726  1.00  0.00     0.030 A 
ATOM     40  C   UNL     1      27.938  32.818  15.545  1.00  0.00     0.040 A 
ATOM     41  C   UNL     1      28.332  30.129  15.926  1.00  0.00     0.030 A 
ATOM     42  C   UNL     1      26.866  31.997  15.741  1.00  0.00     0.022 A 
ATOM     43  C   UNL     1      27.040  30.628  15.937  1.00  0.00     0.065 A 
ATOM     44  C   UNL     1      25.507  32.199  15.800  1.00  0.00     0.143 A 
ATOM     45  N   UNL     1      25.832  30.067  16.102  1.00  0.00    -0.278 N 
ATOM     46  N   UNL     1      24.906  30.995  16.023  1.00  0.00    -0.183 NA
ATOM     47  H   UNL     1      25.665  29.056  16.266  1.00  0.00     0.190 HD
ENDBRANCH  36  38
ENDBRANCH  32  33
ENDBRANCH  31  32
ENDBRANCH  28  31
ENDBRANCH   1  27
TORSDOF 15
BEGIN_RES LYS A 131
REMARK  4 active torsions:
REMARK  status: ('A' for Active; 'I' for Inactive)
REMARK    1  A    between atoms: CA   and  CB  
REMARK    2  A    between atoms: CB   and  CG  
REMARK    3  A    between atoms: CG   and  CD  
REMARK    4  A    between atoms: CD   and  CE  
ROOT
ATOM      1  CA  LYS A 131      29.867  25.555  16.977  1.00 20.52     0.186 C 
ENDROOT
BRANCH   1   2
ATOM      2  CB  LYS A 131      28.345  25.722  17.026  1.00 20.94     0.034 C 
BRANCH   2   3
ATOM      3  CG  LYS A 131      27.603  24.395  16.984  1.00 22.96     0.005 C 
BRANCH   3   4
ATOM      4  CD  LYS A 131      26.190  24.520  17.481  1.00 24.33     0.041 C 
BRANCH   4   5
ATOM      5  CE  LYS A 131      25.858  23.330  18.376  1.00 26.91     0.338 C 
ATOM      6  NZ  LYS A 131      25.125  22.294  17.612  1.00 27.40     0.618 N 
ENDBRANCH   4   5
ENDBRANCH   3   4
ENDBRANCH   2   3
ENDBRANCH   1   2
END_RES LYS A 131
BEGIN_RES LYS A 135
REMARK  4 active torsions:
REMARK  status: ('A' for Active; 'I' for Inactive)
REMARK    5  A    between atoms: CA   and  CB  
REMARK    6  A    between atoms: CB   and  CG  
REMARK    7  A    between atoms: CG   and  CD  
REMARK    8  A    between atoms: CD   and  CE  
ROOT
ATOM      7  CA  LYS A 135      33.193  34.663   9.290  1.00 25.02     0.186 C 
ENDROOT
BRANCH   7   8
ATOM      8  CB  LYS A 135      32.060  35.360  10.034  1.00 26.63     0.034 C 
BRANCH   8   9
ATOM      9  CG  LYS A 135      30.745  34.628   9.952  1.00 29.45     0.005 C 
BRANCH   9  10
ATOM     10  CD  LYS A 135      30.354  34.388   8.502  1.00 32.00     0.041 C 
BRANCH  10  11
ATOM     11  CE  LYS A 135      28.852  34.501   8.329  1.00 34.25     0.338 C 
ATOM     12  NZ  LYS A 135      28.133  33.699   9.358  1.00 35.99     0.618 N 
ENDBRANCH  10  11
ENDBRANCH   9  10
ENDBRANCH   8   9
ENDBRANCH   7   8
END_RES LYS A 135
