REMARK VINA RESULT:    -5.966      4.815     12.318
REMARK INTER + INTRA:         -15.191
REMARK INTER:                  -9.719
REMARK INTRA:                  -5.472
REMARK UNBOUND:                -3.993
REMARK SMILES CC(=O)N[C@@H]1[C@@H](O)C[C@](O)(C(=O)O)O[C@H]1C(O)[C@H](O)CNC(=O)OCc1cn(Cc2ccc(C(=O)O)cc2)nn1
REMARK SMILES IDX 21 1 22 2 23 3 20 5 18 6 16 7 15 8 9 9 8 10 14 11 6 12 5 13
REMARK SMILES IDX 10 14 11 16 12 17 13 18 7 20 4 22 2 23 1 25 3 26 17 27 19 29
REMARK SMILES IDX 24 31 25 32 26 33 27 34 40 35 28 36 39 37 29 38 30 39 31 40
REMARK SMILES IDX 38 41 32 42 37 43 33 44 34 45 35 46 36 47
REMARK H PARENT 21 4 10 15 13 19 7 21 4 24 17 28 19 30 36 48
REMARK Flexibility Score: inf
ROOT
ATOM      1  N   UNL     1      26.090  36.070  11.858  1.00  0.00    -0.319 N 
ATOM      2  C   UNL     1      26.009  36.771  13.073  1.00  0.00     0.407 C 
ATOM      3  O   UNL     1      24.930  37.273  13.428  1.00  0.00    -0.225 OA
ATOM      4  H   UNL     1      27.052  35.674  11.626  1.00  0.00     0.167 HD
ENDROOT
BRANCH   1   5
ATOM      5  C   UNL     1      24.978  35.876  10.966  1.00  0.00     0.154 C 
BRANCH   5   6
ATOM      6  C   UNL     1      25.364  36.313   9.578  1.00  0.00     0.165 C 
BRANCH   6   7
ATOM      7  C   UNL     1      26.242  37.523   9.541  1.00  0.00     0.176 C 
BRANCH   7   8
ATOM      8  C   UNL     1      26.646  37.845   8.090  1.00  0.00     0.178 C 
ATOM      9  C   UNL     1      28.568  38.169   6.846  1.00  0.00     0.269 C 
ATOM     10  C   UNL     1      28.337  39.663   6.671  1.00  0.00     0.112 C 
ATOM     11  O   UNL     1      28.024  37.823   8.059  1.00  0.00    -0.332 OA
ATOM     12  C   UNL     1      26.877  39.975   6.741  1.00  0.00     0.145 C 
ATOM     13  C   UNL     1      26.140  39.213   7.808  1.00  0.00     0.142 C 
BRANCH   9  14
ATOM     14  O   UNL     1      29.982  38.056   6.976  1.00  0.00    -0.357 OA
ATOM     15  H   UNL     1      30.167  37.306   7.624  1.00  0.00     0.214 HD
ENDBRANCH   9  14
BRANCH   9  16
ATOM     16  C   UNL     1      28.112  37.402   5.683  1.00  0.00     0.364 C 
ATOM     17  O   UNL     1      28.008  37.995   4.556  1.00  0.00    -0.246 OA
BRANCH  16  18
ATOM     18  O   UNL     1      27.769  36.065   5.662  1.00  0.00    -0.477 OA
ATOM     19  H   UNL     1      27.003  35.777   6.255  1.00  0.00     0.296 HD
ENDBRANCH  16  18
ENDBRANCH   9  16
BRANCH  12  20
ATOM     20  O   UNL     1      26.771  41.347   7.070  1.00  0.00    -0.391 OA
ATOM     21  H   UNL     1      27.626  41.585   7.506  1.00  0.00     0.211 HD
ENDBRANCH  12  20
BRANCH  13  22
ATOM     22  N   UNL     1      24.719  39.255   7.531  1.00  0.00    -0.348 N 
ATOM     23  C   UNL     1      23.860  40.199   8.147  1.00  0.00     0.217 C 
ATOM     24  H   UNL     1      24.283  38.585   6.862  1.00  0.00     0.163 HD
ATOM     25  C   UNL     1      22.384  40.225   7.844  1.00  0.00     0.114 C 
ATOM     26  O   UNL     1      24.348  41.017   8.950  1.00  0.00    -0.275 OA
ENDBRANCH  13  22
ENDBRANCH   7   8
BRANCH   7  27
ATOM     27  O   UNL     1      25.736  38.627  10.182  1.00  0.00    -0.388 OA
ATOM     28  H   UNL     1      25.410  38.375  11.084  1.00  0.00     0.211 HD
ENDBRANCH   7  27
ENDBRANCH   6   7
BRANCH   6  29
ATOM     29  O   UNL     1      24.248  36.512   8.754  1.00  0.00    -0.388 OA
ATOM     30  H   UNL     1      24.508  36.329   7.807  1.00  0.00     0.211 HD
ENDBRANCH   6  29
ENDBRANCH   5   6
ENDBRANCH   1   5
BRANCH   2  31
ATOM     31  O   UNL     1      27.090  36.944  13.928  1.00  0.00    -0.443 OA
BRANCH  31  32
ATOM     32  C   UNL     1      28.350  37.416  13.516  1.00  0.00     0.294 C 
BRANCH  32  33
ATOM     33  C   UNL     1      29.309  36.294  13.446  1.00  0.00     0.120 A 
ATOM     34  C   UNL     1      30.326  36.040  14.367  1.00  0.00     0.138 A 
ATOM     35  N   UNL     1      29.431  35.311  12.532  1.00  0.00    -0.132 NA
ATOM     36  N   UNL     1      30.997  34.948  13.981  1.00  0.00    -0.248 N 
ATOM     37  N   UNL     1      30.438  34.527  12.872  1.00  0.00    -0.067 NA
BRANCH  36  38
ATOM     38  C   UNL     1      32.149  34.344  14.665  1.00  0.00     0.181 C 
BRANCH  38  39
ATOM     39  C   UNL     1      31.563  33.471  15.733  1.00  0.00    -0.026 A 
ATOM     40  C   UNL     1      31.087  32.233  15.402  1.00  0.00     0.006 A 
ATOM     41  C   UNL     1      31.487  33.884  17.040  1.00  0.00     0.006 A 
ATOM     42  C   UNL     1      30.530  31.397  16.374  1.00  0.00     0.016 A 
ATOM     43  C   UNL     1      30.933  33.053  18.008  1.00  0.00     0.016 A 
ATOM     44  C   UNL     1      30.448  31.801  17.685  1.00  0.00     0.059 A 
BRANCH  44  45
ATOM     45  C   UNL     1      29.873  30.938  18.708  1.00  0.00     0.335 C 
ATOM     46  O   UNL     1      28.673  30.997  19.054  1.00  0.00    -0.246 OA
BRANCH  45  47
ATOM     47  O   UNL     1      30.682  29.998  19.338  1.00  0.00    -0.478 OA
ATOM     48  H   UNL     1      30.311  29.123  19.663  1.00  0.00     0.297 HD
ENDBRANCH  45  47
ENDBRANCH  44  45
ENDBRANCH  38  39
ENDBRANCH  36  38
ENDBRANCH  32  33
ENDBRANCH  31  32
ENDBRANCH   2  31
TORSDOF 18
BEGIN_RES LYS A 131
REMARK  4 active torsions:
REMARK  status: ('A' for Active; 'I' for Inactive)
REMARK    1  A    between atoms: CA   and  CB  
REMARK    2  A    between atoms: CB   and  CG  
REMARK    3  A    between atoms: CG   and  CD  
REMARK    4  A    between atoms: CD   and  CE  
ROOT
ATOM      1  CA  LYS A 131      29.867  25.555  16.977  1.00 20.52     0.186 C 
ENDROOT
BRANCH   1   2
ATOM      2  CB  LYS A 131      28.345  25.722  17.026  1.00 20.94     0.034 C 
BRANCH   2   3
ATOM      3  CG  LYS A 131      27.603  24.396  16.962  1.00 22.96     0.005 C 
BRANCH   3   4
ATOM      4  CD  LYS A 131      26.170  24.527  17.400  1.00 24.33     0.041 C 
BRANCH   4   5
ATOM      5  CE  LYS A 131      25.533  23.143  17.477  1.00 26.91     0.338 C 
ATOM      6  NZ  LYS A 131      24.122  23.196  17.026  1.00 27.40     0.618 N 
ENDBRANCH   4   5
ENDBRANCH   3   4
ENDBRANCH   2   3
ENDBRANCH   1   2
END_RES LYS A 131
BEGIN_RES LYS A 135
REMARK  4 active torsions:
REMARK  status: ('A' for Active; 'I' for Inactive)
REMARK    5  A    between atoms: CA   and  CB  
REMARK    6  A    between atoms: CB   and  CG  
REMARK    7  A    between atoms: CG   and  CD  
REMARK    8  A    between atoms: CD   and  CE  
ROOT
ATOM      7  CA  LYS A 135      33.193  34.663   9.290  1.00 25.02     0.186 C 
ENDROOT
BRANCH   7   8
ATOM      8  CB  LYS A 135      32.060  35.360  10.034  1.00 26.63     0.034 C 
BRANCH   8   9
ATOM      9  CG  LYS A 135      30.803  35.508   9.216  1.00 29.45     0.005 C 
BRANCH   9  10
ATOM     10  CD  LYS A 135      30.142  34.156   8.998  1.00 32.00     0.041 C 
BRANCH  10  11
ATOM     11  CE  LYS A 135      28.675  34.329   8.655  1.00 34.25     0.338 C 
ATOM     12  NZ  LYS A 135      27.806  33.643   9.650  1.00 35.99     0.618 N 
ENDBRANCH  10  11
ENDBRANCH   9  10
ENDBRANCH   8   9
ENDBRANCH   7   8
END_RES LYS A 135
