REMARK VINA RESULT:    -5.858      3.418      7.916
REMARK INTER + INTRA:         -16.314
REMARK INTER:                 -10.861
REMARK INTRA:                  -5.453
REMARK UNBOUND:                -5.490
REMARK SMILES CC(=O)N[C@@H]1[C@@H](O)C[C@](O)(C(=O)O)O[C@H]1C(O)[C@H](O)CNC(=O)OCc1cn(C(c2ccccc2)c2ccccc2)nn1
REMARK SMILES IDX 21 1 22 2 23 3 20 5 18 6 16 7 15 8 9 9 8 10 14 11 6 12 5 13
REMARK SMILES IDX 10 14 11 16 12 17 13 18 7 20 4 22 2 23 1 25 3 26 17 27 19 29
REMARK SMILES IDX 24 31 25 32 26 33 27 34 43 35 28 36 42 37 29 38 30 39 31 40
REMARK SMILES IDX 35 41 32 42 34 43 33 44 36 45 37 46 41 47 38 48 40 49 39 50
REMARK H PARENT 21 4 10 15 13 19 7 21 4 24 17 28 19 30
REMARK Flexibility Score: inf
ROOT
ATOM      1  N   UNL     1      27.921  28.938  18.130  1.00  0.00    -0.319 N 
ATOM      2  C   UNL     1      28.229  30.206  17.590  1.00  0.00     0.407 C 
ATOM      3  O   UNL     1      27.910  31.249  18.208  1.00  0.00    -0.225 OA
ATOM      4  H   UNL     1      28.197  28.092  17.592  1.00  0.00     0.167 HD
ENDROOT
BRANCH   1   5
ATOM      5  C   UNL     1      27.248  28.801  19.383  1.00  0.00     0.154 C 
BRANCH   5   6
ATOM      6  C   UNL     1      28.065  27.869  20.281  1.00  0.00     0.165 C 
BRANCH   6   7
ATOM      7  C   UNL     1      29.233  28.705  20.778  1.00  0.00     0.176 C 
BRANCH   7   8
ATOM      8  C   UNL     1      29.750  28.321  22.136  1.00  0.00     0.178 C 
ATOM      9  C   UNL     1      31.883  29.317  22.074  1.00  0.00     0.269 C 
ATOM     10  C   UNL     1      32.546  27.960  21.976  1.00  0.00     0.112 C 
ATOM     11  O   UNL     1      30.611  29.324  22.536  1.00  0.00    -0.332 OA
ATOM     12  C   UNL     1      31.641  26.907  21.410  1.00  0.00     0.145 C 
ATOM     13  C   UNL     1      30.349  26.971  22.168  1.00  0.00     0.142 C 
BRANCH   9  14
ATOM     14  O   UNL     1      31.886  29.828  20.774  1.00  0.00    -0.357 OA
ATOM     15  H   UNL     1      31.381  30.688  20.806  1.00  0.00     0.214 HD
ENDBRANCH   9  14
BRANCH   9  16
ATOM     16  C   UNL     1      32.777  30.219  22.887  1.00  0.00     0.364 C 
ATOM     17  O   UNL     1      33.871  30.599  22.461  1.00  0.00    -0.246 OA
BRANCH  16  18
ATOM     18  O   UNL     1      32.341  30.616  24.129  1.00  0.00    -0.477 OA
ATOM     19  H   UNL     1      32.920  31.262  24.678  1.00  0.00     0.296 HD
ENDBRANCH  16  18
ENDBRANCH   9  16
BRANCH  12  20
ATOM     20  O   UNL     1      31.525  27.110  20.065  1.00  0.00    -0.391 OA
ATOM     21  H   UNL     1      32.408  27.303  19.646  1.00  0.00     0.211 HD
ENDBRANCH  12  20
BRANCH  13  22
ATOM     22  N   UNL     1      30.646  26.556  23.554  1.00  0.00    -0.348 N 
ATOM     23  C   UNL     1      29.724  25.839  24.335  1.00  0.00     0.217 C 
ATOM     24  H   UNL     1      31.574  26.814  23.951  1.00  0.00     0.163 HD
ATOM     25  C   UNL     1      30.063  25.441  25.726  1.00  0.00     0.114 C 
ATOM     26  O   UNL     1      28.596  25.524  23.866  1.00  0.00    -0.275 OA
ENDBRANCH  13  22
ENDBRANCH   7   8
BRANCH   7  27
ATOM     27  O   UNL     1      28.691  30.038  20.886  1.00  0.00    -0.388 OA
ATOM     28  H   UNL     1      28.225  30.287  20.073  1.00  0.00     0.211 HD
ENDBRANCH   7  27
ENDBRANCH   6   7
BRANCH   6  29
ATOM     29  O   UNL     1      28.471  26.831  19.456  1.00  0.00    -0.388 OA
ATOM     30  H   UNL     1      27.748  26.464  18.911  1.00  0.00     0.211 HD
ENDBRANCH   6  29
ENDBRANCH   5   6
ENDBRANCH   1   5
BRANCH   2  31
ATOM     31  O   UNL     1      28.887  30.345  16.374  1.00  0.00    -0.443 OA
BRANCH  31  32
ATOM     32  C   UNL     1      28.672  31.503  15.616  1.00  0.00     0.294 C 
BRANCH  32  33
ATOM     33  C   UNL     1      29.885  32.357  15.683  1.00  0.00     0.120 A 
ATOM     34  C   UNL     1      29.886  33.754  15.729  1.00  0.00     0.139 A 
ATOM     35  N   UNL     1      31.187  32.024  15.710  1.00  0.00    -0.132 NA
ATOM     36  N   UNL     1      31.149  34.185  15.780  1.00  0.00    -0.240 N 
ATOM     37  N   UNL     1      31.920  33.130  15.767  1.00  0.00    -0.066 NA
BRANCH  36  38
ATOM     38  C   UNL     1      31.623  35.560  15.838  1.00  0.00     0.169 C 
BRANCH  38  39
ATOM     39  C   UNL     1      32.759  35.700  16.750  1.00  0.00    -0.019 A 
ATOM     40  C   UNL     1      34.052  35.974  16.291  1.00  0.00     0.006 A 
ATOM     41  C   UNL     1      32.568  35.581  18.112  1.00  0.00     0.006 A 
ATOM     42  C   UNL     1      35.100  36.118  17.174  1.00  0.00     0.000 A 
ATOM     43  C   UNL     1      33.634  35.730  18.977  1.00  0.00     0.000 A 
ATOM     44  C   UNL     1      34.914  35.999  18.537  1.00  0.00     0.000 A 
ENDBRANCH  38  39
BRANCH  38  45
ATOM     45  C   UNL     1      31.767  36.185  14.521  1.00  0.00    -0.019 A 
ATOM     46  C   UNL     1      32.479  35.535  13.497  1.00  0.00     0.006 A 
ATOM     47  C   UNL     1      31.204  37.411  14.261  1.00  0.00     0.006 A 
ATOM     48  C   UNL     1      32.609  36.112  12.261  1.00  0.00     0.000 A 
ATOM     49  C   UNL     1      31.344  37.991  12.996  1.00  0.00     0.000 A 
ATOM     50  C   UNL     1      32.043  37.342  12.005  1.00  0.00     0.000 A 
ENDBRANCH  38  45
ENDBRANCH  36  38
ENDBRANCH  32  33
ENDBRANCH  31  32
ENDBRANCH   2  31
TORSDOF 17
BEGIN_RES LYS A 131
REMARK  4 active torsions:
REMARK  status: ('A' for Active; 'I' for Inactive)
REMARK    1  A    between atoms: CA   and  CB  
REMARK    2  A    between atoms: CB   and  CG  
REMARK    3  A    between atoms: CG   and  CD  
REMARK    4  A    between atoms: CD   and  CE  
ROOT
ATOM      1  CA  LYS A 131      29.867  25.555  16.977  1.00 20.52     0.186 C 
ENDROOT
BRANCH   1   2
ATOM      2  CB  LYS A 131      28.345  25.722  17.026  1.00 20.94     0.034 C 
BRANCH   2   3
ATOM      3  CG  LYS A 131      27.601  24.405  16.866  1.00 22.96     0.005 C 
BRANCH   3   4
ATOM      4  CD  LYS A 131      26.560  24.209  17.933  1.00 24.33     0.041 C 
BRANCH   4   5
ATOM      5  CE  LYS A 131      25.641  23.057  17.542  1.00 26.91     0.338 C 
ATOM      6  NZ  LYS A 131      24.309  23.568  17.141  1.00 27.40     0.618 N 
ENDBRANCH   4   5
ENDBRANCH   3   4
ENDBRANCH   2   3
ENDBRANCH   1   2
END_RES LYS A 131
BEGIN_RES LYS A 135
REMARK  4 active torsions:
REMARK  status: ('A' for Active; 'I' for Inactive)
REMARK    5  A    between atoms: CA   and  CB  
REMARK    6  A    between atoms: CB   and  CG  
REMARK    7  A    between atoms: CG   and  CD  
REMARK    8  A    between atoms: CD   and  CE  
ROOT
ATOM      7  CA  LYS A 135      33.193  34.663   9.290  1.00 25.02     0.186 C 
ENDROOT
BRANCH   7   8
ATOM      8  CB  LYS A 135      32.060  35.360  10.034  1.00 26.63     0.034 C 
BRANCH   8   9
ATOM      9  CG  LYS A 135      30.705  34.754   9.772  1.00 29.45     0.005 C 
BRANCH   9  10
ATOM     10  CD  LYS A 135      30.508  34.502   8.285  1.00 32.00     0.041 C 
BRANCH  10  11
ATOM     11  CE  LYS A 135      29.378  35.357   7.745  1.00 34.25     0.338 C 
ATOM     12  NZ  LYS A 135      28.599  35.978   8.852  1.00 35.99     0.618 N 
ENDBRANCH  10  11
ENDBRANCH   9  10
ENDBRANCH   8   9
ENDBRANCH   7   8
END_RES LYS A 135
