REMARK VINA RESULT:    -4.949      2.289      6.292
REMARK INTER + INTRA:         -14.552
REMARK INTER:                  -8.230
REMARK INTRA:                  -6.322
REMARK UNBOUND:                -5.118
REMARK SMILES COc1ccc(Cn2cc(COC(=O)NC[C@@H](O)C(O)[C@@H]3O[C@@](O)(C(=O)O)C[C@H](O)[C@H]3NC(C)=O)nn2)cc1OC
REMARK SMILES IDX 15 1 13 2 14 3 16 5 17 6 19 7 21 8 23 9 28 10 22 11 29 12
REMARK SMILES IDX 31 13 24 14 25 16 26 17 27 18 30 20 32 22 33 23 34 25 35 26
REMARK SMILES IDX 20 27 18 29 12 31 11 32 10 33 9 34 36 35 8 36 37 37 7 38
REMARK SMILES IDX 6 39 38 40 5 41 39 42 4 43 3 44 40 45 41 46 2 47 1 48
REMARK H PARENT 15 4 24 15 27 19 30 21 32 24 20 28 18 30
REMARK Flexibility Score: inf
ROOT
ATOM      1  N   UNL     1      29.703  30.487  19.219  1.00  0.00    -0.319 N 
ATOM      2  C   UNL     1      30.124  29.581  20.202  1.00  0.00     0.407 C 
ATOM      3  O   UNL     1      31.335  29.420  20.464  1.00  0.00    -0.225 OA
ATOM      4  H   UNL     1      28.653  30.556  19.050  1.00  0.00     0.167 HD
ENDROOT
BRANCH   1   5
ATOM      5  C   UNL     1      30.565  31.335  18.415  1.00  0.00     0.154 C 
BRANCH   5   6
ATOM      6  C   UNL     1      30.375  31.065  16.966  1.00  0.00     0.165 C 
BRANCH   6   7
ATOM      7  C   UNL     1      30.510  32.280  16.081  1.00  0.00     0.176 C 
BRANCH   7   8
ATOM      8  C   UNL     1      29.240  32.736  15.446  1.00  0.00     0.178 C 
ATOM      9  C   UNL     1      29.782  34.645  14.220  1.00  0.00     0.269 C 
ATOM     10  C   UNL     1      28.420  35.305  14.378  1.00  0.00     0.112 C 
ATOM     11  O   UNL     1      29.572  33.293  14.194  1.00  0.00    -0.332 OA
ATOM     12  C   UNL     1      27.504  34.370  15.114  1.00  0.00     0.145 C 
ATOM     13  C   UNL     1      28.302  33.569  16.207  1.00  0.00     0.142 C 
BRANCH   9  14
ATOM     14  O   UNL     1      30.672  35.086  15.193  1.00  0.00    -0.357 OA
ATOM     15  H   UNL     1      31.587  35.230  14.837  1.00  0.00     0.214 HD
ENDBRANCH   9  14
BRANCH   9  16
ATOM     16  C   UNL     1      30.362  35.043  12.905  1.00  0.00     0.364 C 
ATOM     17  O   UNL     1      29.830  35.982  12.268  1.00  0.00    -0.246 OA
BRANCH  16  18
ATOM     18  O   UNL     1      31.469  34.414  12.354  1.00  0.00    -0.477 OA
ATOM     19  H   UNL     1      32.059  33.771  12.897  1.00  0.00     0.296 HD
ENDBRANCH  16  18
ENDBRANCH   9  16
BRANCH  12  20
ATOM     20  O   UNL     1      26.458  35.038  15.741  1.00  0.00    -0.391 OA
ATOM     21  H   UNL     1      26.533  34.990  16.717  1.00  0.00     0.211 HD
ENDBRANCH  12  20
BRANCH  13  22
ATOM     22  N   UNL     1      27.241  32.765  16.833  1.00  0.00    -0.348 N 
ATOM     23  C   UNL     1      27.080  32.617  18.231  1.00  0.00     0.217 C 
ATOM     24  H   UNL     1      26.534  32.253  16.228  1.00  0.00     0.163 HD
ATOM     25  C   UNL     1      26.000  31.796  18.834  1.00  0.00     0.114 C 
ATOM     26  O   UNL     1      27.877  33.198  19.010  1.00  0.00    -0.275 OA
ENDBRANCH  13  22
ENDBRANCH   7   8
BRANCH   7  27
ATOM     27  O   UNL     1      31.356  31.885  14.967  1.00  0.00    -0.388 OA
ATOM     28  H   UNL     1      31.715  30.993  15.186  1.00  0.00     0.211 HD
ENDBRANCH   7  27
ENDBRANCH   6   7
BRANCH   6  29
ATOM     29  O   UNL     1      29.348  30.221  16.635  1.00  0.00    -0.388 OA
ATOM     30  H   UNL     1      28.909  30.432  15.789  1.00  0.00     0.211 HD
ENDBRANCH   6  29
ENDBRANCH   5   6
ENDBRANCH   1   5
BRANCH   2  31
ATOM     31  O   UNL     1      29.188  28.816  20.931  1.00  0.00    -0.443 OA
BRANCH  31  32
ATOM     32  C   UNL     1      28.758  27.571  20.360  1.00  0.00     0.294 C 
BRANCH  32  33
ATOM     33  C   UNL     1      27.382  27.652  19.875  1.00  0.00     0.120 A 
ATOM     34  C   UNL     1      26.954  27.442  18.589  1.00  0.00     0.138 A 
ATOM     35  N   UNL     1      26.302  27.937  20.618  1.00  0.00    -0.132 NA
ATOM     36  N   UNL     1      25.635  27.604  18.571  1.00  0.00    -0.248 N 
ATOM     37  N   UNL     1      25.259  27.901  19.797  1.00  0.00    -0.067 NA
BRANCH  36  38
ATOM     38  C   UNL     1      24.746  27.489  17.422  1.00  0.00     0.181 C 
BRANCH  38  39
ATOM     39  C   UNL     1      24.232  28.854  17.089  1.00  0.00    -0.023 A 
ATOM     40  C   UNL     1      24.875  29.602  16.104  1.00  0.00     0.056 A 
ATOM     41  C   UNL     1      23.135  29.408  17.713  1.00  0.00     0.010 A 
ATOM     42  C   UNL     1      24.430  30.856  15.763  1.00  0.00     0.161 A 
ATOM     43  C   UNL     1      22.664  30.666  17.392  1.00  0.00     0.051 A 
ATOM     44  C   UNL     1      23.325  31.372  16.415  1.00  0.00     0.160 A 
BRANCH  42  45
ATOM     45  O   UNL     1      25.062  31.616  14.782  1.00  0.00    -0.493 OA
ATOM     46  C   UNL     1      24.581  31.531  13.452  1.00  0.00     0.278 C 
ENDBRANCH  42  45
BRANCH  44  47
ATOM     47  O   UNL     1      22.885  32.638  16.063  1.00  0.00    -0.493 OA
ATOM     48  C   UNL     1      21.531  32.899  15.742  1.00  0.00     0.278 C 
ENDBRANCH  44  47
ENDBRANCH  38  39
ENDBRANCH  36  38
ENDBRANCH  32  33
ENDBRANCH  31  32
ENDBRANCH   2  31
TORSDOF 18
BEGIN_RES LYS A 131
REMARK  4 active torsions:
REMARK  status: ('A' for Active; 'I' for Inactive)
REMARK    1  A    between atoms: CA   and  CB  
REMARK    2  A    between atoms: CB   and  CG  
REMARK    3  A    between atoms: CG   and  CD  
REMARK    4  A    between atoms: CD   and  CE  
ROOT
ATOM      1  CA  LYS A 131      29.867  25.555  16.977  1.00 20.52     0.186 C 
ENDROOT
BRANCH   1   2
ATOM      2  CB  LYS A 131      28.345  25.722  17.026  1.00 20.94     0.034 C 
BRANCH   2   3
ATOM      3  CG  LYS A 131      27.599  24.457  16.631  1.00 22.96     0.005 C 
BRANCH   3   4
ATOM      4  CD  LYS A 131      27.179  23.650  17.828  1.00 24.33     0.041 C 
BRANCH   4   5
ATOM      5  CE  LYS A 131      25.713  23.929  18.141  1.00 26.91     0.338 C 
ATOM      6  NZ  LYS A 131      25.540  24.241  19.580  1.00 27.40     0.618 N 
ENDBRANCH   4   5
ENDBRANCH   3   4
ENDBRANCH   2   3
ENDBRANCH   1   2
END_RES LYS A 131
BEGIN_RES LYS A 135
REMARK  4 active torsions:
REMARK  status: ('A' for Active; 'I' for Inactive)
REMARK    5  A    between atoms: CA   and  CB  
REMARK    6  A    between atoms: CB   and  CG  
REMARK    7  A    between atoms: CG   and  CD  
REMARK    8  A    between atoms: CD   and  CE  
ROOT
ATOM      7  CA  LYS A 135      33.193  34.663   9.290  1.00 25.02     0.186 C 
ENDROOT
BRANCH   7   8
ATOM      8  CB  LYS A 135      32.060  35.360  10.034  1.00 26.63     0.034 C 
BRANCH   8   9
ATOM      9  CG  LYS A 135      30.796  35.487   9.224  1.00 29.45     0.005 C 
BRANCH   9  10
ATOM     10  CD  LYS A 135      30.204  34.117   8.934  1.00 32.00     0.041 C 
BRANCH  10  11
ATOM     11  CE  LYS A 135      28.724  34.094   9.267  1.00 34.25     0.338 C 
ATOM     12  NZ  LYS A 135      27.924  34.760   8.202  1.00 35.99     0.618 N 
ENDBRANCH  10  11
ENDBRANCH   9  10
ENDBRANCH   8   9
ENDBRANCH   7   8
END_RES LYS A 135
