REMARK VINA RESULT:    -7.915      3.692      7.773
REMARK INTER + INTRA:         -13.444
REMARK INTER:                  -9.656
REMARK INTRA:                  -3.787
REMARK UNBOUND:                 3.032
REMARK SMILES CC(=O)N[C@@H]1[C@@H](O)C[C@](O)(C(=O)O)O[C@H]1C(O)[C@H](O)CNC(=O)OCc1cn(C2CC(O)C=C[C@@H](O)C2)nn1
REMARK SMILES IDX 21 1 22 2 23 3 20 5 18 6 16 7 15 8 9 9 8 10 14 11 6 12 5 13
REMARK SMILES IDX 10 14 11 16 12 17 13 18 7 20 4 22 2 23 1 25 3 26 17 27 19 29
REMARK SMILES IDX 24 31 25 32 26 33 27 34 39 35 28 36 38 37 29 38 30 39 31 40
REMARK SMILES IDX 32 42 37 44 35 45 34 46 33 47 36 49
REMARK H PARENT 21 4 10 15 13 19 7 21 4 24 17 28 19 30 32 43 36 50
REMARK Flexibility Score: 90.00
ROOT
ATOM      1  N   UNL     1      23.829  36.222  10.150  1.00  0.00    -0.319 N 
ATOM      2  C   UNL     1      24.504  36.666  11.326  1.00  0.00     0.407 C 
ATOM      3  O   UNL     1      24.514  37.869  11.694  1.00  0.00    -0.225 OA
ATOM      4  H   UNL     1      23.839  35.217   9.869  1.00  0.00     0.167 HD
ENDROOT
BRANCH   1   5
ATOM      5  C   UNL     1      23.137  37.256   9.379  1.00  0.00     0.154 C 
BRANCH   5   6
ATOM      6  C   UNL     1      23.674  37.169   7.962  1.00  0.00     0.165 C 
BRANCH   6   7
ATOM      7  C   UNL     1      24.991  37.890   7.794  1.00  0.00     0.176 C 
BRANCH   7   8
ATOM      8  C   UNL     1      26.136  36.949   7.588  1.00  0.00     0.178 C 
ATOM      9  C   UNL     1      27.840  35.739   8.499  1.00  0.00     0.269 C 
ATOM     10  C   UNL     1      27.904  35.248   7.069  1.00  0.00     0.112 C 
ATOM     11  O   UNL     1      26.690  36.478   8.748  1.00  0.00    -0.332 OA
ATOM     12  C   UNL     1      27.932  36.396   6.080  1.00  0.00     0.145 C 
ATOM     13  C   UNL     1      27.238  37.551   6.743  1.00  0.00     0.142 C 
BRANCH   9  14
ATOM     14  O   UNL     1      28.994  36.432   8.849  1.00  0.00    -0.357 OA
ATOM     15  H   UNL     1      29.245  36.280   9.798  1.00  0.00     0.214 HD
ENDBRANCH   9  14
BRANCH   9  16
ATOM     16  C   UNL     1      27.763  34.532   9.357  1.00  0.00     0.364 C 
ATOM     17  O   UNL     1      28.704  33.697   9.439  1.00  0.00    -0.246 OA
BRANCH  16  18
ATOM     18  O   UNL     1      26.625  34.305  10.099  1.00  0.00    -0.477 OA
ATOM     19  H   UNL     1      25.682  34.306   9.721  1.00  0.00     0.296 HD
ENDBRANCH  16  18
ENDBRANCH   9  16
BRANCH  12  20
ATOM     20  O   UNL     1      29.248  36.641   5.764  1.00  0.00    -0.391 OA
ATOM     21  H   UNL     1      29.287  37.549   5.329  1.00  0.00     0.211 HD
ENDBRANCH  12  20
BRANCH  13  22
ATOM     22  N   UNL     1      26.795  38.575   5.872  1.00  0.00    -0.348 N 
ATOM     23  C   UNL     1      27.597  39.627   5.355  1.00  0.00     0.217 C 
ATOM     24  H   UNL     1      25.795  38.570   5.578  1.00  0.00     0.163 HD
ATOM     25  C   UNL     1      27.033  40.664   4.440  1.00  0.00     0.114 C 
ATOM     26  O   UNL     1      28.797  39.655   5.693  1.00  0.00    -0.275 OA
ENDBRANCH  13  22
ENDBRANCH   7   8
BRANCH   7  27
ATOM     27  O   UNL     1      25.191  38.829   8.776  1.00  0.00    -0.388 OA
ATOM     28  H   UNL     1      24.317  39.174   9.063  1.00  0.00     0.211 HD
ENDBRANCH   7  27
ENDBRANCH   6   7
BRANCH   6  29
ATOM     29  O   UNL     1      22.774  37.819   7.086  1.00  0.00    -0.388 OA
ATOM     30  H   UNL     1      22.870  37.471   6.155  1.00  0.00     0.211 HD
ENDBRANCH   6  29
ENDBRANCH   5   6
ENDBRANCH   1   5
BRANCH   2  31
ATOM     31  O   UNL     1      25.177  35.755  12.104  1.00  0.00    -0.443 OA
BRANCH  31  32
ATOM     32  C   UNL     1      24.550  34.731  12.856  1.00  0.00     0.294 C 
BRANCH  32  33
ATOM     33  C   UNL     1      25.377  34.452  14.053  1.00  0.00     0.120 A 
ATOM     34  C   UNL     1      26.704  34.092  14.132  1.00  0.00     0.138 A 
ATOM     35  N   UNL     1      24.923  34.514  15.320  1.00  0.00    -0.132 NA
ATOM     36  N   UNL     1      27.025  33.944  15.431  1.00  0.00    -0.249 N 
ATOM     37  N   UNL     1      25.913  34.211  16.119  1.00  0.00    -0.067 NA
BRANCH  36  38
ATOM     38  C   UNL     1      28.336  33.567  15.962  1.00  0.00     0.115 C 
BRANCH  38  39
ATOM     39  C   UNL     1      29.287  33.504  14.815  1.00  0.00     0.063 C 
BRANCH  39  40
ATOM     40  C   UNL     1      30.726  33.496  15.195  1.00  0.00     0.139 CG0
ATOM     41  G   UNL     1      31.167  32.233  15.808  1.00  0.00     0.000 G0
BRANCH  40  42
ATOM     42  O   UNL     1      31.566  33.897  14.133  1.00  0.00    -0.389 OA
ATOM     43  H   UNL     1      31.442  33.273  13.386  1.00  0.00     0.211 HD
ENDBRANCH  40  42
ENDBRANCH  39  40
ENDBRANCH  38  39
BRANCH  38  44
ATOM     44  C   UNL     1      28.173  32.284  16.701  1.00  0.00     0.063 C 
BRANCH  44  45
ATOM     45  C   UNL     1      28.898  31.120  16.097  1.00  0.00     0.139 C 
BRANCH  45  46
ATOM     46  C   UNL     1      30.371  31.228  16.185  1.00  0.00     0.002 C 
ATOM     47  C   UNL     1      31.138  32.225  15.805  1.00  0.00     0.002 CG0
ATOM     48  G   UNL     1      30.754  33.507  15.190  1.00  0.00     0.000 G0
ENDBRANCH  45  46
BRANCH  45  49
ATOM     49  O   UNL     1      28.451  29.896  16.589  1.00  0.00    -0.389 OA
ATOM     50  H   UNL     1      29.204  29.277  16.766  1.00  0.00     0.211 HD
ENDBRANCH  45  49
ENDBRANCH  44  45
ENDBRANCH  38  44
ENDBRANCH  36  38
ENDBRANCH  32  33
ENDBRANCH  31  32
ENDBRANCH   2  31
TORSDOF 17
BEGIN_RES LYS A 131
REMARK  4 active torsions:
REMARK  status: ('A' for Active; 'I' for Inactive)
REMARK    1  A    between atoms: CA   and  CB  
REMARK    2  A    between atoms: CB   and  CG  
REMARK    3  A    between atoms: CG   and  CD  
REMARK    4  A    between atoms: CD   and  CE  
ROOT
ATOM      1  CA  LYS A 131      29.867  25.555  16.977  1.00 20.52     0.186 C 
ENDROOT
BRANCH   1   2
ATOM      2  CB  LYS A 131      28.345  25.722  17.026  1.00 20.94     0.034 C 
BRANCH   2   3
ATOM      3  CG  LYS A 131      27.599  24.480  16.564  1.00 22.96     0.005 C 
BRANCH   3   4
ATOM      4  CD  LYS A 131      26.969  23.738  17.710  1.00 24.33     0.041 C 
BRANCH   4   5
ATOM      5  CE  LYS A 131      25.488  23.516  17.421  1.00 26.91     0.338 C 
ATOM      6  NZ  LYS A 131      24.956  22.412  18.253  1.00 27.40     0.618 N 
ENDBRANCH   4   5
ENDBRANCH   3   4
ENDBRANCH   2   3
ENDBRANCH   1   2
END_RES LYS A 131
BEGIN_RES LYS A 135
REMARK  4 active torsions:
REMARK  status: ('A' for Active; 'I' for Inactive)
REMARK    5  A    between atoms: CA   and  CB  
REMARK    6  A    between atoms: CB   and  CG  
REMARK    7  A    between atoms: CG   and  CD  
REMARK    8  A    between atoms: CD   and  CE  
ROOT
ATOM      7  CA  LYS A 135      33.193  34.663   9.290  1.00 25.02     0.186 C 
ENDROOT
BRANCH   7   8
ATOM      8  CB  LYS A 135      32.060  35.360  10.034  1.00 26.63     0.034 C 
BRANCH   8   9
ATOM      9  CG  LYS A 135      32.444  35.829  11.414  1.00 29.45     0.005 C 
BRANCH   9  10
ATOM     10  CD  LYS A 135      31.907  37.228  11.674  1.00 32.00     0.041 C 
BRANCH  10  11
ATOM     11  CE  LYS A 135      31.830  38.018  10.381  1.00 34.25     0.338 C 
ATOM     12  NZ  LYS A 135      30.635  38.906  10.365  1.00 35.99     0.618 N 
ENDBRANCH  10  11
ENDBRANCH   9  10
ENDBRANCH   8   9
ENDBRANCH   7   8
END_RES LYS A 135
