REMARK VINA RESULT:    -5.436      9.079     14.532
REMARK INTER + INTRA:         -14.475
REMARK INTER:                  -9.347
REMARK INTRA:                  -5.128
REMARK UNBOUND:                -4.749
REMARK SMILES CC(=O)N[C@@H]1[C@@H](O)C[C@](O)(C(=O)O)O[C@H]1C(O)[C@H](O)CNC(=O)OCc1cn(-c2ccc([N+](=O)[O-])cc2)nn1
REMARK SMILES IDX 21 1 22 2 23 3 20 5 18 6 16 7 15 8 9 9 8 10 14 11 6 12 5 13
REMARK SMILES IDX 10 14 11 16 12 17 13 18 7 20 4 22 2 23 1 25 3 26 17 27 19 29
REMARK SMILES IDX 24 31 25 32 26 33 27 34 39 35 28 36 38 37 29 38 30 39 37 40
REMARK SMILES IDX 31 41 36 42 32 43 33 44 34 45 35 46
REMARK H PARENT 21 4 10 15 13 19 7 21 4 24 17 28 19 30
REMARK Flexibility Score: inf
ROOT
ATOM      1  N   UNL     1      21.491  32.953  13.365  1.00  0.00    -0.319 N 
ATOM      2  C   UNL     1      22.388  31.907  13.076  1.00  0.00     0.407 C 
ATOM      3  O   UNL     1      22.060  30.879  12.457  1.00  0.00    -0.225 OA
ATOM      4  H   UNL     1      21.906  33.802  13.884  1.00  0.00     0.167 HD
ENDROOT
BRANCH   1   5
ATOM      5  C   UNL     1      20.121  32.960  13.031  1.00  0.00     0.154 C 
BRANCH   5   6
ATOM      6  C   UNL     1      19.673  33.458  11.716  1.00  0.00     0.165 C 
BRANCH   6   7
ATOM      7  C   UNL     1      20.201  34.673  11.106  1.00  0.00     0.176 C 
BRANCH   7   8
ATOM      8  C   UNL     1      19.276  35.234  10.020  1.00  0.00     0.178 C 
ATOM      9  C   UNL     1      18.442  34.594   7.945  1.00  0.00     0.269 C 
ATOM     10  C   UNL     1      17.794  35.958   8.011  1.00  0.00     0.112 C 
ATOM     11  O   UNL     1      18.970  34.172   9.144  1.00  0.00    -0.332 OA
ATOM     12  C   UNL     1      18.732  37.024   8.483  1.00  0.00     0.145 C 
ATOM     13  C   UNL     1      19.891  36.309   9.201  1.00  0.00     0.142 C 
BRANCH   9  14
ATOM     14  O   UNL     1      19.372  34.628   6.921  1.00  0.00    -0.357 OA
ATOM     15  H   UNL     1      20.130  35.182   7.194  1.00  0.00     0.214 HD
ENDBRANCH   9  14
BRANCH   9  16
ATOM     16  C   UNL     1      17.370  33.634   7.573  1.00  0.00     0.364 C 
ATOM     17  O   UNL     1      16.529  33.246   8.424  1.00  0.00    -0.246 OA
BRANCH  16  18
ATOM     18  O   UNL     1      17.269  33.141   6.283  1.00  0.00    -0.477 OA
ATOM     19  H   UNL     1      17.466  33.720   5.463  1.00  0.00     0.296 HD
ENDBRANCH  16  18
ENDBRANCH   9  16
BRANCH  12  20
ATOM     20  O   UNL     1      19.196  37.857   7.491  1.00  0.00    -0.391 OA
ATOM     21  H   UNL     1      18.452  38.445   7.207  1.00  0.00     0.211 HD
ENDBRANCH  12  20
BRANCH  13  22
ATOM     22  N   UNL     1      20.568  37.346   9.952  1.00  0.00    -0.348 N 
ATOM     23  C   UNL     1      21.781  37.931   9.457  1.00  0.00     0.217 C 
ATOM     24  H   UNL     1      20.218  37.707  10.859  1.00  0.00     0.163 HD
ATOM     25  C   UNL     1      22.523  38.993  10.170  1.00  0.00     0.114 C 
ATOM     26  O   UNL     1      22.217  37.509   8.365  1.00  0.00    -0.275 OA
ENDBRANCH  13  22
ENDBRANCH   7   8
BRANCH   7  27
ATOM     27  O   UNL     1      21.475  34.499  10.632  1.00  0.00    -0.388 OA
ATOM     28  H   UNL     1      21.581  33.876   9.880  1.00  0.00     0.211 HD
ENDBRANCH   7  27
ENDBRANCH   6   7
BRANCH   6  29
ATOM     29  O   UNL     1      18.250  33.444  11.779  1.00  0.00    -0.388 OA
ATOM     30  H   UNL     1      17.952  33.721  12.684  1.00  0.00     0.211 HD
ENDBRANCH   6  29
ENDBRANCH   5   6
ENDBRANCH   1   5
BRANCH   2  31
ATOM     31  O   UNL     1      23.720  32.055  13.522  1.00  0.00    -0.443 OA
BRANCH  31  32
ATOM     32  C   UNL     1      24.089  33.346  13.966  1.00  0.00     0.294 C 
BRANCH  32  33
ATOM     33  C   UNL     1      24.264  34.263  12.788  1.00  0.00     0.121 A 
ATOM     34  C   UNL     1      25.193  34.161  11.776  1.00  0.00     0.144 A 
ATOM     35  N   UNL     1      23.548  35.373  12.484  1.00  0.00    -0.131 NA
ATOM     36  N   UNL     1      25.033  35.180  10.898  1.00  0.00    -0.220 N 
ATOM     37  N   UNL     1      24.026  35.881  11.374  1.00  0.00    -0.062 NA
BRANCH  36  38
ATOM     38  C   UNL     1      25.799  35.424   9.721  1.00  0.00     0.067 A 
ATOM     39  C   UNL     1      26.805  34.576   9.310  1.00  0.00     0.035 A 
ATOM     40  C   UNL     1      25.561  36.536   8.933  1.00  0.00     0.035 A 
ATOM     41  C   UNL     1      27.533  34.832   8.165  1.00  0.00     0.088 A 
ATOM     42  C   UNL     1      26.289  36.793   7.788  1.00  0.00     0.088 A 
ATOM     43  C   UNL     1      27.295  35.946   7.374  1.00  0.00     0.269 A 
BRANCH  43  44
ATOM     44  N   UNL     1      28.036  36.216   6.200  1.00  0.00     0.062 N 
ATOM     45  O   UNL     1      29.069  35.560   5.985  1.00  0.00    -0.258 OA
ATOM     46  O   UNL     1      27.681  37.160   5.279  1.00  0.00    -0.258 OA
ENDBRANCH  43  44
ENDBRANCH  36  38
ENDBRANCH  32  33
ENDBRANCH  31  32
ENDBRANCH   2  31
TORSDOF 16
BEGIN_RES LYS A 131
REMARK  4 active torsions:
REMARK  status: ('A' for Active; 'I' for Inactive)
REMARK    1  A    between atoms: CA   and  CB  
REMARK    2  A    between atoms: CB   and  CG  
REMARK    3  A    between atoms: CG   and  CD  
REMARK    4  A    between atoms: CD   and  CE  
ROOT
ATOM      1  CA  LYS A 131      29.867  25.555  16.977  1.00 20.52     0.186 C 
ENDROOT
BRANCH   1   2
ATOM      2  CB  LYS A 131      28.345  25.722  17.026  1.00 20.94     0.034 C 
BRANCH   2   3
ATOM      3  CG  LYS A 131      27.601  24.402  16.890  1.00 22.96     0.005 C 
BRANCH   3   4
ATOM      4  CD  LYS A 131      26.158  24.521  17.296  1.00 24.33     0.041 C 
BRANCH   4   5
ATOM      5  CE  LYS A 131      25.834  23.456  18.339  1.00 26.91     0.338 C 
ATOM      6  NZ  LYS A 131      25.496  24.087  19.637  1.00 27.40     0.618 N 
ENDBRANCH   4   5
ENDBRANCH   3   4
ENDBRANCH   2   3
ENDBRANCH   1   2
END_RES LYS A 131
BEGIN_RES LYS A 135
REMARK  4 active torsions:
REMARK  status: ('A' for Active; 'I' for Inactive)
REMARK    5  A    between atoms: CA   and  CB  
REMARK    6  A    between atoms: CB   and  CG  
REMARK    7  A    between atoms: CG   and  CD  
REMARK    8  A    between atoms: CD   and  CE  
ROOT
ATOM      7  CA  LYS A 135      33.193  34.663   9.290  1.00 25.02     0.186 C 
ENDROOT
BRANCH   7   8
ATOM      8  CB  LYS A 135      32.060  35.360  10.034  1.00 26.63     0.034 C 
BRANCH   8   9
ATOM      9  CG  LYS A 135      32.518  36.126  11.248  1.00 29.45     0.005 C 
BRANCH   9  10
ATOM     10  CD  LYS A 135      31.914  35.538  12.514  1.00 32.00     0.041 C 
BRANCH  10  11
ATOM     11  CE  LYS A 135      30.602  34.842  12.204  1.00 34.25     0.338 C 
ATOM     12  NZ  LYS A 135      29.445  35.749  12.438  1.00 35.99     0.618 N 
ENDBRANCH  10  11
ENDBRANCH   9  10
ENDBRANCH   8   9
ENDBRANCH   7   8
END_RES LYS A 135
