REMARK VINA RESULT:    -5.071      2.328      3.269
REMARK INTER + INTRA:         -15.076
REMARK INTER:                 -10.640
REMARK INTRA:                  -4.436
REMARK UNBOUND:                -6.003
REMARK SMILES CC(=O)N[C@@H]1[C@@H](O)C[C@](O)(C(=O)O)O[C@H]1C(O)[C@H](O)CNC(=O)OCc1cn(Cc2ccc3c(c2)OCO3)nn1
REMARK SMILES IDX 21 1 22 2 23 3 20 5 18 6 16 7 15 8 9 9 8 10 14 11 6 12 5 13
REMARK SMILES IDX 10 14 11 16 12 17 13 18 7 20 4 22 2 23 1 25 3 26 17 27 19 29
REMARK SMILES IDX 24 31 25 32 26 33 27 34 40 35 28 36 39 37 29 38 30 39 31 40
REMARK SMILES IDX 35 41 32 42 34 43 33 44 36 45 38 46 37 47
REMARK H PARENT 21 4 10 15 13 19 7 21 4 24 17 28 19 30
REMARK Flexibility Score: inf
ROOT
ATOM      1  N   UNL     1      25.949  36.167  11.476  1.00  0.00    -0.319 N 
ATOM      2  C   UNL     1      25.832  35.043  12.340  1.00  0.00     0.407 C 
ATOM      3  O   UNL     1      24.724  34.417  12.408  1.00  0.00    -0.225 OA
ATOM      4  H   UNL     1      26.857  36.654  11.442  1.00  0.00     0.167 HD
ENDROOT
BRANCH   1   5
ATOM      5  C   UNL     1      24.786  36.540  10.712  1.00  0.00     0.154 C 
BRANCH   5   6
ATOM      6  C   UNL     1      24.780  35.986   9.322  1.00  0.00     0.165 C 
BRANCH   6   7
ATOM      7  C   UNL     1      25.314  36.965   8.301  1.00  0.00     0.176 C 
BRANCH   7   8
ATOM      8  C   UNL     1      26.441  36.332   7.488  1.00  0.00     0.178 C 
ATOM      9  C   UNL     1      28.321  35.480   8.547  1.00  0.00     0.269 C 
ATOM     10  C   UNL     1      29.262  35.909   7.445  1.00  0.00     0.112 C 
ATOM     11  O   UNL     1      27.032  35.292   8.140  1.00  0.00    -0.332 OA
ATOM     12  C   UNL     1      28.537  36.627   6.325  1.00  0.00     0.145 C 
ATOM     13  C   UNL     1      27.388  37.377   6.959  1.00  0.00     0.142 C 
BRANCH   9  14
ATOM     14  O   UNL     1      28.387  36.379   9.630  1.00  0.00    -0.357 OA
ATOM     15  H   UNL     1      29.227  36.872   9.656  1.00  0.00     0.214 HD
ENDBRANCH   9  14
BRANCH   9  16
ATOM     16  C   UNL     1      28.833  34.181   9.064  1.00  0.00     0.364 C 
ATOM     17  O   UNL     1      28.049  33.369   9.642  1.00  0.00    -0.246 OA
BRANCH  16  18
ATOM     18  O   UNL     1      30.153  33.781   8.953  1.00  0.00    -0.477 OA
ATOM     19  H   UNL     1      30.427  33.272   8.107  1.00  0.00     0.296 HD
ENDBRANCH  16  18
ENDBRANCH   9  16
BRANCH  12  20
ATOM     20  O   UNL     1      29.393  37.462   5.614  1.00  0.00    -0.391 OA
ATOM     21  H   UNL     1      30.148  37.688   6.209  1.00  0.00     0.211 HD
ENDBRANCH  12  20
BRANCH  13  22
ATOM     22  N   UNL     1      26.715  38.257   6.073  1.00  0.00    -0.348 N 
ATOM     23  C   UNL     1      27.012  39.643   6.003  1.00  0.00     0.217 C 
ATOM     24  H   UNL     1      25.963  37.838   5.449  1.00  0.00     0.163 HD
ATOM     25  C   UNL     1      26.283  40.545   5.055  1.00  0.00     0.114 C 
ATOM     26  O   UNL     1      27.913  40.065   6.772  1.00  0.00    -0.275 OA
ENDBRANCH  13  22
ENDBRANCH   7   8
BRANCH   7  27
ATOM     27  O   UNL     1      25.868  38.039   8.995  1.00  0.00    -0.388 OA
ATOM     28  H   UNL     1      26.672  37.740   9.487  1.00  0.00     0.211 HD
ENDBRANCH   7  27
ENDBRANCH   6   7
BRANCH   6  29
ATOM     29  O   UNL     1      23.465  35.645   9.008  1.00  0.00    -0.388 OA
ATOM     30  H   UNL     1      23.028  36.327   8.442  1.00  0.00     0.211 HD
ENDBRANCH   6  29
ENDBRANCH   5   6
ENDBRANCH   1   5
BRANCH   2  31
ATOM     31  O   UNL     1      26.883  34.587  13.128  1.00  0.00    -0.443 OA
BRANCH  31  32
ATOM     32  C   UNL     1      26.671  34.450  14.529  1.00  0.00     0.294 C 
BRANCH  32  33
ATOM     33  C   UNL     1      27.744  33.631  15.137  1.00  0.00     0.120 A 
ATOM     34  C   UNL     1      29.036  33.590  14.699  1.00  0.00     0.138 A 
ATOM     35  N   UNL     1      27.674  32.806  16.182  1.00  0.00    -0.132 NA
ATOM     36  N   UNL     1      29.711  32.742  15.489  1.00  0.00    -0.248 N 
ATOM     37  N   UNL     1      28.873  32.275  16.383  1.00  0.00    -0.067 NA
BRANCH  36  38
ATOM     38  C   UNL     1      31.115  32.417  15.358  1.00  0.00     0.181 C 
BRANCH  38  39
ATOM     39  C   UNL     1      31.881  33.646  15.710  1.00  0.00    -0.023 A 
ATOM     40  C   UNL     1      32.645  34.248  14.737  1.00  0.00     0.010 A 
ATOM     41  C   UNL     1      31.848  34.191  16.968  1.00  0.00     0.056 A 
ATOM     42  C   UNL     1      33.369  35.396  15.043  1.00  0.00     0.051 A 
ATOM     43  C   UNL     1      32.568  35.331  17.268  1.00  0.00     0.166 A 
ATOM     44  C   UNL     1      33.332  35.941  16.310  1.00  0.00     0.165 A 
ATOM     45  O   UNL     1      32.681  36.041  18.448  1.00  0.00    -0.454 OA
ATOM     46  O   UNL     1      33.947  37.049  16.855  1.00  0.00    -0.454 OA
ATOM     47  C   UNL     1      33.361  37.237  18.136  1.00  0.00     0.468 C 
ENDBRANCH  38  39
ENDBRANCH  36  38
ENDBRANCH  32  33
ENDBRANCH  31  32
ENDBRANCH   2  31
TORSDOF 16
BEGIN_RES LYS A 131
REMARK  4 active torsions:
REMARK  status: ('A' for Active; 'I' for Inactive)
REMARK    1  A    between atoms: CA   and  CB  
REMARK    2  A    between atoms: CB   and  CG  
REMARK    3  A    between atoms: CG   and  CD  
REMARK    4  A    between atoms: CD   and  CE  
ROOT
ATOM      1  CA  LYS A 131      29.867  25.555  16.977  1.00 20.52     0.186 C 
ENDROOT
BRANCH   1   2
ATOM      2  CB  LYS A 131      28.345  25.722  17.026  1.00 20.94     0.034 C 
BRANCH   2   3
ATOM      3  CG  LYS A 131      27.601  24.403  16.888  1.00 22.96     0.005 C 
BRANCH   3   4
ATOM      4  CD  LYS A 131      26.663  24.159  18.037  1.00 24.33     0.041 C 
BRANCH   4   5
ATOM      5  CE  LYS A 131      25.564  23.194  17.602  1.00 26.91     0.338 C 
ATOM      6  NZ  LYS A 131      24.450  23.932  16.961  1.00 27.40     0.618 N 
ENDBRANCH   4   5
ENDBRANCH   3   4
ENDBRANCH   2   3
ENDBRANCH   1   2
END_RES LYS A 131
BEGIN_RES LYS A 135
REMARK  4 active torsions:
REMARK  status: ('A' for Active; 'I' for Inactive)
REMARK    5  A    between atoms: CA   and  CB  
REMARK    6  A    between atoms: CB   and  CG  
REMARK    7  A    between atoms: CG   and  CD  
REMARK    8  A    between atoms: CD   and  CE  
ROOT
ATOM      7  CA  LYS A 135      33.193  34.663   9.290  1.00 25.02     0.186 C 
ENDROOT
BRANCH   7   8
ATOM      8  CB  LYS A 135      32.060  35.360  10.034  1.00 26.63     0.034 C 
BRANCH   8   9
ATOM      9  CG  LYS A 135      32.496  36.016  11.319  1.00 29.45     0.005 C 
BRANCH   9  10
ATOM     10  CD  LYS A 135      31.764  37.333  11.525  1.00 32.00     0.041 C 
BRANCH  10  11
ATOM     11  CE  LYS A 135      31.969  38.248  10.333  1.00 34.25     0.338 C 
ATOM     12  NZ  LYS A 135      30.685  38.871   9.908  1.00 35.99     0.618 N 
ENDBRANCH  10  11
ENDBRANCH   9  10
ENDBRANCH   8   9
ENDBRANCH   7   8
END_RES LYS A 135
