REMARK VINA RESULT:    -4.949      5.477      8.733
REMARK INTER + INTRA:         -15.149
REMARK INTER:                 -10.358
REMARK INTRA:                  -4.791
REMARK UNBOUND:                -6.295
REMARK SMILES CC(=O)N[C@@H]1[C@@H](O)C[C@](O)(C(=O)O)O[C@H]1C(O)[C@H](O)CNC(=O)OCc1cn(Cc2cccc(Br)c2)nn1
REMARK SMILES IDX 21 1 22 2 23 3 20 5 18 6 16 7 15 8 9 9 8 10 14 11 6 12 5 13
REMARK SMILES IDX 10 14 11 16 12 17 13 18 7 20 4 22 2 23 1 25 3 26 17 27 19 29
REMARK SMILES IDX 24 31 25 32 26 33 27 34 38 35 28 36 37 37 29 38 30 39 31 40
REMARK SMILES IDX 36 41 32 42 34 43 33 44 35 45
REMARK H PARENT 21 4 10 15 13 19 7 21 4 24 17 28 19 30
REMARK Flexibility Score: inf
ROOT
ATOM      1  N   UNL     1      30.906  39.278  10.836  1.00  0.00    -0.319 N 
ATOM      2  C   UNL     1      30.438  40.140  11.856  1.00  0.00     0.407 C 
ATOM      3  O   UNL     1      30.316  41.390  11.645  1.00  0.00    -0.225 OA
ATOM      4  H   UNL     1      30.990  38.262  11.052  1.00  0.00     0.167 HD
ENDROOT
BRANCH   1   5
ATOM      5  C   UNL     1      31.233  39.874   9.569  1.00  0.00     0.154 C 
BRANCH   5   6
ATOM      6  C   UNL     1      30.770  38.989   8.402  1.00  0.00     0.165 C 
BRANCH   6   7
ATOM      7  C   UNL     1      29.295  38.863   8.553  1.00  0.00     0.176 C 
BRANCH   7   8
ATOM      8  C   UNL     1      28.741  37.469   8.517  1.00  0.00     0.178 C 
ATOM      9  C   UNL     1      29.116  35.540   7.255  1.00  0.00     0.269 C 
ATOM     10  C   UNL     1      27.657  35.191   7.480  1.00  0.00     0.112 C 
ATOM     11  O   UNL     1      29.290  36.898   7.364  1.00  0.00    -0.332 OA
ATOM     12  C   UNL     1      26.792  36.441   7.461  1.00  0.00     0.145 C 
ATOM     13  C   UNL     1      27.270  37.340   8.617  1.00  0.00     0.142 C 
BRANCH   9  14
ATOM     14  O   UNL     1      29.364  35.238   5.898  1.00  0.00    -0.357 OA
ATOM     15  H   UNL     1      29.235  36.015   5.321  1.00  0.00     0.214 HD
ENDBRANCH   9  14
BRANCH   9  16
ATOM     16  C   UNL     1      30.024  34.721   8.062  1.00  0.00     0.364 C 
ATOM     17  O   UNL     1      29.569  33.969   8.956  1.00  0.00    -0.246 OA
BRANCH  16  18
ATOM     18  O   UNL     1      31.400  34.728   7.891  1.00  0.00    -0.477 OA
ATOM     19  H   UNL     1      31.971  35.249   8.528  1.00  0.00     0.296 HD
ENDBRANCH  16  18
ENDBRANCH   9  16
BRANCH  12  20
ATOM     20  O   UNL     1      26.848  37.078   6.249  1.00  0.00    -0.391 OA
ATOM     21  H   UNL     1      27.344  36.488   5.598  1.00  0.00     0.211 HD
ENDBRANCH  12  20
BRANCH  13  22
ATOM     22  N   UNL     1      26.871  36.603   9.823  1.00  0.00    -0.348 N 
ATOM     23  C   UNL     1      25.609  36.817  10.439  1.00  0.00     0.217 C 
ATOM     24  H   UNL     1      27.490  35.897  10.279  1.00  0.00     0.163 HD
ATOM     25  C   UNL     1      25.222  36.051  11.678  1.00  0.00     0.114 C 
ATOM     26  O   UNL     1      24.789  37.632   9.987  1.00  0.00    -0.275 OA
ENDBRANCH  13  22
ENDBRANCH   7   8
BRANCH   7  27
ATOM     27  O   UNL     1      28.735  39.504   7.416  1.00  0.00    -0.388 OA
ATOM     28  H   UNL     1      27.806  39.740   7.695  1.00  0.00     0.211 HD
ENDBRANCH   7  27
ENDBRANCH   6   7
BRANCH   6  29
ATOM     29  O   UNL     1      31.467  37.792   8.539  1.00  0.00    -0.388 OA
ATOM     30  H   UNL     1      32.217  37.796   7.906  1.00  0.00     0.211 HD
ENDBRANCH   6  29
ENDBRANCH   5   6
ENDBRANCH   1   5
BRANCH   2  31
ATOM     31  O   UNL     1      30.088  39.697  13.123  1.00  0.00    -0.443 OA
BRANCH  31  32
ATOM     32  C   UNL     1      28.792  39.240  13.464  1.00  0.00     0.294 C 
BRANCH  32  33
ATOM     33  C   UNL     1      28.668  37.770  13.272  1.00  0.00     0.120 A 
ATOM     34  C   UNL     1      28.315  36.837  14.253  1.00  0.00     0.138 A 
ATOM     35  N   UNL     1      28.858  37.042  12.157  1.00  0.00    -0.132 NA
ATOM     36  N   UNL     1      28.310  35.620  13.698  1.00  0.00    -0.248 N 
ATOM     37  N   UNL     1      28.641  35.771  12.429  1.00  0.00    -0.067 NA
BRANCH  36  38
ATOM     38  C   UNL     1      28.009  34.348  14.315  1.00  0.00     0.181 C 
BRANCH  38  39
ATOM     39  C   UNL     1      29.165  33.886  15.125  1.00  0.00    -0.025 A 
ATOM     40  C   UNL     1      30.131  33.064  14.586  1.00  0.00     0.006 A 
ATOM     41  C   UNL     1      29.288  34.275  16.430  1.00  0.00     0.021 A 
ATOM     42  C   UNL     1      31.219  32.628  15.346  1.00  0.00     0.002 A 
ATOM     43  C   UNL     1      30.369  33.846  17.199  1.00  0.00     0.018 A 
ATOM     44  C   UNL     1      31.337  33.020  16.652  1.00  0.00     0.016 A 
ATOM     45  Br  UNL     1      30.504  34.407  19.008  1.00  0.00    -0.051 Br
ENDBRANCH  38  39
ENDBRANCH  36  38
ENDBRANCH  32  33
ENDBRANCH  31  32
ENDBRANCH   2  31
TORSDOF 16
BEGIN_RES LYS A 131
REMARK  4 active torsions:
REMARK  status: ('A' for Active; 'I' for Inactive)
REMARK    1  A    between atoms: CA   and  CB  
REMARK    2  A    between atoms: CB   and  CG  
REMARK    3  A    between atoms: CG   and  CD  
REMARK    4  A    between atoms: CD   and  CE  
ROOT
ATOM      1  CA  LYS A 131      29.867  25.555  16.977  1.00 20.52     0.186 C 
ENDROOT
BRANCH   1   2
ATOM      2  CB  LYS A 131      28.345  25.722  17.026  1.00 20.94     0.034 C 
BRANCH   2   3
ATOM      3  CG  LYS A 131      27.601  24.402  16.890  1.00 22.96     0.005 C 
BRANCH   3   4
ATOM      4  CD  LYS A 131      26.152  24.527  17.272  1.00 24.33     0.041 C 
BRANCH   4   5
ATOM      5  CE  LYS A 131      25.638  23.179  17.767  1.00 26.91     0.338 C 
ATOM      6  NZ  LYS A 131      25.516  23.182  19.244  1.00 27.40     0.618 N 
ENDBRANCH   4   5
ENDBRANCH   3   4
ENDBRANCH   2   3
ENDBRANCH   1   2
END_RES LYS A 131
BEGIN_RES LYS A 135
REMARK  4 active torsions:
REMARK  status: ('A' for Active; 'I' for Inactive)
REMARK    5  A    between atoms: CA   and  CB  
REMARK    6  A    between atoms: CB   and  CG  
REMARK    7  A    between atoms: CG   and  CD  
REMARK    8  A    between atoms: CD   and  CE  
ROOT
ATOM      7  CA  LYS A 135      33.193  34.663   9.290  1.00 25.02     0.186 C 
ENDROOT
BRANCH   7   8
ATOM      8  CB  LYS A 135      32.060  35.360  10.034  1.00 26.63     0.034 C 
BRANCH   8   9
ATOM      9  CG  LYS A 135      32.504  36.049  11.299  1.00 29.45     0.005 C 
BRANCH   9  10
ATOM     10  CD  LYS A 135      31.964  35.324  12.522  1.00 32.00     0.041 C 
BRANCH  10  11
ATOM     11  CE  LYS A 135      32.759  35.700  13.758  1.00 34.25     0.338 C 
ATOM     12  NZ  LYS A 135      31.880  36.300  14.799  1.00 35.99     0.618 N 
ENDBRANCH  10  11
ENDBRANCH   9  10
ENDBRANCH   8   9
ENDBRANCH   7   8
END_RES LYS A 135
