REMARK VINA RESULT:    -7.628      3.061      5.777
REMARK INTER + INTRA:         -12.846
REMARK INTER:                  -7.145
REMARK INTRA:                  -5.700
REMARK UNBOUND:                 3.032
REMARK SMILES CC(=O)N[C@@H]1[C@@H](O)C[C@](O)(C(=O)O)O[C@H]1C(O)[C@H](O)CNC(=O)OCc1cn(C2CC(O)C=C[C@@H](O)C2)nn1
REMARK SMILES IDX 21 1 22 2 23 3 20 5 18 6 16 7 15 8 9 9 8 10 14 11 6 12 5 13
REMARK SMILES IDX 10 14 11 16 12 17 13 18 7 20 4 22 2 23 1 25 3 26 17 27 19 29
REMARK SMILES IDX 24 31 25 32 26 33 27 34 39 35 28 36 38 37 29 38 30 39 31 40
REMARK SMILES IDX 32 42 37 44 35 45 34 46 33 47 36 49
REMARK H PARENT 21 4 10 15 13 19 7 21 4 24 17 28 19 30 32 43 36 50
REMARK Flexibility Score: 90.00
ROOT
ATOM      1  N   UNL     1      25.404  33.332  13.613  1.00  0.00    -0.319 N 
ATOM      2  C   UNL     1      24.003  33.080  13.713  1.00  0.00     0.407 C 
ATOM      3  O   UNL     1      23.194  33.909  14.204  1.00  0.00    -0.225 OA
ATOM      4  H   UNL     1      26.052  32.625  13.201  1.00  0.00     0.167 HD
ENDROOT
BRANCH   1   5
ATOM      5  C   UNL     1      25.860  34.627  14.121  1.00  0.00     0.154 C 
BRANCH   5   6
ATOM      6  C   UNL     1      26.683  34.337  15.363  1.00  0.00     0.165 C 
BRANCH   6   7
ATOM      7  C   UNL     1      28.024  35.035  15.348  1.00  0.00     0.176 C 
BRANCH   7   8
ATOM      8  C   UNL     1      29.167  34.078  15.478  1.00  0.00     0.178 C 
ATOM      9  C   UNL     1      30.499  32.822  16.836  1.00  0.00     0.269 C 
ATOM     10  C   UNL     1      30.992  32.358  15.481  1.00  0.00     0.112 C 
ATOM     11  O   UNL     1      29.336  33.575  16.740  1.00  0.00    -0.332 OA
ATOM     12  C   UNL     1      31.332  33.525  14.576  1.00  0.00     0.145 C 
ATOM     13  C   UNL     1      30.480  34.678  15.024  1.00  0.00     0.142 C 
BRANCH   9  14
ATOM     14  O   UNL     1      31.498  33.488  17.537  1.00  0.00    -0.357 OA
ATOM     15  H   UNL     1      31.773  32.991  18.353  1.00  0.00     0.214 HD
ENDBRANCH   9  14
BRANCH   9  16
ATOM     16  C   UNL     1      30.152  31.599  17.600  1.00  0.00     0.364 C 
ATOM     17  O   UNL     1      29.918  31.618  18.839  1.00  0.00    -0.246 OA
BRANCH  16  18
ATOM     18  O   UNL     1      30.079  30.392  16.942  1.00  0.00    -0.477 OA
ATOM     19  H   UNL     1      29.488  29.616  17.226  1.00  0.00     0.296 HD
ENDBRANCH  16  18
ENDBRANCH   9  16
BRANCH  12  20
ATOM     20  O   UNL     1      32.684  33.755  14.683  1.00  0.00    -0.391 OA
ATOM     21  H   UNL     1      32.956  34.308  13.887  1.00  0.00     0.211 HD
ENDBRANCH  12  20
BRANCH  13  22
ATOM     22  N   UNL     1      30.334  35.728  14.085  1.00  0.00    -0.348 N 
ATOM     23  C   UNL     1      31.237  36.809  13.905  1.00  0.00     0.217 C 
ATOM     24  H   UNL     1      29.495  35.719  13.466  1.00  0.00     0.163 HD
ATOM     25  C   UNL     1      30.992  37.871  12.884  1.00  0.00     0.114 C 
ATOM     26  O   UNL     1      32.248  36.842  14.634  1.00  0.00    -0.275 OA
ENDBRANCH  13  22
ENDBRANCH   7   8
BRANCH   7  27
ATOM     27  O   UNL     1      28.060  36.093  16.223  1.00  0.00    -0.388 OA
ATOM     28  H   UNL     1      27.141  36.407  16.374  1.00  0.00     0.211 HD
ENDBRANCH   7  27
ENDBRANCH   6   7
BRANCH   6  29
ATOM     29  O   UNL     1      26.980  32.954  15.409  1.00  0.00    -0.388 OA
ATOM     30  H   UNL     1      26.738  32.568  16.297  1.00  0.00     0.211 HD
ENDBRANCH   6  29
ENDBRANCH   5   6
ENDBRANCH   1   5
BRANCH   2  31
ATOM     31  O   UNL     1      23.497  31.887  13.257  1.00  0.00    -0.443 OA
BRANCH  31  32
ATOM     32  C   UNL     1      24.239  30.683  13.182  1.00  0.00     0.294 C 
BRANCH  32  33
ATOM     33  C   UNL     1      24.311  30.088  14.536  1.00  0.00     0.120 A 
ATOM     34  C   UNL     1      25.381  30.007  15.399  1.00  0.00     0.138 A 
ATOM     35  N   UNL     1      23.272  29.501  15.163  1.00  0.00    -0.132 NA
ATOM     36  N   UNL     1      24.976  29.381  16.519  1.00  0.00    -0.249 N 
ATOM     37  N   UNL     1      23.686  29.090  16.334  1.00  0.00    -0.067 NA
BRANCH  36  38
ATOM     38  C   UNL     1      25.798  29.086  17.693  1.00  0.00     0.115 C 
BRANCH  38  39
ATOM     39  C   UNL     1      24.882  28.939  18.861  1.00  0.00     0.063 C 
BRANCH  39  40
ATOM     40  C   UNL     1      25.562  28.698  20.163  1.00  0.00     0.139 CG0
ATOM     41  G   UNL     1      26.085  29.922  20.791  1.00  0.00     0.000 G0
BRANCH  40  42
ATOM     42  O   UNL     1      24.770  27.938  21.052  1.00  0.00    -0.389 OA
ATOM     43  H   UNL     1      25.159  27.041  21.126  1.00  0.00     0.211 HD
ENDBRANCH  40  42
ENDBRANCH  39  40
ENDBRANCH  38  39
BRANCH  38  44
ATOM     44  C   UNL     1      26.802  30.179  17.829  1.00  0.00     0.063 C 
BRANCH  44  45
ATOM     45  C   UNL     1      26.358  31.331  18.679  1.00  0.00     0.139 C 
BRANCH  45  46
ATOM     46  C   UNL     1      26.413  31.053  20.131  1.00  0.00     0.002 C 
ATOM     47  C   UNL     1      26.081  29.949  20.761  1.00  0.00     0.002 CG0
ATOM     48  G   UNL     1      25.565  28.686  20.207  1.00  0.00     0.000 G0
ENDBRANCH  45  46
BRANCH  45  49
ATOM     49  O   UNL     1      27.023  32.515  18.365  1.00  0.00    -0.389 OA
ATOM     50  H   UNL     1      26.556  33.305  18.737  1.00  0.00     0.211 HD
ENDBRANCH  45  49
ENDBRANCH  44  45
ENDBRANCH  38  44
ENDBRANCH  36  38
ENDBRANCH  32  33
ENDBRANCH  31  32
ENDBRANCH   2  31
TORSDOF 17
BEGIN_RES LYS A 131
REMARK  4 active torsions:
REMARK  status: ('A' for Active; 'I' for Inactive)
REMARK    1  A    between atoms: CA   and  CB  
REMARK    2  A    between atoms: CB   and  CG  
REMARK    3  A    between atoms: CG   and  CD  
REMARK    4  A    between atoms: CD   and  CE  
ROOT
ATOM      1  CA  LYS A 131      29.867  25.555  16.977  1.00 20.52     0.186 C 
ENDROOT
BRANCH   1   2
ATOM      2  CB  LYS A 131      28.345  25.722  17.026  1.00 20.94     0.034 C 
BRANCH   2   3
ATOM      3  CG  LYS A 131      27.602  24.398  16.934  1.00 22.96     0.005 C 
BRANCH   3   4
ATOM      4  CD  LYS A 131      26.171  24.519  17.380  1.00 24.33     0.041 C 
BRANCH   4   5
ATOM      5  CE  LYS A 131      26.109  25.313  18.681  1.00 26.91     0.338 C 
ATOM      6  NZ  LYS A 131      25.444  24.520  19.742  1.00 27.40     0.618 N 
ENDBRANCH   4   5
ENDBRANCH   3   4
ENDBRANCH   2   3
ENDBRANCH   1   2
END_RES LYS A 131
BEGIN_RES LYS A 135
REMARK  4 active torsions:
REMARK  status: ('A' for Active; 'I' for Inactive)
REMARK    5  A    between atoms: CA   and  CB  
REMARK    6  A    between atoms: CB   and  CG  
REMARK    7  A    between atoms: CG   and  CD  
REMARK    8  A    between atoms: CD   and  CE  
ROOT
ATOM      7  CA  LYS A 135      33.193  34.663   9.290  1.00 25.02     0.186 C 
ENDROOT
BRANCH   7   8
ATOM      8  CB  LYS A 135      32.060  35.360  10.034  1.00 26.63     0.034 C 
BRANCH   8   9
ATOM      9  CG  LYS A 135      30.796  35.487   9.224  1.00 29.45     0.005 C 
BRANCH   9  10
ATOM     10  CD  LYS A 135      30.140  34.127   9.037  1.00 32.00     0.041 C 
BRANCH  10  11
ATOM     11  CE  LYS A 135      28.740  34.127   9.622  1.00 34.25     0.338 C 
ATOM     12  NZ  LYS A 135      28.389  35.464  10.175  1.00 35.99     0.618 N 
ENDBRANCH  10  11
ENDBRANCH   9  10
ENDBRANCH   8   9
ENDBRANCH   7   8
END_RES LYS A 135
