REMARK VINA RESULT:    -3.701      2.026      3.151
REMARK INTER + INTRA:         -16.496
REMARK INTER:                  -8.150
REMARK INTRA:                  -8.346
REMARK UNBOUND:                -9.983
REMARK SMILES CC(=O)N[C@@H]1[C@@H](O)C[C@](O)(C(=O)O)O[C@H]1C(O)[C@H](O)CNC(=O)OCc1cn(-c2nc(C)nc(N)n2)nn1
REMARK SMILES IDX 21 1 22 2 23 3 20 5 18 6 16 7 15 8 9 9 8 10 14 11 6 12 5 13
REMARK SMILES IDX 10 14 11 16 12 17 13 18 7 20 4 22 2 23 1 25 3 26 17 27 19 29
REMARK SMILES IDX 24 31 25 32 26 33 27 34 38 35 28 36 37 37 29 38 36 39 30 40
REMARK SMILES IDX 34 41 31 42 33 43 32 44 35 45
REMARK H PARENT 21 4 10 15 13 19 7 21 4 24 17 28 19 30 35 46 35 47
REMARK Flexibility Score: inf
ROOT
ATOM      1  N   UNL     1      31.771  32.873  15.013  1.00  0.00    -0.319 N 
ATOM      2  C   UNL     1      32.320  34.163  15.219  1.00  0.00     0.407 C 
ATOM      3  O   UNL     1      32.294  34.744  16.320  1.00  0.00    -0.225 OA
ATOM      4  H   UNL     1      31.854  32.501  14.021  1.00  0.00     0.167 HD
ENDROOT
BRANCH   1   5
ATOM      5  C   UNL     1      31.130  32.066  16.035  1.00  0.00     0.154 C 
BRANCH   5   6
ATOM      6  C   UNL     1      29.745  31.721  15.690  1.00  0.00     0.165 C 
BRANCH   6   7
ATOM      7  C   UNL     1      28.657  32.555  16.368  1.00  0.00     0.176 C 
BRANCH   7   8
ATOM      8  C   UNL     1      27.301  32.416  15.743  1.00  0.00     0.178 C 
ATOM      9  C   UNL     1      25.625  33.727  14.777  1.00  0.00     0.269 C 
ATOM     10  C   UNL     1      24.613  33.137  15.730  1.00  0.00     0.112 C 
ATOM     11  O   UNL     1      26.918  33.593  15.185  1.00  0.00    -0.332 OA
ATOM     12  C   UNL     1      24.960  31.702  15.990  1.00  0.00     0.145 C 
ATOM     13  C   UNL     1      26.365  31.678  16.609  1.00  0.00     0.142 C 
BRANCH   9  14
ATOM     14  O   UNL     1      25.357  35.123  14.797  1.00  0.00    -0.357 OA
ATOM     15  H   UNL     1      26.214  35.609  14.689  1.00  0.00     0.214 HD
ENDBRANCH   9  14
BRANCH   9  16
ATOM     16  C   UNL     1      25.348  33.240  13.427  1.00  0.00     0.364 C 
ATOM     17  O   UNL     1      24.142  32.942  13.119  1.00  0.00    -0.246 OA
BRANCH  16  18
ATOM     18  O   UNL     1      26.263  33.059  12.407  1.00  0.00    -0.477 OA
ATOM     19  H   UNL     1      26.519  32.101  12.123  1.00  0.00     0.296 HD
ENDBRANCH  16  18
ENDBRANCH   9  16
BRANCH  12  20
ATOM     20  O   UNL     1      24.055  31.127  16.887  1.00  0.00    -0.391 OA
ATOM     21  H   UNL     1      23.607  30.380  16.398  1.00  0.00     0.211 HD
ENDBRANCH  12  20
BRANCH  13  22
ATOM     22  N   UNL     1      26.738  30.252  16.570  1.00  0.00    -0.348 N 
ATOM     23  C   UNL     1      26.722  29.513  17.778  1.00  0.00     0.217 C 
ATOM     24  H   UNL     1      27.008  29.786  15.680  1.00  0.00     0.163 HD
ATOM     25  C   UNL     1      27.088  28.061  17.820  1.00  0.00     0.114 C 
ATOM     26  O   UNL     1      26.388  30.117  18.835  1.00  0.00    -0.275 OA
ENDBRANCH  13  22
ENDBRANCH   7   8
BRANCH   7  27
ATOM     27  O   UNL     1      28.627  31.970  17.682  1.00  0.00    -0.388 OA
ATOM     28  H   UNL     1      29.431  31.364  17.664  1.00  0.00     0.211 HD
ENDBRANCH   7  27
ENDBRANCH   6   7
BRANCH   6  29
ATOM     29  O   UNL     1      29.462  30.383  15.795  1.00  0.00    -0.388 OA
ATOM     30  H   UNL     1      30.206  29.792  15.517  1.00  0.00     0.211 HD
ENDBRANCH   6  29
ENDBRANCH   5   6
ENDBRANCH   1   5
BRANCH   2  31
ATOM     31  O   UNL     1      32.927  34.853  14.169  1.00  0.00    -0.443 OA
BRANCH  31  32
ATOM     32  C   UNL     1      32.320  35.920  13.509  1.00  0.00     0.294 C 
BRANCH  32  33
ATOM     33  C   UNL     1      30.956  35.592  13.016  1.00  0.00     0.121 A 
ATOM     34  C   UNL     1      30.023  36.497  12.557  1.00  0.00     0.148 A 
ATOM     35  N   UNL     1      30.346  34.387  12.910  1.00  0.00    -0.131 NA
ATOM     36  N   UNL     1      28.897  35.848  12.192  1.00  0.00    -0.185 N 
ATOM     37  N   UNL     1      29.132  34.580  12.420  1.00  0.00    -0.059 NA
BRANCH  36  38
ATOM     38  C   UNL     1      27.703  36.413  11.668  1.00  0.00     0.257 A 
ATOM     39  N   UNL     1      26.485  36.177  12.185  1.00  0.00    -0.175 NA
ATOM     40  N   UNL     1      27.775  37.227  10.601  1.00  0.00    -0.196 NA
ATOM     41  C   UNL     1      25.355  36.710  11.691  1.00  0.00     0.225 A 
ATOM     42  C   UNL     1      26.644  37.783  10.078  1.00  0.00     0.133 A 
ATOM     43  N   UNL     1      25.450  37.514  10.634  1.00  0.00    -0.198 NA
ATOM     44  C   UNL     1      26.740  38.675   8.907  1.00  0.00     0.090 C 
BRANCH  41  45
ATOM     45  N   UNL     1      24.074  36.463  12.233  1.00  0.00    -0.368 N 
ATOM     46  H   UNL     1      23.298  37.122  12.044  1.00  0.00     0.159 HD
ATOM     47  H   UNL     1      23.885  35.632  12.823  1.00  0.00     0.159 HD
ENDBRANCH  41  45
ENDBRANCH  36  38
ENDBRANCH  32  33
ENDBRANCH  31  32
ENDBRANCH   2  31
TORSDOF 16
BEGIN_RES LYS A 135
REMARK  4 active torsions:
REMARK  status: ('A' for Active; 'I' for Inactive)
REMARK    1  A    between atoms: CA   and  CB  
REMARK    2  A    between atoms: CB   and  CG  
REMARK    3  A    between atoms: CG   and  CD  
REMARK    4  A    between atoms: CD   and  CE  
ROOT
ATOM      1  CA  LYS A 135      33.193  34.663   9.290  1.00 25.02     0.186 C 
ENDROOT
BRANCH   1   2
ATOM      2  CB  LYS A 135      32.060  35.360  10.034  1.00 26.63     0.034 C 
BRANCH   2   3
ATOM      3  CG  LYS A 135      30.818  35.548   9.201  1.00 29.45     0.005 C 
BRANCH   3   4
ATOM      4  CD  LYS A 135      30.099  34.223   9.003  1.00 32.00     0.041 C 
BRANCH   4   5
ATOM      5  CE  LYS A 135      28.686  34.454   8.504  1.00 34.25     0.338 C 
ATOM      6  NZ  LYS A 135      27.694  33.731   9.347  1.00 35.99     0.618 N 
ENDBRANCH   4   5
ENDBRANCH   3   4
ENDBRANCH   2   3
ENDBRANCH   1   2
END_RES LYS A 135
BEGIN_RES ARG A 124
REMARK  4 active torsions:
REMARK  status: ('A' for Active; 'I' for Inactive)
REMARK    5  A    between atoms: CA   and  CB  
REMARK    6  A    between atoms: CB   and  CG  
REMARK    7  A    between atoms: CG   and  CD  
REMARK    8  A    between atoms: CD   and  NE  
REMARK       I    between atoms: NE   and  CZ  
ROOT
ATOM      7  CA  ARG A 124      31.045  26.515   9.594  1.00 17.84     0.186 C 
ENDROOT
BRANCH   7   8
ATOM      8  CB  ARG A 124      29.529  26.705   9.647  1.00 16.18     0.036 C 
BRANCH   8   9
ATOM      9  CG  ARG A 124      28.954  27.196  11.024  1.00 16.22     0.029 C 
BRANCH   9  10
ATOM     10  CD  ARG A 124      28.205  26.083  11.792  1.00 15.09     0.145 C 
BRANCH  10  11
ATOM     11  NE  ARG A 124      27.641  26.525  13.086  1.00 16.98    -0.083 NA
ATOM     12  CZ  ARG A 124      26.460  27.113  13.240  1.00 18.21     0.782 C 
ATOM     13  NH1 ARG A 124      25.664  27.344  12.203  1.00 21.11     0.063 N 
ATOM     14  NH2 ARG A 124      26.046  27.459  14.449  1.00 21.25     0.063 N 
ENDBRANCH  10  11
ENDBRANCH   9  10
ENDBRANCH   8   9
ENDBRANCH   7   8
END_RES ARG A 124
BEGIN_RES ASN A 133
REMARK  2 active torsions:
REMARK  status: ('A' for Active; 'I' for Inactive)
REMARK    9  A    between atoms: CA   and  CB  
REMARK   10  A    between atoms: CB   and  CG  
ROOT
ATOM     15  CA  ASN A 133      31.225  30.257  11.749  1.00 18.15     0.196 C 
ENDROOT
BRANCH  15  16
ATOM     16  CB  ASN A 133      30.092  31.240  11.460  1.00 18.27     0.126 C 
BRANCH  16  17
ATOM     17  CG  ASN A 133      28.734  30.677  11.744  1.00 18.94     0.276 C 
ATOM     18  OD1 ASN A 133      28.170  30.883  12.821  1.00 18.09    -0.269 OA
ATOM     19  ND2 ASN A 133      28.188  29.951  10.769  1.00 18.93    -0.107 N 
ENDBRANCH  16  17
ENDBRANCH  15  16
END_RES ASN A 133
BEGIN_RES LYS A 131
REMARK  4 active torsions:
REMARK  status: ('A' for Active; 'I' for Inactive)
REMARK   11  A    between atoms: CA   and  CB  
REMARK   12  A    between atoms: CB   and  CG  
REMARK   13  A    between atoms: CG   and  CD  
REMARK   14  A    between atoms: CD   and  CE  
ROOT
ATOM     20  CA  LYS A 131      29.867  25.555  16.977  1.00 20.52     0.186 C 
ENDROOT
BRANCH  20  21
ATOM     21  CB  LYS A 131      28.345  25.722  17.026  1.00 20.94     0.034 C 
BRANCH  21  22
ATOM     22  CG  LYS A 131      27.599  24.423  16.761  1.00 22.96     0.005 C 
BRANCH  22  23
ATOM     23  CD  LYS A 131      26.151  24.510  17.157  1.00 24.33     0.041 C 
BRANCH  23  24
ATOM     24  CE  LYS A 131      25.969  23.918  18.551  1.00 26.91     0.338 C 
ATOM     25  NZ  LYS A 131      25.607  24.977  19.522  1.00 27.40     0.618 N 
ENDBRANCH  23  24
ENDBRANCH  22  23
ENDBRANCH  21  22
ENDBRANCH  20  21
END_RES LYS A 131
