REMARK VINA RESULT:    -5.388      5.698     10.206
REMARK INTER + INTRA:         -15.446
REMARK INTER:                  -9.956
REMARK INTRA:                  -5.490
REMARK UNBOUND:                -5.490
REMARK SMILES CC(=O)N[C@@H]1[C@@H](O)C[C@](O)(C(=O)O)O[C@H]1C(O)[C@H](O)CNC(=O)OCc1cn(C(c2ccccc2)c2ccccc2)nn1
REMARK SMILES IDX 21 1 22 2 23 3 20 5 18 6 16 7 15 8 9 9 8 10 14 11 6 12 5 13
REMARK SMILES IDX 10 14 11 16 12 17 13 18 7 20 4 22 2 23 1 25 3 26 17 27 19 29
REMARK SMILES IDX 24 31 25 32 26 33 27 34 43 35 28 36 42 37 29 38 30 39 31 40
REMARK SMILES IDX 35 41 32 42 34 43 33 44 36 45 37 46 41 47 38 48 40 49 39 50
REMARK H PARENT 21 4 10 15 13 19 7 21 4 24 17 28 19 30
REMARK Flexibility Score: inf
ROOT
ATOM      1  N   UNL     1      20.104  40.208   8.021  1.00  0.00    -0.319 N 
ATOM      2  C   UNL     1      20.669  41.289   7.310  1.00  0.00     0.407 C 
ATOM      3  O   UNL     1      19.932  42.181   6.828  1.00  0.00    -0.225 OA
ATOM      4  H   UNL     1      20.743  39.483   8.406  1.00  0.00     0.167 HD
ENDROOT
BRANCH   1   5
ATOM      5  C   UNL     1      18.693  40.096   8.218  1.00  0.00     0.154 C 
BRANCH   5   6
ATOM      6  C   UNL     1      18.307  38.617   8.181  1.00  0.00     0.165 C 
BRANCH   6   7
ATOM      7  C   UNL     1      19.331  37.907   9.052  1.00  0.00     0.176 C 
BRANCH   7   8
ATOM      8  C   UNL     1      18.990  36.484   9.392  1.00  0.00     0.178 C 
ATOM      9  C   UNL     1      21.103  35.692  10.066  1.00  0.00     0.269 C 
ATOM     10  C   UNL     1      21.220  34.852   8.813  1.00  0.00     0.112 C 
ATOM     11  O   UNL     1      19.853  36.093  10.397  1.00  0.00    -0.332 OA
ATOM     12  C   UNL     1      20.381  35.367   7.683  1.00  0.00     0.145 C 
ATOM     13  C   UNL     1      18.997  35.589   8.216  1.00  0.00     0.142 C 
BRANCH   9  14
ATOM     14  O   UNL     1      21.884  36.825   9.830  1.00  0.00    -0.357 OA
ATOM     15  H   UNL     1      22.836  36.525   9.861  1.00  0.00     0.214 HD
ENDBRANCH   9  14
BRANCH   9  16
ATOM     16  C   UNL     1      21.767  34.946  11.196  1.00  0.00     0.364 C 
ATOM     17  O   UNL     1      22.779  35.382  11.752  1.00  0.00    -0.246 OA
BRANCH  16  18
ATOM     18  O   UNL     1      21.213  33.754  11.602  1.00  0.00    -0.477 OA
ATOM     19  H   UNL     1      20.975  33.626  12.592  1.00  0.00     0.296 HD
ENDBRANCH  16  18
ENDBRANCH   9  16
BRANCH  12  20
ATOM     20  O   UNL     1      20.980  36.481   7.168  1.00  0.00    -0.391 OA
ATOM     21  H   UNL     1      21.528  36.952   7.854  1.00  0.00     0.211 HD
ENDBRANCH  12  20
BRANCH  13  22
ATOM     22  N   UNL     1      18.454  34.259   8.559  1.00  0.00    -0.348 N 
ATOM     23  C   UNL     1      17.140  33.881   8.234  1.00  0.00     0.217 C 
ATOM     24  H   UNL     1      19.078  33.592   9.060  1.00  0.00     0.163 HD
ATOM     25  C   UNL     1      16.633  32.532   8.597  1.00  0.00     0.114 C 
ATOM     26  O   UNL     1      16.374  34.680   7.630  1.00  0.00    -0.275 OA
ENDBRANCH  13  22
ENDBRANCH   7   8
BRANCH   7  27
ATOM     27  O   UNL     1      19.322  38.657  10.286  1.00  0.00    -0.388 OA
ATOM     28  H   UNL     1      19.851  38.210  10.964  1.00  0.00     0.211 HD
ENDBRANCH   7  27
ENDBRANCH   6   7
BRANCH   6  29
ATOM     29  O   UNL     1      18.402  38.248   6.847  1.00  0.00    -0.388 OA
ATOM     30  H   UNL     1      17.749  38.696   6.274  1.00  0.00     0.211 HD
ENDBRANCH   6  29
ENDBRANCH   5   6
ENDBRANCH   1   5
BRANCH   2  31
ATOM     31  O   UNL     1      22.041  41.404   7.119  1.00  0.00    -0.443 OA
BRANCH  31  32
ATOM     32  C   UNL     1      22.902  41.054   8.168  1.00  0.00     0.294 C 
BRANCH  32  33
ATOM     33  C   UNL     1      23.439  39.691   7.918  1.00  0.00     0.120 A 
ATOM     34  C   UNL     1      24.790  39.376   7.749  1.00  0.00     0.139 A 
ATOM     35  N   UNL     1      22.806  38.512   7.796  1.00  0.00    -0.132 NA
ATOM     36  N   UNL     1      24.906  38.063   7.540  1.00  0.00    -0.240 N 
ATOM     37  N   UNL     1      23.701  37.557   7.571  1.00  0.00    -0.066 NA
BRANCH  36  38
ATOM     38  C   UNL     1      26.122  37.296   7.315  1.00  0.00     0.169 C 
BRANCH  38  39
ATOM     39  C   UNL     1      27.244  38.161   6.949  1.00  0.00    -0.019 A 
ATOM     40  C   UNL     1      27.685  38.288   5.626  1.00  0.00     0.006 A 
ATOM     41  C   UNL     1      27.891  38.900   7.919  1.00  0.00     0.006 A 
ATOM     42  C   UNL     1      28.733  39.124   5.308  1.00  0.00     0.000 A 
ATOM     43  C   UNL     1      28.938  39.730   7.574  1.00  0.00     0.000 A 
ATOM     44  C   UNL     1      29.383  39.864   6.275  1.00  0.00     0.000 A 
ENDBRANCH  38  39
BRANCH  38  45
ATOM     45  C   UNL     1      26.384  36.296   8.352  1.00  0.00    -0.019 A 
ATOM     46  C   UNL     1      26.968  35.060   8.020  1.00  0.00     0.006 A 
ATOM     47  C   UNL     1      26.072  36.550   9.666  1.00  0.00     0.006 A 
ATOM     48  C   UNL     1      27.222  34.124   8.989  1.00  0.00     0.000 A 
ATOM     49  C   UNL     1      26.335  35.586  10.646  1.00  0.00     0.000 A 
ATOM     50  C   UNL     1      26.907  34.383  10.304  1.00  0.00     0.000 A 
ENDBRANCH  38  45
ENDBRANCH  36  38
ENDBRANCH  32  33
ENDBRANCH  31  32
ENDBRANCH   2  31
TORSDOF 17
BEGIN_RES LYS A 131
REMARK  4 active torsions:
REMARK  status: ('A' for Active; 'I' for Inactive)
REMARK    1  A    between atoms: CA   and  CB  
REMARK    2  A    between atoms: CB   and  CG  
REMARK    3  A    between atoms: CG   and  CD  
REMARK    4  A    between atoms: CD   and  CE  
ROOT
ATOM      1  CA  LYS A 131      29.867  25.555  16.977  1.00 20.52     0.186 C 
ENDROOT
BRANCH   1   2
ATOM      2  CB  LYS A 131      28.345  25.722  17.026  1.00 20.94     0.034 C 
BRANCH   2   3
ATOM      3  CG  LYS A 131      27.605  24.393  17.030  1.00 22.96     0.005 C 
BRANCH   3   4
ATOM      4  CD  LYS A 131      26.260  24.496  17.696  1.00 24.33     0.041 C 
BRANCH   4   5
ATOM      5  CE  LYS A 131      25.822  23.116  18.174  1.00 26.91     0.338 C 
ATOM      6  NZ  LYS A 131      24.725  22.596  17.324  1.00 27.40     0.618 N 
ENDBRANCH   4   5
ENDBRANCH   3   4
ENDBRANCH   2   3
ENDBRANCH   1   2
END_RES LYS A 131
BEGIN_RES LYS A 135
REMARK  4 active torsions:
REMARK  status: ('A' for Active; 'I' for Inactive)
REMARK    5  A    between atoms: CA   and  CB  
REMARK    6  A    between atoms: CB   and  CG  
REMARK    7  A    between atoms: CG   and  CD  
REMARK    8  A    between atoms: CD   and  CE  
ROOT
ATOM      7  CA  LYS A 135      33.193  34.663   9.290  1.00 25.02     0.186 C 
ENDROOT
BRANCH   7   8
ATOM      8  CB  LYS A 135      32.060  35.360  10.034  1.00 26.63     0.034 C 
BRANCH   8   9
ATOM      9  CG  LYS A 135      30.731  35.269   9.329  1.00 29.45     0.005 C 
BRANCH   9  10
ATOM     10  CD  LYS A 135      30.047  36.627   9.297  1.00 32.00     0.041 C 
BRANCH  10  11
ATOM     11  CE  LYS A 135      29.753  37.109  10.705  1.00 34.25     0.338 C 
ATOM     12  NZ  LYS A 135      30.230  38.506  10.904  1.00 35.99     0.618 N 
ENDBRANCH  10  11
ENDBRANCH   9  10
ENDBRANCH   8   9
ENDBRANCH   7   8
END_RES LYS A 135
