REMARK VINA RESULT:    -4.241      8.108     14.256
REMARK INTER + INTRA:         -15.821
REMARK INTER:                 -11.139
REMARK INTRA:                  -4.682
REMARK UNBOUND:                -7.118
REMARK SMILES CC(=O)N[C@@H]1[C@@H](O)C[C@](O)(C(=O)O)O[C@H]1C(O)[C@H](O)CNC(=O)OCc1cn(C[C@H](CC(=O)O)CC(C)C)nn1
REMARK SMILES IDX 24 1 22 2 21 3 23 5 20 6 18 7 16 8 15 9 9 10 8 11 14 12 6 13
REMARK SMILES IDX 5 14 10 15 11 17 12 18 13 19 7 21 4 23 2 24 1 26 3 27 17 28
REMARK SMILES IDX 19 30 25 32 26 33 27 34 40 35 28 36 39 37 29 38 30 39 31 40
REMARK SMILES IDX 32 41 33 42 34 43 35 45 36 46 37 47 38 48
REMARK H PARENT 21 4 10 16 13 20 7 22 4 25 17 29 19 31 34 44
REMARK Flexibility Score: inf
ROOT
ATOM      1  O   UNL     1      25.809  39.676   6.375  1.00  0.00    -0.443 OA
ENDROOT
BRANCH   1   2
ATOM      2  C   UNL     1      27.145  39.896   5.994  1.00  0.00     0.407 C 
ATOM      3  N   UNL     1      28.085  40.446   6.897  1.00  0.00    -0.319 N 
ATOM      4  H   UNL     1      27.717  40.676   7.873  1.00  0.00     0.167 HD
ATOM      5  O   UNL     1      27.477  39.588   4.824  1.00  0.00    -0.225 OA
BRANCH   3   6
ATOM      6  C   UNL     1      29.468  40.697   6.558  1.00  0.00     0.154 C 
BRANCH   6   7
ATOM      7  C   UNL     1      30.264  39.455   6.763  1.00  0.00     0.165 C 
BRANCH   7   8
ATOM      8  C   UNL     1      31.654  39.707   7.325  1.00  0.00     0.176 C 
BRANCH   8   9
ATOM      9  C   UNL     1      32.576  40.268   6.288  1.00  0.00     0.178 C 
ATOM     10  C   UNL     1      34.709  39.415   5.946  1.00  0.00     0.269 C 
ATOM     11  C   UNL     1      35.320  40.762   5.646  1.00  0.00     0.112 C 
ATOM     12  O   UNL     1      33.359  39.360   5.638  1.00  0.00    -0.332 OA
ATOM     13  C   UNL     1      34.287  41.869   5.684  1.00  0.00     0.145 C 
ATOM     14  C   UNL     1      33.330  41.482   6.820  1.00  0.00     0.142 C 
BRANCH  10  15
ATOM     15  O   UNL     1      34.959  39.037   7.269  1.00  0.00    -0.357 OA
ATOM     16  H   UNL     1      34.309  38.400   7.620  1.00  0.00     0.214 HD
ENDBRANCH  10  15
BRANCH  10  17
ATOM     17  C   UNL     1      35.392  38.419   5.078  1.00  0.00     0.364 C 
ATOM     18  O   UNL     1      35.392  38.602   3.822  1.00  0.00    -0.246 OA
BRANCH  17  19
ATOM     19  O   UNL     1      36.032  37.298   5.560  1.00  0.00    -0.477 OA
ATOM     20  H   UNL     1      37.023  37.143   5.316  1.00  0.00     0.296 HD
ENDBRANCH  17  19
ENDBRANCH  10  17
BRANCH  13  21
ATOM     21  O   UNL     1      34.831  43.116   5.862  1.00  0.00    -0.391 OA
ATOM     22  H   UNL     1      35.825  42.987   5.955  1.00  0.00     0.211 HD
ENDBRANCH  13  21
BRANCH  14  23
ATOM     23  N   UNL     1      32.386  42.541   7.078  1.00  0.00    -0.348 N 
ATOM     24  C   UNL     1      32.307  43.149   8.369  1.00  0.00     0.217 C 
ATOM     25  H   UNL     1      31.724  42.913   6.354  1.00  0.00     0.163 HD
ATOM     26  C   UNL     1      31.353  44.234   8.666  1.00  0.00     0.114 C 
ATOM     27  O   UNL     1      33.070  42.752   9.285  1.00  0.00    -0.275 OA
ENDBRANCH  14  23
ENDBRANCH   8   9
BRANCH   8  28
ATOM     28  O   UNL     1      32.131  38.589   7.969  1.00  0.00    -0.388 OA
ATOM     29  H   UNL     1      32.800  38.862   8.630  1.00  0.00     0.211 HD
ENDBRANCH   8  28
ENDBRANCH   7   8
BRANCH   7  30
ATOM     30  O   UNL     1      30.439  38.831   5.504  1.00  0.00    -0.388 OA
ATOM     31  H   UNL     1      30.843  39.450   4.855  1.00  0.00     0.211 HD
ENDBRANCH   7  30
ENDBRANCH   6   7
ENDBRANCH   3   6
ENDBRANCH   1   2
BRANCH   1  32
ATOM     32  C   UNL     1      25.549  39.465   7.740  1.00  0.00     0.294 C 
BRANCH  32  33
ATOM     33  C   UNL     1      25.549  38.035   8.098  1.00  0.00     0.120 A 
ATOM     34  C   UNL     1      26.558  37.089   7.994  1.00  0.00     0.138 A 
ATOM     35  N   UNL     1      24.508  37.374   8.619  1.00  0.00    -0.132 NA
ATOM     36  N   UNL     1      26.099  35.909   8.448  1.00  0.00    -0.252 N 
ATOM     37  N   UNL     1      24.860  36.108   8.819  1.00  0.00    -0.067 NA
BRANCH  36  38
ATOM     38  C   UNL     1      26.892  34.650   8.496  1.00  0.00     0.150 C 
BRANCH  38  39
ATOM     39  C   UNL     1      28.095  34.848   9.350  1.00  0.00     0.022 C 
BRANCH  39  40
ATOM     40  C   UNL     1      29.244  34.082   8.719  1.00  0.00     0.128 C 
BRANCH  40  41
ATOM     41  C   UNL     1      30.323  35.035   8.351  1.00  0.00     0.303 C 
ATOM     42  O   UNL     1      30.142  36.263   8.414  1.00  0.00    -0.252 OA
BRANCH  41  43
ATOM     43  O   UNL     1      31.542  34.494   7.933  1.00  0.00    -0.481 OA
ATOM     44  H   UNL     1      32.387  34.766   8.396  1.00  0.00     0.296 HD
ENDBRANCH  41  43
ENDBRANCH  40  41
ENDBRANCH  39  40
BRANCH  39  45
ATOM     45  C   UNL     1      27.863  34.546  10.773  1.00  0.00     0.009 C 
BRANCH  45  46
ATOM     46  C   UNL     1      28.171  35.595  11.774  1.00  0.00    -0.017 C 
ATOM     47  C   UNL     1      26.829  36.344  12.015  1.00  0.00     0.007 C 
ATOM     48  C   UNL     1      28.659  35.145  13.108  1.00  0.00     0.007 C 
ENDBRANCH  45  46
ENDBRANCH  39  45
ENDBRANCH  38  39
ENDBRANCH  36  38
ENDBRANCH  32  33
ENDBRANCH   1  32
TORSDOF 21
BEGIN_RES LYS A 131
REMARK  4 active torsions:
REMARK  status: ('A' for Active; 'I' for Inactive)
REMARK    1  A    between atoms: CA   and  CB  
REMARK    2  A    between atoms: CB   and  CG  
REMARK    3  A    between atoms: CG   and  CD  
REMARK    4  A    between atoms: CD   and  CE  
ROOT
ATOM      1  CA  LYS A 131      29.867  25.555  16.977  1.00 20.52     0.186 C 
ENDROOT
BRANCH   1   2
ATOM      2  CB  LYS A 131      28.345  25.722  17.026  1.00 20.94     0.034 C 
BRANCH   2   3
ATOM      3  CG  LYS A 131      27.601  24.406  16.860  1.00 22.96     0.005 C 
BRANCH   3   4
ATOM      4  CD  LYS A 131      26.657  24.141  18.000  1.00 24.33     0.041 C 
BRANCH   4   5
ATOM      5  CE  LYS A 131      25.382  23.496  17.466  1.00 26.91     0.338 C 
ATOM      6  NZ  LYS A 131      24.824  22.549  18.461  1.00 27.40     0.618 N 
ENDBRANCH   4   5
ENDBRANCH   3   4
ENDBRANCH   2   3
ENDBRANCH   1   2
END_RES LYS A 131
BEGIN_RES LYS A 135
REMARK  4 active torsions:
REMARK  status: ('A' for Active; 'I' for Inactive)
REMARK    5  A    between atoms: CA   and  CB  
REMARK    6  A    between atoms: CB   and  CG  
REMARK    7  A    between atoms: CG   and  CD  
REMARK    8  A    between atoms: CD   and  CE  
ROOT
ATOM      7  CA  LYS A 135      33.193  34.663   9.290  1.00 25.02     0.186 C 
ENDROOT
BRANCH   7   8
ATOM      8  CB  LYS A 135      32.060  35.360  10.034  1.00 26.63     0.034 C 
BRANCH   8   9
ATOM      9  CG  LYS A 135      32.163  35.246  11.533  1.00 29.45     0.005 C 
BRANCH   9  10
ATOM     10  CD  LYS A 135      32.194  36.624  12.176  1.00 32.00     0.041 C 
BRANCH  10  11
ATOM     11  CE  LYS A 135      31.683  37.674  11.208  1.00 34.25     0.338 C 
ATOM     12  NZ  LYS A 135      31.440  38.969  11.902  1.00 35.99     0.618 N 
ENDBRANCH  10  11
ENDBRANCH   9  10
ENDBRANCH   8   9
ENDBRANCH   7   8
END_RES LYS A 135
