REMARK VINA RESULT:    -4.373      1.735      2.512
REMARK INTER + INTRA:         -14.722
REMARK INTER:                  -7.993
REMARK INTRA:                  -6.729
REMARK UNBOUND:                -5.875
REMARK SMILES CC[N+](C)(CC)CCCn1cc(COC(=O)NC[C@@H](O)C(O)[C@@H]2O[C@@](O)(C(=O)O)C[C@H](O)[C@H]2NC(C)=O)nn1
REMARK SMILES IDX 14 1 15 2 17 3 16 5 18 6 19 7 21 8 23 9 25 10 30 11 24 12
REMARK SMILES IDX 31 13 33 14 26 15 27 17 28 18 29 19 32 21 34 23 35 24 36 26
REMARK SMILES IDX 37 27 22 28 20 30 13 32 12 33 11 34 38 35 10 36 39 37 9 38
REMARK SMILES IDX 8 39 7 40 3 41 4 42 2 43 1 44 5 45 6 46
REMARK H PARENT 17 4 26 16 29 20 32 22 34 25 22 29 20 31
REMARK Flexibility Score: inf
ROOT
ATOM      1  O   UNL     1      25.728  31.108  16.879  1.00  0.00    -0.443 OA
ENDROOT
BRANCH   1   2
ATOM      2  C   UNL     1      25.973  30.639  18.154  1.00  0.00     0.407 C 
ATOM      3  N   UNL     1      26.763  29.470  18.398  1.00  0.00    -0.319 N 
ATOM      4  H   UNL     1      27.145  29.005  17.568  1.00  0.00     0.167 HD
ATOM      5  O   UNL     1      25.485  31.259  19.127  1.00  0.00    -0.225 OA
BRANCH   3   6
ATOM      6  C   UNL     1      26.969  29.051  19.735  1.00  0.00     0.154 C 
BRANCH   6   7
ATOM      7  C   UNL     1      28.384  28.867  20.173  1.00  0.00     0.165 C 
BRANCH   7   8
ATOM      8  C   UNL     1      29.303  30.016  19.898  1.00  0.00     0.176 C 
BRANCH   8   9
ATOM      9  C   UNL     1      30.630  29.947  20.591  1.00  0.00     0.178 C 
ATOM     10  C   UNL     1      31.798  28.743  22.163  1.00  0.00     0.269 C 
ATOM     11  C   UNL     1      32.913  29.574  21.557  1.00  0.00     0.112 C 
ATOM     12  O   UNL     1      30.606  28.920  21.503  1.00  0.00    -0.332 OA
ATOM     13  C   UNL     1      32.572  31.031  21.601  1.00  0.00     0.145 C 
ATOM     14  C   UNL     1      31.097  31.208  21.230  1.00  0.00     0.142 C 
BRANCH  10  15
ATOM     15  O   UNL     1      31.637  29.178  23.491  1.00  0.00    -0.357 OA
ATOM     16  H   UNL     1      31.656  28.356  24.047  1.00  0.00     0.214 HD
ENDBRANCH  10  15
BRANCH  10  17
ATOM     17  C   UNL     1      32.186  27.324  22.179  1.00  0.00     0.364 C 
ATOM     18  O   UNL     1      31.428  26.450  21.673  1.00  0.00    -0.246 OA
BRANCH  17  19
ATOM     19  O   UNL     1      33.376  26.905  22.737  1.00  0.00    -0.477 OA
ATOM     20  H   UNL     1      34.132  26.578  22.166  1.00  0.00     0.296 HD
ENDBRANCH  17  19
ENDBRANCH  10  17
BRANCH  13  21
ATOM     21  O   UNL     1      32.808  31.508  22.898  1.00  0.00    -0.391 OA
ATOM     22  H   UNL     1      32.619  30.797  23.547  1.00  0.00     0.211 HD
ENDBRANCH  13  21
BRANCH  14  23
ATOM     23  N   UNL     1      31.098  32.330  20.285  1.00  0.00    -0.348 N 
ATOM     24  C   UNL     1      31.101  33.664  20.756  1.00  0.00     0.217 C 
ATOM     25  H   UNL     1      31.094  32.128  19.259  1.00  0.00     0.163 HD
ATOM     26  C   UNL     1      31.098  34.799  19.779  1.00  0.00     0.114 C 
ATOM     27  O   UNL     1      31.109  33.966  21.989  1.00  0.00    -0.275 OA
ENDBRANCH  14  23
ENDBRANCH   8   9
BRANCH   8  28
ATOM     28  O   UNL     1      29.481  30.132  18.511  1.00  0.00    -0.388 OA
ATOM     29  H   UNL     1      30.414  30.450  18.362  1.00  0.00     0.211 HD
ENDBRANCH   8  28
ENDBRANCH   7   8
BRANCH   7  30
ATOM     30  O   UNL     1      28.859  27.706  19.525  1.00  0.00    -0.388 OA
ATOM     31  H   UNL     1      29.625  27.889  18.945  1.00  0.00     0.211 HD
ENDBRANCH   7  30
ENDBRANCH   6   7
ENDBRANCH   3   6
ENDBRANCH   1   2
BRANCH   1  32
ATOM     32  C   UNL     1      26.149  32.421  16.538  1.00  0.00     0.294 C 
BRANCH  32  33
ATOM     33  C   UNL     1      27.624  32.516  16.624  1.00  0.00     0.120 A 
ATOM     34  C   UNL     1      28.586  32.202  15.689  1.00  0.00     0.138 A 
ATOM     35  N   UNL     1      28.321  32.951  17.695  1.00  0.00    -0.132 NA
ATOM     36  N   UNL     1      29.813  32.441  16.191  1.00  0.00    -0.252 N 
ATOM     37  N   UNL     1      29.607  32.895  17.410  1.00  0.00    -0.067 NA
BRANCH  36  38
ATOM     38  C   UNL     1      31.090  32.258  15.583  1.00  0.00     0.152 C 
BRANCH  38  39
ATOM     39  C   UNL     1      31.932  33.476  15.556  1.00  0.00     0.085 C 
BRANCH  39  40
ATOM     40  C   UNL     1      31.694  34.478  14.504  1.00  0.00     0.265 C 
BRANCH  40  41
ATOM     41  N   UNL     1      31.039  35.687  14.791  1.00  0.00    -0.326 N 
ATOM     42  C   UNL     1      30.892  36.038  16.177  1.00  0.00     0.334 C 
BRANCH  41  43
ATOM     43  C   UNL     1      31.895  36.751  14.230  1.00  0.00     0.260 C 
ATOM     44  C   UNL     1      31.153  37.879  13.623  1.00  0.00     0.071 C 
ENDBRANCH  41  43
BRANCH  41  45
ATOM     45  C   UNL     1      29.761  35.827  14.150  1.00  0.00     0.260 C 
ATOM     46  C   UNL     1      29.412  34.746  13.193  1.00  0.00     0.071 C 
ENDBRANCH  41  45
ENDBRANCH  40  41
ENDBRANCH  39  40
ENDBRANCH  38  39
ENDBRANCH  36  38
ENDBRANCH  32  33
ENDBRANCH   1  32
TORSDOF 20
BEGIN_RES LYS A 131
REMARK  4 active torsions:
REMARK  status: ('A' for Active; 'I' for Inactive)
REMARK    1  A    between atoms: CA   and  CB  
REMARK    2  A    between atoms: CB   and  CG  
REMARK    3  A    between atoms: CG   and  CD  
REMARK    4  A    between atoms: CD   and  CE  
ROOT
ATOM      1  CA  LYS A 131      29.867  25.555  16.977  1.00 20.52     0.186 C 
ENDROOT
BRANCH   1   2
ATOM      2  CB  LYS A 131      28.345  25.722  17.026  1.00 20.94     0.034 C 
BRANCH   2   3
ATOM      3  CG  LYS A 131      27.601  24.403  16.887  1.00 22.96     0.005 C 
BRANCH   3   4
ATOM      4  CD  LYS A 131      26.162  24.517  17.306  1.00 24.33     0.041 C 
BRANCH   4   5
ATOM      5  CE  LYS A 131      25.994  25.721  18.228  1.00 26.91     0.338 C 
ATOM      6  NZ  LYS A 131      24.833  26.540  17.806  1.00 27.40     0.618 N 
ENDBRANCH   4   5
ENDBRANCH   3   4
ENDBRANCH   2   3
ENDBRANCH   1   2
END_RES LYS A 131
BEGIN_RES LYS A 135
REMARK  4 active torsions:
REMARK  status: ('A' for Active; 'I' for Inactive)
REMARK    5  A    between atoms: CA   and  CB  
REMARK    6  A    between atoms: CB   and  CG  
REMARK    7  A    between atoms: CG   and  CD  
REMARK    8  A    between atoms: CD   and  CE  
ROOT
ATOM      7  CA  LYS A 135      33.193  34.663   9.290  1.00 25.02     0.186 C 
ENDROOT
BRANCH   7   8
ATOM      8  CB  LYS A 135      32.060  35.360  10.034  1.00 26.63     0.034 C 
BRANCH   8   9
ATOM      9  CG  LYS A 135      30.696  34.810   9.706  1.00 29.45     0.005 C 
BRANCH   9  10
ATOM     10  CD  LYS A 135      30.588  34.491   8.223  1.00 32.00     0.041 C 
BRANCH  10  11
ATOM     11  CE  LYS A 135      29.313  35.075   7.644  1.00 34.25     0.338 C 
ATOM     12  NZ  LYS A 135      29.164  36.509   8.016  1.00 35.99     0.618 N 
ENDBRANCH  10  11
ENDBRANCH   9  10
ENDBRANCH   8   9
ENDBRANCH   7   8
END_RES LYS A 135
