REMARK VINA RESULT:    -5.193      7.915     13.342
REMARK INTER + INTRA:         -16.274
REMARK INTER:                 -11.124
REMARK INTRA:                  -5.150
REMARK UNBOUND:                -6.527
REMARK SMILES CC(=O)N[C@@H]1[C@@H](O)C[C@](O)(C(=O)O)O[C@H]1C(O)[C@H](O)CNC(=O)OCc1cn(-c2ccc(S(=O)(=O)c3ccc(N)cc3)cc2)nn1
REMARK SMILES IDX 21 1 22 2 23 3 20 5 18 6 16 7 15 8 9 9 8 10 14 11 6 12 5 13
REMARK SMILES IDX 10 14 11 16 12 17 13 18 7 20 4 22 2 23 1 25 3 26 17 27 19 29
REMARK SMILES IDX 24 31 25 32 26 33 27 34 46 35 28 36 45 37 29 38 30 39 44 40
REMARK SMILES IDX 31 41 43 42 32 43 33 44 34 45 35 46 36 47 37 48 42 49 38 50
REMARK SMILES IDX 41 51 39 52 40 53
REMARK H PARENT 21 4 10 15 13 19 7 21 4 24 17 28 19 30 40 54 40 55
REMARK Flexibility Score: inf
ROOT
ATOM      1  N   UNL     1      28.657  37.311  12.206  1.00  0.00    -0.319 N 
ATOM      2  C   UNL     1      28.983  37.880  13.460  1.00  0.00     0.407 C 
ATOM      3  O   UNL     1      28.122  37.968  14.342  1.00  0.00    -0.225 OA
ATOM      4  H   UNL     1      29.463  37.273  11.507  1.00  0.00     0.167 HD
ENDROOT
BRANCH   1   5
ATOM      5  C   UNL     1      27.358  36.802  11.832  1.00  0.00     0.154 C 
BRANCH   5   6
ATOM      6  C   UNL     1      26.873  37.526  10.624  1.00  0.00     0.165 C 
BRANCH   6   7
ATOM      7  C   UNL     1      26.140  36.627   9.651  1.00  0.00     0.176 C 
BRANCH   7   8
ATOM      8  C   UNL     1      26.966  36.144   8.508  1.00  0.00     0.178 C 
ATOM      9  C   UNL     1      29.194  35.694   8.057  1.00  0.00     0.269 C 
ATOM     10  C   UNL     1      28.862  35.617   6.599  1.00  0.00     0.112 C 
ATOM     11  O   UNL     1      28.106  35.471   8.883  1.00  0.00    -0.332 OA
ATOM     12  C   UNL     1      27.645  36.371   6.198  1.00  0.00     0.145 C 
ATOM     13  C   UNL     1      27.169  37.172   7.422  1.00  0.00     0.142 C 
BRANCH   9  14
ATOM     14  O   UNL     1      29.846  36.908   8.374  1.00  0.00    -0.357 OA
ATOM     15  H   UNL     1      29.729  37.080   9.324  1.00  0.00     0.214 HD
ENDBRANCH   9  14
BRANCH   9  16
ATOM     16  C   UNL     1      30.188  34.619   8.348  1.00  0.00     0.364 C 
ATOM     17  O   UNL     1      29.863  33.695   9.155  1.00  0.00    -0.246 OA
BRANCH  16  18
ATOM     18  O   UNL     1      31.442  34.563   7.794  1.00  0.00    -0.477 OA
ATOM     19  H   UNL     1      32.163  33.975   8.208  1.00  0.00     0.296 HD
ENDBRANCH  16  18
ENDBRANCH   9  16
BRANCH  12  20
ATOM     20  O   UNL     1      27.837  37.208   5.111  1.00  0.00    -0.391 OA
ATOM     21  H   UNL     1      27.123  37.023   4.421  1.00  0.00     0.211 HD
ENDBRANCH  12  20
BRANCH  13  22
ATOM     22  N   UNL     1      25.866  37.747   7.110  1.00  0.00    -0.348 N 
ATOM     23  C   UNL     1      25.621  39.122   7.350  1.00  0.00     0.217 C 
ATOM     24  H   UNL     1      25.088  37.180   6.711  1.00  0.00     0.163 HD
ATOM     25  C   UNL     1      24.285  39.746   7.042  1.00  0.00     0.114 C 
ATOM     26  O   UNL     1      26.484  39.889   7.825  1.00  0.00    -0.275 OA
ENDBRANCH  13  22
ENDBRANCH   7   8
BRANCH   7  27
ATOM     27  O   UNL     1      25.634  35.572  10.420  1.00  0.00    -0.388 OA
ATOM     28  H   UNL     1      26.280  34.835  10.382  1.00  0.00     0.211 HD
ENDBRANCH   7  27
ENDBRANCH   6   7
BRANCH   6  29
ATOM     29  O   UNL     1      27.896  38.251  10.030  1.00  0.00    -0.388 OA
ATOM     30  H   UNL     1      27.779  38.215   9.047  1.00  0.00     0.211 HD
ENDBRANCH   6  29
ENDBRANCH   5   6
ENDBRANCH   1   5
BRANCH   2  31
ATOM     31  O   UNL     1      30.253  38.358  13.764  1.00  0.00    -0.443 OA
BRANCH  31  32
ATOM     32  C   UNL     1      30.631  39.703  13.512  1.00  0.00     0.294 C 
BRANCH  32  33
ATOM     33  C   UNL     1      30.309  40.116  12.116  1.00  0.00     0.121 A 
ATOM     34  C   UNL     1      31.202  40.084  11.080  1.00  0.00     0.144 A 
ATOM     35  N   UNL     1      29.149  40.575  11.627  1.00  0.00    -0.131 NA
ATOM     36  N   UNL     1      30.562  40.527   9.972  1.00  0.00    -0.220 N 
ATOM     37  N   UNL     1      29.344  40.807  10.345  1.00  0.00    -0.062 NA
BRANCH  36  38
ATOM     38  C   UNL     1      31.185  40.629   8.702  1.00  0.00     0.066 A 
ATOM     39  C   UNL     1      32.270  41.459   8.525  1.00  0.00     0.030 A 
ATOM     40  C   UNL     1      30.745  39.919   7.606  1.00  0.00     0.030 A 
ATOM     41  C   UNL     1      32.908  41.588   7.303  1.00  0.00     0.023 A 
ATOM     42  C   UNL     1      31.382  40.042   6.367  1.00  0.00     0.023 A 
ATOM     43  C   UNL     1      32.463  40.877   6.216  1.00  0.00     0.072 A 
BRANCH  43  44
ATOM     44  S   UNL     1      33.259  41.038   4.690  1.00  0.00     0.206 S 
ATOM     45  O   UNL     1      33.801  42.419   4.543  1.00  0.00    -0.219 OA
ATOM     46  O   UNL     1      32.343  40.776   3.531  1.00  0.00    -0.219 OA
BRANCH  44  47
ATOM     47  C   UNL     1      34.544  39.836   4.629  1.00  0.00     0.072 A 
ATOM     48  C   UNL     1      35.054  39.354   5.805  1.00  0.00     0.023 A 
ATOM     49  C   UNL     1      35.045  39.369   3.418  1.00  0.00     0.023 A 
ATOM     50  C   UNL     1      36.068  38.404   5.804  1.00  0.00     0.027 A 
ATOM     51  C   UNL     1      36.056  38.422   3.381  1.00  0.00     0.027 A 
ATOM     52  C   UNL     1      36.542  37.965   4.583  1.00  0.00     0.031 A 
BRANCH  52  53
ATOM     53  N   UNL     1      37.573  36.999   4.568  1.00  0.00    -0.399 N 
ATOM     54  H   UNL     1      37.375  36.017   4.821  1.00  0.00     0.156 HD
ATOM     55  H   UNL     1      38.531  37.283   4.301  1.00  0.00     0.156 HD
ENDBRANCH  52  53
ENDBRANCH  44  47
ENDBRANCH  43  44
ENDBRANCH  36  38
ENDBRANCH  32  33
ENDBRANCH  31  32
ENDBRANCH   2  31
TORSDOF 18
BEGIN_RES LYS A 131
REMARK  4 active torsions:
REMARK  status: ('A' for Active; 'I' for Inactive)
REMARK    1  A    between atoms: CA   and  CB  
REMARK    2  A    between atoms: CB   and  CG  
REMARK    3  A    between atoms: CG   and  CD  
REMARK    4  A    between atoms: CD   and  CE  
ROOT
ATOM      1  CA  LYS A 131      29.867  25.555  16.977  1.00 20.52     0.186 C 
ENDROOT
BRANCH   1   2
ATOM      2  CB  LYS A 131      28.345  25.722  17.026  1.00 20.94     0.034 C 
BRANCH   2   3
ATOM      3  CG  LYS A 131      27.599  24.477  16.571  1.00 22.96     0.005 C 
BRANCH   3   4
ATOM      4  CD  LYS A 131      27.012  23.714  17.726  1.00 24.33     0.041 C 
BRANCH   4   5
ATOM      5  CE  LYS A 131      25.860  24.510  18.329  1.00 26.91     0.338 C 
ATOM      6  NZ  LYS A 131      24.780  24.697  17.331  1.00 27.40     0.618 N 
ENDBRANCH   4   5
ENDBRANCH   3   4
ENDBRANCH   2   3
ENDBRANCH   1   2
END_RES LYS A 131
BEGIN_RES LYS A 135
REMARK  4 active torsions:
REMARK  status: ('A' for Active; 'I' for Inactive)
REMARK    5  A    between atoms: CA   and  CB  
REMARK    6  A    between atoms: CB   and  CG  
REMARK    7  A    between atoms: CG   and  CD  
REMARK    8  A    between atoms: CD   and  CE  
ROOT
ATOM      7  CA  LYS A 135      33.193  34.663   9.290  1.00 25.02     0.186 C 
ENDROOT
BRANCH   7   8
ATOM      8  CB  LYS A 135      32.060  35.360  10.034  1.00 26.63     0.034 C 
BRANCH   8   9
ATOM      9  CG  LYS A 135      32.536  36.351  11.065  1.00 29.45     0.005 C 
BRANCH   9  10
ATOM     10  CD  LYS A 135      32.319  35.810  12.469  1.00 32.00     0.041 C 
BRANCH  10  11
ATOM     11  CE  LYS A 135      31.129  34.870  12.500  1.00 34.25     0.338 C 
ATOM     12  NZ  LYS A 135      30.644  34.665  13.893  1.00 35.99     0.618 N 
ENDBRANCH  10  11
ENDBRANCH   9  10
ENDBRANCH   8   9
ENDBRANCH   7   8
END_RES LYS A 135
