REMARK VINA RESULT:    -5.378      7.439     13.390
REMARK INTER + INTRA:         -14.809
REMARK INTER:                  -9.233
REMARK INTRA:                  -5.576
REMARK UNBOUND:                -5.502
REMARK SMILES CC(=O)N[C@@H]1[C@@H](O)C[C@](O)(C(=O)O)O[C@H]1C(O)[C@H](O)CNC(=O)OCc1cn([C@@H]2C[C@H]3CC[C@@H](C2)N3C)nn1
REMARK SMILES IDX 20 1 18 2 16 3 15 4 9 5 8 6 14 7 6 8 5 9 10 10 11 12 12 13
REMARK SMILES IDX 13 14 7 16 4 18 2 19 1 21 3 22 17 23 19 25 21 27 22 28 23 30
REMARK SMILES IDX 24 31 25 32 26 33 27 34 39 35 28 36 38 37 29 38 35 39 30 40
REMARK SMILES IDX 34 41 31 42 36 43 33 44 32 45 37 46
REMARK H PARENT 10 11 13 15 7 17 4 20 17 24 19 26 21 29
REMARK Flexibility Score: inf
ROOT
ATOM      1  C   UNL     1      29.900  40.246   7.326  1.00  0.00     0.154 C 
ENDROOT
BRANCH   1   2
ATOM      2  C   UNL     1      30.336  38.867   7.726  1.00  0.00     0.165 C 
BRANCH   2   3
ATOM      3  C   UNL     1      29.877  38.546   9.144  1.00  0.00     0.176 C 
BRANCH   3   4
ATOM      4  C   UNL     1      29.171  37.192   9.107  1.00  0.00     0.178 C 
ATOM      5  C   UNL     1      29.265  35.272   7.774  1.00  0.00     0.269 C 
ATOM      6  C   UNL     1      27.829  35.355   7.363  1.00  0.00     0.112 C 
ATOM      7  O   UNL     1      29.821  36.423   8.227  1.00  0.00    -0.332 OA
ATOM      8  C   UNL     1      27.132  36.614   7.753  1.00  0.00     0.145 C 
ATOM      9  C   UNL     1      27.683  37.325   8.944  1.00  0.00     0.142 C 
BRANCH   5  10
ATOM     10  O   UNL     1      30.010  34.891   6.654  1.00  0.00    -0.357 OA
ATOM     11  H   UNL     1      29.454  34.475   5.952  1.00  0.00     0.214 HD
ENDBRANCH   5  10
BRANCH   5  12
ATOM     12  C   UNL     1      29.498  34.226   8.792  1.00  0.00     0.364 C 
ATOM     13  O   UNL     1      28.528  33.712   9.387  1.00  0.00    -0.246 OA
BRANCH  12  14
ATOM     14  O   UNL     1      30.759  33.758   9.148  1.00  0.00    -0.477 OA
ATOM     15  H   UNL     1      31.392  33.376   8.428  1.00  0.00     0.296 HD
ENDBRANCH  12  14
ENDBRANCH   5  12
BRANCH   8  16
ATOM     16  O   UNL     1      27.129  37.451   6.628  1.00  0.00    -0.391 OA
ATOM     17  H   UNL     1      26.596  38.261   6.809  1.00  0.00     0.211 HD
ENDBRANCH   8  16
BRANCH   9  18
ATOM     18  N   UNL     1      26.986  37.072  10.176  1.00  0.00    -0.348 N 
ATOM     19  C   UNL     1      26.312  38.065  10.923  1.00  0.00     0.217 C 
ATOM     20  H   UNL     1      26.961  36.093  10.570  1.00  0.00     0.163 HD
ATOM     21  C   UNL     1      25.591  37.828  12.192  1.00  0.00     0.114 C 
ATOM     22  O   UNL     1      26.351  39.221  10.438  1.00  0.00    -0.275 OA
ENDBRANCH   9  18
ENDBRANCH   3   4
BRANCH   3  23
ATOM     23  O   UNL     1      29.046  39.526   9.660  1.00  0.00    -0.388 OA
ATOM     24  H   UNL     1      29.210  40.362   9.154  1.00  0.00     0.211 HD
ENDBRANCH   3  23
ENDBRANCH   2   3
BRANCH   2  25
ATOM     25  O   UNL     1      31.689  38.692   7.671  1.00  0.00    -0.388 OA
ATOM     26  H   UNL     1      31.931  37.765   7.964  1.00  0.00     0.211 HD
ENDBRANCH   2  25
ENDBRANCH   1   2
BRANCH   1  27
ATOM     27  N   UNL     1      28.553  40.294   6.870  1.00  0.00    -0.319 N 
ATOM     28  C   UNL     1      28.139  40.749   5.606  1.00  0.00     0.407 C 
ATOM     29  H   UNL     1      27.778  39.961   7.527  1.00  0.00     0.167 HD
ATOM     30  O   UNL     1      28.936  41.172   4.748  1.00  0.00    -0.225 OA
BRANCH  28  31
ATOM     31  O   UNL     1      26.768  40.730   5.286  1.00  0.00    -0.443 OA
BRANCH  31  32
ATOM     32  C   UNL     1      25.896  41.576   6.008  1.00  0.00     0.294 C 
BRANCH  32  33
ATOM     33  C   UNL     1      24.826  40.800   6.636  1.00  0.00     0.120 A 
ATOM     34  C   UNL     1      24.988  39.585   7.292  1.00  0.00     0.138 A 
ATOM     35  N   UNL     1      23.530  41.101   6.694  1.00  0.00    -0.132 NA
ATOM     36  N   UNL     1      23.782  39.197   7.723  1.00  0.00    -0.249 N 
ATOM     37  N   UNL     1      22.928  40.126   7.350  1.00  0.00    -0.067 NA
BRANCH  36  38
ATOM     38  C   UNL     1      23.446  38.003   8.458  1.00  0.00     0.112 C 
ATOM     39  C   UNL     1      22.668  38.402   9.712  1.00  0.00     0.046 C 
ATOM     40  C   UNL     1      22.520  37.190   7.580  1.00  0.00     0.046 C 
ATOM     41  C   UNL     1      22.105  37.157  10.341  1.00  0.00     0.058 C 
ATOM     42  C   UNL     1      21.856  36.109   8.370  1.00  0.00     0.058 C 
ATOM     43  N   UNL     1      21.089  36.583   9.479  1.00  0.00    -0.300 NA
ATOM     44  C   UNL     1      23.153  36.060  10.355  1.00  0.00     0.021 C 
ATOM     45  C   UNL     1      22.970  35.317   9.067  1.00  0.00     0.021 C 
ATOM     46  C   UNL     1      20.061  37.518   9.123  1.00  0.00     0.105 C 
ENDBRANCH  36  38
ENDBRANCH  32  33
ENDBRANCH  31  32
ENDBRANCH  28  31
ENDBRANCH   1  27
TORSDOF 15
BEGIN_RES LYS A 131
REMARK  4 active torsions:
REMARK  status: ('A' for Active; 'I' for Inactive)
REMARK    1  A    between atoms: CA   and  CB  
REMARK    2  A    between atoms: CB   and  CG  
REMARK    3  A    between atoms: CG   and  CD  
REMARK    4  A    between atoms: CD   and  CE  
ROOT
ATOM      1  CA  LYS A 131      29.867  25.555  16.977  1.00 20.52     0.186 C 
ENDROOT
BRANCH   1   2
ATOM      2  CB  LYS A 131      28.345  25.722  17.026  1.00 20.94     0.034 C 
BRANCH   2   3
ATOM      3  CG  LYS A 131      27.601  24.401  16.903  1.00 22.96     0.005 C 
BRANCH   3   4
ATOM      4  CD  LYS A 131      26.643  24.183  18.041  1.00 24.33     0.041 C 
BRANCH   4   5
ATOM      5  CE  LYS A 131      25.533  23.236  17.597  1.00 26.91     0.338 C 
ATOM      6  NZ  LYS A 131      24.470  23.981  16.882  1.00 27.40     0.618 N 
ENDBRANCH   4   5
ENDBRANCH   3   4
ENDBRANCH   2   3
ENDBRANCH   1   2
END_RES LYS A 131
BEGIN_RES LYS A 135
REMARK  4 active torsions:
REMARK  status: ('A' for Active; 'I' for Inactive)
REMARK    5  A    between atoms: CA   and  CB  
REMARK    6  A    between atoms: CB   and  CG  
REMARK    7  A    between atoms: CG   and  CD  
REMARK    8  A    between atoms: CD   and  CE  
ROOT
ATOM      7  CA  LYS A 135      33.193  34.663   9.290  1.00 25.02     0.186 C 
ENDROOT
BRANCH   7   8
ATOM      8  CB  LYS A 135      32.060  35.360  10.034  1.00 26.63     0.034 C 
BRANCH   8   9
ATOM      9  CG  LYS A 135      32.508  36.069  11.286  1.00 29.45     0.005 C 
BRANCH   9  10
ATOM     10  CD  LYS A 135      31.350  36.218  12.261  1.00 32.00     0.041 C 
BRANCH  10  11
ATOM     11  CE  LYS A 135      30.728  34.868  12.559  1.00 34.25     0.338 C 
ATOM     12  NZ  LYS A 135      29.243  34.926  12.452  1.00 35.99     0.618 N 
ENDBRANCH  10  11
ENDBRANCH   9  10
ENDBRANCH   8   9
ENDBRANCH   7   8
END_RES LYS A 135
