REMARK VINA RESULT:    -5.141      5.682      9.585
REMARK INTER + INTRA:         -14.488
REMARK INTER:                  -9.455
REMARK INTRA:                  -5.033
REMARK UNBOUND:                -5.290
REMARK SMILES CC(=O)N[C@@H]1[C@@H](O)C[C@](O)(C(=O)O)O[C@H]1C(O)[C@H](O)CNC(=O)OCc1cn(Cc2ccccc2)nn1
REMARK SMILES IDX 21 1 22 2 23 3 20 5 18 6 16 7 15 8 9 9 8 10 14 11 6 12 5 13
REMARK SMILES IDX 10 14 11 16 12 17 13 18 7 20 4 22 2 23 1 25 3 26 17 27 19 29
REMARK SMILES IDX 24 31 25 32 26 33 27 34 37 35 28 36 36 37 29 38 30 39 31 40
REMARK SMILES IDX 35 41 32 42 34 43 33 44
REMARK H PARENT 21 4 10 15 13 19 7 21 4 24 17 28 19 30
REMARK Flexibility Score: inf
ROOT
ATOM      1  N   UNL     1      28.255  36.734  16.901  1.00  0.00    -0.319 N 
ATOM      2  C   UNL     1      27.640  36.026  15.849  1.00  0.00     0.407 C 
ATOM      3  O   UNL     1      26.985  34.989  16.040  1.00  0.00    -0.225 OA
ATOM      4  H   UNL     1      28.781  37.601  16.617  1.00  0.00     0.167 HD
ENDROOT
BRANCH   1   5
ATOM      5  C   UNL     1      28.186  36.322  18.269  1.00  0.00     0.154 C 
BRANCH   5   6
ATOM      6  C   UNL     1      29.506  35.718  18.689  1.00  0.00     0.165 C 
BRANCH   6   7
ATOM      7  C   UNL     1      29.478  34.218  18.603  1.00  0.00     0.176 C 
BRANCH   7   8
ATOM      8  C   UNL     1      30.409  33.657  17.555  1.00  0.00     0.178 C 
ATOM      9  C   UNL     1      30.552  33.929  15.238  1.00  0.00     0.269 C 
ATOM     10  C   UNL     1      31.497  32.717  15.283  1.00  0.00     0.112 C 
ATOM     11  O   UNL     1      30.573  34.481  16.483  1.00  0.00    -0.332 OA
ATOM     12  C   UNL     1      30.687  31.661  16.031  1.00  0.00     0.145 C 
ATOM     13  C   UNL     1      30.064  32.236  17.283  1.00  0.00     0.142 C 
BRANCH   9  14
ATOM     14  O   UNL     1      29.310  33.555  14.768  1.00  0.00    -0.357 OA
ATOM     15  H   UNL     1      28.728  33.369  15.536  1.00  0.00     0.214 HD
ENDBRANCH   9  14
BRANCH   9  16
ATOM     16  C   UNL     1      31.191  34.921  14.301  1.00  0.00     0.364 C 
ATOM     17  O   UNL     1      31.282  36.131  14.593  1.00  0.00    -0.246 OA
BRANCH  16  18
ATOM     18  O   UNL     1      31.693  34.500  13.085  1.00  0.00    -0.477 OA
ATOM     19  H   UNL     1      32.023  33.553  13.001  1.00  0.00     0.296 HD
ENDBRANCH  16  18
ENDBRANCH   9  16
BRANCH  12  20
ATOM     20  O   UNL     1      29.717  31.219  15.129  1.00  0.00    -0.391 OA
ATOM     21  H   UNL     1      30.042  30.409  14.679  1.00  0.00     0.211 HD
ENDBRANCH  12  20
BRANCH  13  22
ATOM     22  N   UNL     1      30.517  31.460  18.452  1.00  0.00    -0.348 N 
ATOM     23  C   UNL     1      29.634  30.684  19.242  1.00  0.00     0.217 C 
ATOM     24  H   UNL     1      31.543  31.481  18.720  1.00  0.00     0.163 HD
ATOM     25  C   UNL     1      30.042  29.889  20.426  1.00  0.00     0.114 C 
ATOM     26  O   UNL     1      28.420  30.663  18.920  1.00  0.00    -0.275 OA
ENDBRANCH  13  22
ENDBRANCH   7   8
BRANCH   7  27
ATOM     27  O   UNL     1      28.173  33.795  18.439  1.00  0.00    -0.388 OA
ATOM     28  H   UNL     1      27.572  34.545  18.665  1.00  0.00     0.211 HD
ENDBRANCH   7  27
ENDBRANCH   6   7
BRANCH   6  29
ATOM     29  O   UNL     1      29.733  36.172  19.988  1.00  0.00    -0.388 OA
ATOM     30  H   UNL     1      30.545  36.722  20.065  1.00  0.00     0.211 HD
ENDBRANCH   6  29
ENDBRANCH   5   6
ENDBRANCH   1   5
BRANCH   2  31
ATOM     31  O   UNL     1      27.749  36.477  14.535  1.00  0.00    -0.443 OA
BRANCH  31  32
ATOM     32  C   UNL     1      26.604  36.943  13.863  1.00  0.00     0.294 C 
BRANCH  32  33
ATOM     33  C   UNL     1      26.281  36.103  12.684  1.00  0.00     0.120 A 
ATOM     34  C   UNL     1      25.681  36.529  11.529  1.00  0.00     0.138 A 
ATOM     35  N   UNL     1      26.517  34.795  12.552  1.00  0.00    -0.132 NA
ATOM     36  N   UNL     1      25.568  35.461  10.722  1.00  0.00    -0.248 N 
ATOM     37  N   UNL     1      26.087  34.415  11.375  1.00  0.00    -0.067 NA
BRANCH  36  38
ATOM     38  C   UNL     1      25.006  35.385   9.397  1.00  0.00     0.181 C 
BRANCH  38  39
ATOM     39  C   UNL     1      26.014  35.751   8.366  1.00  0.00    -0.026 A 
ATOM     40  C   UNL     1      26.002  37.001   7.757  1.00  0.00     0.005 A 
ATOM     41  C   UNL     1      26.996  34.879   7.967  1.00  0.00     0.005 A 
ATOM     42  C   UNL     1      26.935  37.332   6.806  1.00  0.00     0.000 A 
ATOM     43  C   UNL     1      27.941  35.204   7.009  1.00  0.00     0.000 A 
ATOM     44  C   UNL     1      27.916  36.445   6.416  1.00  0.00     0.000 A 
ENDBRANCH  38  39
ENDBRANCH  36  38
ENDBRANCH  32  33
ENDBRANCH  31  32
ENDBRANCH   2  31
TORSDOF 16
BEGIN_RES LYS A 131
REMARK  4 active torsions:
REMARK  status: ('A' for Active; 'I' for Inactive)
REMARK    1  A    between atoms: CA   and  CB  
REMARK    2  A    between atoms: CB   and  CG  
REMARK    3  A    between atoms: CG   and  CD  
REMARK    4  A    between atoms: CD   and  CE  
ROOT
ATOM      1  CA  LYS A 131      29.867  25.555  16.977  1.00 20.52     0.186 C 
ENDROOT
BRANCH   1   2
ATOM      2  CB  LYS A 131      28.345  25.722  17.026  1.00 20.94     0.034 C 
BRANCH   2   3
ATOM      3  CG  LYS A 131      27.601  24.403  16.888  1.00 22.96     0.005 C 
BRANCH   3   4
ATOM      4  CD  LYS A 131      26.743  24.108  18.087  1.00 24.33     0.041 C 
BRANCH   4   5
ATOM      5  CE  LYS A 131      26.046  25.386  18.541  1.00 26.91     0.338 C 
ATOM      6  NZ  LYS A 131      24.780  25.579  17.795  1.00 27.40     0.618 N 
ENDBRANCH   4   5
ENDBRANCH   3   4
ENDBRANCH   2   3
ENDBRANCH   1   2
END_RES LYS A 131
BEGIN_RES LYS A 135
REMARK  4 active torsions:
REMARK  status: ('A' for Active; 'I' for Inactive)
REMARK    5  A    between atoms: CA   and  CB  
REMARK    6  A    between atoms: CB   and  CG  
REMARK    7  A    between atoms: CG   and  CD  
REMARK    8  A    between atoms: CD   and  CE  
ROOT
ATOM      7  CA  LYS A 135      33.193  34.663   9.290  1.00 25.02     0.186 C 
ENDROOT
BRANCH   7   8
ATOM      8  CB  LYS A 135      32.060  35.360  10.034  1.00 26.63     0.034 C 
BRANCH   8   9
ATOM      9  CG  LYS A 135      30.799  35.496   9.221  1.00 29.45     0.005 C 
BRANCH   9  10
ATOM     10  CD  LYS A 135      30.310  36.936   9.224  1.00 32.00     0.041 C 
BRANCH  10  11
ATOM     11  CE  LYS A 135      29.105  37.087  10.132  1.00 34.25     0.338 C 
ATOM     12  NZ  LYS A 135      29.519  37.196  11.559  1.00 35.99     0.618 N 
ENDBRANCH  10  11
ENDBRANCH   9  10
ENDBRANCH   8   9
ENDBRANCH   7   8
END_RES LYS A 135
