REMARK VINA RESULT:    -4.503      4.295      8.078
REMARK INTER + INTRA:         -14.811
REMARK INTER:                  -9.340
REMARK INTRA:                  -5.472
REMARK UNBOUND:                -6.624
REMARK SMILES CC(=O)N[C@@H]1[C@@H](O)C[C@](O)(C(=O)O)O[C@H]1C(O)[C@H](O)CNC(=O)OCc1cn(-c2cccc(S(N)(=O)=O)c2)nn1
REMARK SMILES IDX 21 1 22 2 23 3 20 5 18 6 16 7 15 8 9 9 8 10 14 11 6 12 5 13
REMARK SMILES IDX 10 14 11 16 12 17 13 18 7 20 4 22 2 23 1 25 3 26 17 27 19 29
REMARK SMILES IDX 24 31 25 32 26 33 27 34 40 35 28 36 39 37 29 38 38 39 30 40
REMARK SMILES IDX 33 41 31 42 32 43 34 44 36 45 37 46 35 47
REMARK H PARENT 21 4 10 15 13 19 7 21 4 24 17 28 19 30 35 48 35 49
REMARK Flexibility Score: inf
ROOT
ATOM      1  N   UNL     1      22.599  34.220  13.255  1.00  0.00    -0.319 N 
ATOM      2  C   UNL     1      23.241  33.021  12.854  1.00  0.00     0.407 C 
ATOM      3  O   UNL     1      22.543  32.068  12.465  1.00  0.00    -0.225 OA
ATOM      4  H   UNL     1      23.252  34.988  13.571  1.00  0.00     0.167 HD
ENDROOT
BRANCH   1   5
ATOM      5  C   UNL     1      21.168  34.387  13.234  1.00  0.00     0.154 C 
BRANCH   5   6
ATOM      6  C   UNL     1      20.764  35.490  12.279  1.00  0.00     0.165 C 
BRANCH   6   7
ATOM      7  C   UNL     1      20.688  34.925  10.867  1.00  0.00     0.176 C 
BRANCH   7   8
ATOM      8  C   UNL     1      19.555  35.632  10.127  1.00  0.00     0.178 C 
ATOM      9  C   UNL     1      18.737  34.725   8.157  1.00  0.00     0.269 C 
ATOM     10  C   UNL     1      18.415  36.078   7.567  1.00  0.00     0.112 C 
ATOM     11  O   UNL     1      18.729  34.726   9.537  1.00  0.00    -0.332 OA
ATOM     12  C   UNL     1      18.998  37.209   8.345  1.00  0.00     0.145 C 
ATOM     13  C   UNL     1      20.136  36.664   9.208  1.00  0.00     0.142 C 
BRANCH   9  14
ATOM     14  O   UNL     1      19.952  34.231   7.692  1.00  0.00    -0.357 OA
ATOM     15  H   UNL     1      20.242  33.476   8.294  1.00  0.00     0.214 HD
ENDBRANCH   9  14
BRANCH   9  16
ATOM     16  C   UNL     1      17.670  33.792   7.707  1.00  0.00     0.364 C 
ATOM     17  O   UNL     1      16.450  34.085   7.809  1.00  0.00    -0.246 OA
BRANCH  16  18
ATOM     18  O   UNL     1      17.968  32.547   7.149  1.00  0.00    -0.477 OA
ATOM     19  H   UNL     1      17.545  31.705   7.520  1.00  0.00     0.296 HD
ENDBRANCH  16  18
ENDBRANCH   9  16
BRANCH  12  20
ATOM     20  O   UNL     1      19.437  38.265   7.566  1.00  0.00    -0.391 OA
ATOM     21  H   UNL     1      18.726  38.642   6.975  1.00  0.00     0.211 HD
ENDBRANCH  12  20
BRANCH  13  22
ATOM     22  N   UNL     1      20.659  37.741  10.032  1.00  0.00    -0.348 N 
ATOM     23  C   UNL     1      21.841  38.461   9.689  1.00  0.00     0.217 C 
ATOM     24  H   UNL     1      20.143  37.998  10.919  1.00  0.00     0.163 HD
ATOM     25  C   UNL     1      22.283  39.543  10.606  1.00  0.00     0.114 C 
ATOM     26  O   UNL     1      22.434  38.146   8.643  1.00  0.00    -0.275 OA
ENDBRANCH  13  22
ENDBRANCH   7   8
BRANCH   7  27
ATOM     27  O   UNL     1      21.877  35.226  10.229  1.00  0.00    -0.388 OA
ATOM     28  H   UNL     1      22.440  35.821  10.778  1.00  0.00     0.211 HD
ENDBRANCH   7  27
ENDBRANCH   6   7
BRANCH   6  29
ATOM     29  O   UNL     1      21.744  36.496  12.336  1.00  0.00    -0.388 OA
ATOM     30  H   UNL     1      22.253  36.550  11.468  1.00  0.00     0.211 HD
ENDBRANCH   6  29
ENDBRANCH   5   6
ENDBRANCH   1   5
BRANCH   2  31
ATOM     31  O   UNL     1      24.633  32.892  12.887  1.00  0.00    -0.443 OA
BRANCH  31  32
ATOM     32  C   UNL     1      25.471  34.022  13.013  1.00  0.00     0.294 C 
BRANCH  32  33
ATOM     33  C   UNL     1      25.420  34.835  11.772  1.00  0.00     0.121 A 
ATOM     34  C   UNL     1      26.340  34.771  10.744  1.00  0.00     0.144 A 
ATOM     35  N   UNL     1      24.517  35.754  11.409  1.00  0.00    -0.131 NA
ATOM     36  N   UNL     1      25.924  35.661   9.829  1.00  0.00    -0.220 N 
ATOM     37  N   UNL     1      24.814  36.265  10.224  1.00  0.00    -0.062 NA
BRANCH  36  38
ATOM     38  C   UNL     1      26.576  35.935   8.591  1.00  0.00     0.068 A 
ATOM     39  C   UNL     1      26.570  37.183   8.006  1.00  0.00     0.050 A 
ATOM     40  C   UNL     1      27.252  34.931   7.919  1.00  0.00     0.028 A 
ATOM     41  C   UNL     1      27.209  37.443   6.795  1.00  0.00     0.084 A 
ATOM     42  C   UNL     1      27.888  35.162   6.729  1.00  0.00     0.004 A 
ATOM     43  C   UNL     1      27.864  36.417   6.170  1.00  0.00     0.022 A 
BRANCH  41  44
ATOM     44  S   UNL     1      27.197  39.015   6.064  1.00  0.00     0.238 S 
ATOM     45  O   UNL     1      27.645  38.873   4.631  1.00  0.00    -0.207 OA
ATOM     46  O   UNL     1      28.223  39.890   6.746  1.00  0.00    -0.207 OA
BRANCH  44  47
ATOM     47  N   UNL     1      25.634  39.723   6.098  1.00  0.00    -0.225 NA
ATOM     48  H   UNL     1      25.602  40.533   5.454  1.00  0.00     0.137 HD
ATOM     49  H   UNL     1      25.338  39.990   7.060  1.00  0.00     0.137 HD
ENDBRANCH  44  47
ENDBRANCH  41  44
ENDBRANCH  36  38
ENDBRANCH  32  33
ENDBRANCH  31  32
ENDBRANCH   2  31
TORSDOF 17
BEGIN_RES LYS A 131
REMARK  4 active torsions:
REMARK  status: ('A' for Active; 'I' for Inactive)
REMARK    1  A    between atoms: CA   and  CB  
REMARK    2  A    between atoms: CB   and  CG  
REMARK    3  A    between atoms: CG   and  CD  
REMARK    4  A    between atoms: CD   and  CE  
ROOT
ATOM      1  CA  LYS A 131      29.867  25.555  16.977  1.00 20.52     0.186 C 
ENDROOT
BRANCH   1   2
ATOM      2  CB  LYS A 131      28.345  25.722  17.026  1.00 20.94     0.034 C 
BRANCH   2   3
ATOM      3  CG  LYS A 131      27.603  24.396  16.960  1.00 22.96     0.005 C 
BRANCH   3   4
ATOM      4  CD  LYS A 131      26.551  24.282  18.028  1.00 24.33     0.041 C 
BRANCH   4   5
ATOM      5  CE  LYS A 131      25.232  23.846  17.399  1.00 26.91     0.338 C 
ATOM      6  NZ  LYS A 131      25.075  22.375  17.490  1.00 27.40     0.618 N 
ENDBRANCH   4   5
ENDBRANCH   3   4
ENDBRANCH   2   3
ENDBRANCH   1   2
END_RES LYS A 131
BEGIN_RES LYS A 135
REMARK  4 active torsions:
REMARK  status: ('A' for Active; 'I' for Inactive)
REMARK    5  A    between atoms: CA   and  CB  
REMARK    6  A    between atoms: CB   and  CG  
REMARK    7  A    between atoms: CG   and  CD  
REMARK    8  A    between atoms: CD   and  CE  
ROOT
ATOM      7  CA  LYS A 135      33.193  34.663   9.290  1.00 25.02     0.186 C 
ENDROOT
BRANCH   7   8
ATOM      8  CB  LYS A 135      32.060  35.360  10.034  1.00 26.63     0.034 C 
BRANCH   8   9
ATOM      9  CG  LYS A 135      30.758  35.371   9.275  1.00 29.45     0.005 C 
BRANCH   9  10
ATOM     10  CD  LYS A 135      30.116  36.749   9.332  1.00 32.00     0.041 C 
BRANCH  10  11
ATOM     11  CE  LYS A 135      31.126  37.789   9.778  1.00 34.25     0.338 C 
ATOM     12  NZ  LYS A 135      31.407  38.765   8.689  1.00 35.99     0.618 N 
ENDBRANCH  10  11
ENDBRANCH   9  10
ENDBRANCH   8   9
ENDBRANCH   7   8
END_RES LYS A 135
