REMARK VINA RESULT:    -5.386      4.367      8.781
REMARK INTER + INTRA:         -13.717
REMARK INTER:                  -8.880
REMARK INTRA:                  -4.837
REMARK UNBOUND:                -4.396
REMARK SMILES CC(=O)N[C@@H]1[C@@H](O)C[C@](O)(C(=O)O)O[C@H]1C(O)[C@H](O)CNC(=O)OCc1cn(-c2ccccc2Br)nn1
REMARK SMILES IDX 20 1 18 2 16 3 15 4 9 5 8 6 14 7 6 8 5 9 10 10 11 12 12 13
REMARK SMILES IDX 13 14 7 16 4 18 2 19 1 21 3 22 17 23 19 25 21 27 22 28 23 30
REMARK SMILES IDX 24 31 25 32 26 33 27 34 37 35 28 36 36 37 29 38 30 39 34 40
REMARK SMILES IDX 31 41 33 42 35 43 32 44
REMARK H PARENT 10 11 13 15 7 17 4 20 17 24 19 26 21 29
REMARK Flexibility Score: inf
ROOT
ATOM      1  C   UNL     1      32.331  34.288  14.568  1.00  0.00     0.154 C 
ENDROOT
BRANCH   1   2
ATOM      2  C   UNL     1      31.997  35.205  13.421  1.00  0.00     0.165 C 
BRANCH   2   3
ATOM      3  C   UNL     1      30.713  34.734  12.811  1.00  0.00     0.176 C 
BRANCH   3   4
ATOM      4  C   UNL     1      29.565  35.714  12.860  1.00  0.00     0.178 C 
ATOM      5  C   UNL     1      28.870  35.969  15.085  1.00  0.00     0.269 C 
ATOM      6  C   UNL     1      27.460  36.349  14.631  1.00  0.00     0.112 C 
ATOM      7  O   UNL     1      29.691  36.362  14.082  1.00  0.00    -0.332 OA
ATOM      8  C   UNL     1      27.129  35.398  13.517  1.00  0.00     0.145 C 
ATOM      9  C   UNL     1      28.242  35.176  12.527  1.00  0.00     0.142 C 
BRANCH   5  10
ATOM     10  O   UNL     1      28.845  34.632  15.389  1.00  0.00    -0.357 OA
ATOM     11  H   UNL     1      28.738  34.548  16.369  1.00  0.00     0.214 HD
ENDBRANCH   5  10
BRANCH   5  12
ATOM     12  C   UNL     1      29.200  36.728  16.323  1.00  0.00     0.364 C 
ATOM     13  O   UNL     1      30.049  37.652  16.263  1.00  0.00    -0.246 OA
BRANCH  12  14
ATOM     14  O   UNL     1      28.592  36.436  17.539  1.00  0.00    -0.477 OA
ATOM     15  H   UNL     1      28.207  37.149  18.154  1.00  0.00     0.296 HD
ENDBRANCH  12  14
ENDBRANCH   5  12
BRANCH   8  16
ATOM     16  O   UNL     1      26.793  34.186  14.120  1.00  0.00    -0.391 OA
ATOM     17  H   UNL     1      25.846  34.145  14.344  1.00  0.00     0.211 HD
ENDBRANCH   8  16
BRANCH   9  18
ATOM     18  N   UNL     1      27.823  35.750  11.230  1.00  0.00    -0.348 N 
ATOM     19  C   UNL     1      27.818  34.974  10.050  1.00  0.00     0.217 C 
ATOM     20  H   UNL     1      27.517  36.764  11.170  1.00  0.00     0.163 HD
ATOM     21  C   UNL     1      27.403  35.554   8.727  1.00  0.00     0.114 C 
ATOM     22  O   UNL     1      28.174  33.772  10.130  1.00  0.00    -0.275 OA
ENDBRANCH   9  18
ENDBRANCH   3   4
BRANCH   3  23
ATOM     23  O   UNL     1      30.939  34.159  11.586  1.00  0.00    -0.388 OA
ATOM     24  H   UNL     1      31.133  33.176  11.648  1.00  0.00     0.211 HD
ENDBRANCH   3  23
ENDBRANCH   2   3
BRANCH   2  25
ATOM     25  O   UNL     1      33.011  35.199  12.498  1.00  0.00    -0.388 OA
ATOM     26  H   UNL     1      32.680  35.158  11.559  1.00  0.00     0.211 HD
ENDBRANCH   2  25
ENDBRANCH   1   2
BRANCH   1  27
ATOM     27  N   UNL     1      31.584  33.080  14.664  1.00  0.00    -0.319 N 
ATOM     28  C   UNL     1      31.038  32.575  15.864  1.00  0.00     0.407 C 
ATOM     29  H   UNL     1      31.405  32.487  13.787  1.00  0.00     0.167 HD
ATOM     30  O   UNL     1      31.169  33.140  16.974  1.00  0.00    -0.225 OA
BRANCH  28  31
ATOM     31  O   UNL     1      30.309  31.377  15.814  1.00  0.00    -0.443 OA
BRANCH  31  32
ATOM     32  C   UNL     1      29.464  31.086  16.904  1.00  0.00     0.294 C 
BRANCH  32  33
ATOM     33  C   UNL     1      28.067  31.349  16.482  1.00  0.00     0.121 A 
ATOM     34  C   UNL     1      27.274  30.447  15.761  1.00  0.00     0.144 A 
ATOM     35  N   UNL     1      27.270  32.410  16.654  1.00  0.00    -0.131 NA
ATOM     36  N   UNL     1      26.063  30.984  15.532  1.00  0.00    -0.219 N 
ATOM     37  N   UNL     1      26.089  32.183  16.088  1.00  0.00    -0.062 NA
BRANCH  36  38
ATOM     38  C   UNL     1      24.985  30.366  14.829  1.00  0.00     0.081 A 
ATOM     39  C   UNL     1      24.749  30.620  13.496  1.00  0.00     0.029 A 
ATOM     40  C   UNL     1      24.134  29.486  15.463  1.00  0.00     0.043 A 
ATOM     41  C   UNL     1      23.690  30.007  12.824  1.00  0.00     0.002 A 
ATOM     42  C   UNL     1      23.081  28.875  14.799  1.00  0.00     0.018 A 
ATOM     43  Br  UNL     1      24.453  29.126  17.321  1.00  0.00    -0.048 Br
ATOM     44  C   UNL     1      22.843  29.127  13.465  1.00  0.00     0.001 A 
ENDBRANCH  36  38
ENDBRANCH  32  33
ENDBRANCH  31  32
ENDBRANCH  28  31
ENDBRANCH   1  27
TORSDOF 15
BEGIN_RES LYS A 131
REMARK  4 active torsions:
REMARK  status: ('A' for Active; 'I' for Inactive)
REMARK    1  A    between atoms: CA   and  CB  
REMARK    2  A    between atoms: CB   and  CG  
REMARK    3  A    between atoms: CG   and  CD  
REMARK    4  A    between atoms: CD   and  CE  
ROOT
ATOM      1  CA  LYS A 131      29.867  25.555  16.977  1.00 20.52     0.186 C 
ENDROOT
BRANCH   1   2
ATOM      2  CB  LYS A 131      28.345  25.722  17.026  1.00 20.94     0.034 C 
BRANCH   2   3
ATOM      3  CG  LYS A 131      27.602  24.400  16.910  1.00 22.96     0.005 C 
BRANCH   3   4
ATOM      4  CD  LYS A 131      26.523  24.264  17.949  1.00 24.33     0.041 C 
BRANCH   4   5
ATOM      5  CE  LYS A 131      25.158  24.268  17.269  1.00 26.91     0.338 C 
ATOM      6  NZ  LYS A 131      24.582  22.902  17.253  1.00 27.40     0.618 N 
ENDBRANCH   4   5
ENDBRANCH   3   4
ENDBRANCH   2   3
ENDBRANCH   1   2
END_RES LYS A 131
BEGIN_RES LYS A 135
REMARK  4 active torsions:
REMARK  status: ('A' for Active; 'I' for Inactive)
REMARK    5  A    between atoms: CA   and  CB  
REMARK    6  A    between atoms: CB   and  CG  
REMARK    7  A    between atoms: CG   and  CD  
REMARK    8  A    between atoms: CD   and  CE  
ROOT
ATOM      7  CA  LYS A 135      33.193  34.663   9.290  1.00 25.02     0.186 C 
ENDROOT
BRANCH   7   8
ATOM      8  CB  LYS A 135      32.060  35.360  10.034  1.00 26.63     0.034 C 
BRANCH   8   9
ATOM      9  CG  LYS A 135      31.079  36.054   9.125  1.00 29.45     0.005 C 
BRANCH   9  10
ATOM     10  CD  LYS A 135      30.797  37.465   9.617  1.00 32.00     0.041 C 
BRANCH  10  11
ATOM     11  CE  LYS A 135      29.963  38.226   8.604  1.00 34.25     0.338 C 
ATOM     12  NZ  LYS A 135      30.810  39.143   7.792  1.00 35.99     0.618 N 
ENDBRANCH  10  11
ENDBRANCH   9  10
ENDBRANCH   8   9
ENDBRANCH   7   8
END_RES LYS A 135
