REMARK VINA RESULT:    -5.428      6.171     11.521
REMARK INTER + INTRA:         -14.896
REMARK INTER:                  -9.997
REMARK INTRA:                  -4.899
REMARK UNBOUND:                -5.502
REMARK SMILES CC(=O)N[C@@H]1[C@@H](O)C[C@](O)(C(=O)O)O[C@H]1C(O)[C@H](O)CNC(=O)OCc1cn([C@@H]2C[C@H]3CC[C@@H](C2)N3C)nn1
REMARK SMILES IDX 20 1 18 2 16 3 15 4 9 5 8 6 14 7 6 8 5 9 10 10 11 12 12 13
REMARK SMILES IDX 13 14 7 16 4 18 2 19 1 21 3 22 17 23 19 25 21 27 22 28 23 30
REMARK SMILES IDX 24 31 25 32 26 33 27 34 39 35 28 36 38 37 29 38 35 39 30 40
REMARK SMILES IDX 34 41 31 42 36 43 33 44 32 45 37 46
REMARK H PARENT 10 11 13 15 7 17 4 20 17 24 19 26 21 29
REMARK Flexibility Score: inf
ROOT
ATOM      1  C   UNL     1      27.605  39.102  10.909  1.00  0.00     0.154 C 
ENDROOT
BRANCH   1   2
ATOM      2  C   UNL     1      29.046  38.709  10.774  1.00  0.00     0.165 C 
BRANCH   2   3
ATOM      3  C   UNL     1      29.464  38.682   9.309  1.00  0.00     0.176 C 
BRANCH   3   4
ATOM      4  C   UNL     1      28.703  37.544   8.631  1.00  0.00     0.178 C 
ATOM      5  C   UNL     1      29.233  35.435   7.769  1.00  0.00     0.269 C 
ATOM      6  C   UNL     1      28.769  35.763   6.385  1.00  0.00     0.112 C 
ATOM      7  O   UNL     1      29.528  36.493   8.564  1.00  0.00    -0.332 OA
ATOM      8  C   UNL     1      28.440  37.199   6.154  1.00  0.00     0.145 C 
ATOM      9  C   UNL     1      28.032  37.979   7.359  1.00  0.00     0.142 C 
BRANCH   5  10
ATOM     10  O   UNL     1      30.409  34.686   7.660  1.00  0.00    -0.357 OA
ATOM     11  H   UNL     1      30.938  34.924   6.861  1.00  0.00     0.214 HD
ENDBRANCH   5  10
BRANCH   5  12
ATOM     12  C   UNL     1      28.273  34.577   8.495  1.00  0.00     0.364 C 
ATOM     13  O   UNL     1      27.079  34.534   8.128  1.00  0.00    -0.246 OA
BRANCH  12  14
ATOM     14  O   UNL     1      28.610  33.791   9.592  1.00  0.00    -0.477 OA
ATOM     15  H   UNL     1      28.414  32.778   9.582  1.00  0.00     0.296 HD
ENDBRANCH  12  14
ENDBRANCH   5  12
BRANCH   8  16
ATOM     16  O   UNL     1      29.552  37.783   5.532  1.00  0.00    -0.391 OA
ATOM     17  H   UNL     1      29.666  38.712   5.844  1.00  0.00     0.211 HD
ENDBRANCH   8  16
BRANCH   9  18
ATOM     18  N   UNL     1      26.613  38.132   7.529  1.00  0.00    -0.348 N 
ATOM     19  C   UNL     1      25.895  39.301   7.186  1.00  0.00     0.217 C 
ATOM     20  H   UNL     1      26.047  37.339   7.934  1.00  0.00     0.163 HD
ATOM     21  C   UNL     1      24.437  39.480   7.354  1.00  0.00     0.114 C 
ATOM     22  O   UNL     1      26.584  40.232   6.705  1.00  0.00    -0.275 OA
ENDBRANCH   9  18
ENDBRANCH   3   4
BRANCH   3  23
ATOM     23  O   UNL     1      30.831  38.526   9.156  1.00  0.00    -0.388 OA
ATOM     24  H   UNL     1      31.266  39.379   9.414  1.00  0.00     0.211 HD
ENDBRANCH   3  23
ENDBRANCH   2   3
BRANCH   2  25
ATOM     25  O   UNL     1      29.323  37.484  11.313  1.00  0.00    -0.388 OA
ATOM     26  H   UNL     1      28.573  37.191  11.909  1.00  0.00     0.211 HD
ENDBRANCH   2  25
ENDBRANCH   1   2
BRANCH   1  27
ATOM     27  N   UNL     1      26.855  38.201  11.715  1.00  0.00    -0.319 N 
ATOM     28  C   UNL     1      25.815  37.374  11.257  1.00  0.00     0.407 C 
ATOM     29  H   UNL     1      27.085  38.133  12.757  1.00  0.00     0.167 HD
ATOM     30  O   UNL     1      25.439  37.360  10.070  1.00  0.00    -0.225 OA
BRANCH  28  31
ATOM     31  O   UNL     1      25.164  36.521  12.169  1.00  0.00    -0.443 OA
BRANCH  31  32
ATOM     32  C   UNL     1      25.469  35.142  12.135  1.00  0.00     0.294 C 
BRANCH  32  33
ATOM     33  C   UNL     1      26.812  34.896  12.661  1.00  0.00     0.120 A 
ATOM     34  C   UNL     1      27.106  34.415  13.931  1.00  0.00     0.138 A 
ATOM     35  N   UNL     1      27.975  35.081  12.038  1.00  0.00    -0.132 NA
ATOM     36  N   UNL     1      28.438  34.329  14.031  1.00  0.00    -0.249 N 
ATOM     37  N   UNL     1      28.931  34.734  12.881  1.00  0.00    -0.067 NA
BRANCH  36  38
ATOM     38  C   UNL     1      29.215  33.881  15.159  1.00  0.00     0.112 C 
ATOM     39  C   UNL     1      28.277  33.217  16.167  1.00  0.00     0.046 C 
ATOM     40  C   UNL     1      30.167  32.822  14.649  1.00  0.00     0.046 C 
ATOM     41  C   UNL     1      29.110  32.533  17.217  1.00  0.00     0.058 C 
ATOM     42  C   UNL     1      30.776  32.066  15.784  1.00  0.00     0.058 C 
ATOM     43  N   UNL     1      29.825  31.416  16.630  1.00  0.00    -0.300 NA
ATOM     44  C   UNL     1      30.251  33.436  17.648  1.00  0.00     0.021 C 
ATOM     45  C   UNL     1      31.389  33.103  16.733  1.00  0.00     0.021 C 
ATOM     46  C   UNL     1      28.963  30.497  15.944  1.00  0.00     0.105 C 
ENDBRANCH  36  38
ENDBRANCH  32  33
ENDBRANCH  31  32
ENDBRANCH  28  31
ENDBRANCH   1  27
TORSDOF 15
BEGIN_RES LYS A 131
REMARK  4 active torsions:
REMARK  status: ('A' for Active; 'I' for Inactive)
REMARK    1  A    between atoms: CA   and  CB  
REMARK    2  A    between atoms: CB   and  CG  
REMARK    3  A    between atoms: CG   and  CD  
REMARK    4  A    between atoms: CD   and  CE  
ROOT
ATOM      1  CA  LYS A 131      29.867  25.555  16.977  1.00 20.52     0.186 C 
ENDROOT
BRANCH   1   2
ATOM      2  CB  LYS A 131      28.345  25.722  17.026  1.00 20.94     0.034 C 
BRANCH   2   3
ATOM      3  CG  LYS A 131      27.602  24.399  16.925  1.00 22.96     0.005 C 
BRANCH   3   4
ATOM      4  CD  LYS A 131      26.516  24.279  17.958  1.00 24.33     0.041 C 
BRANCH   4   5
ATOM      5  CE  LYS A 131      26.467  25.552  18.796  1.00 26.91     0.338 C 
ATOM      6  NZ  LYS A 131      25.329  25.507  19.744  1.00 27.40     0.618 N 
ENDBRANCH   4   5
ENDBRANCH   3   4
ENDBRANCH   2   3
ENDBRANCH   1   2
END_RES LYS A 131
BEGIN_RES LYS A 135
REMARK  4 active torsions:
REMARK  status: ('A' for Active; 'I' for Inactive)
REMARK    5  A    between atoms: CA   and  CB  
REMARK    6  A    between atoms: CB   and  CG  
REMARK    7  A    between atoms: CG   and  CD  
REMARK    8  A    between atoms: CD   and  CE  
ROOT
ATOM      7  CA  LYS A 135      33.193  34.663   9.290  1.00 25.02     0.186 C 
ENDROOT
BRANCH   7   8
ATOM      8  CB  LYS A 135      32.060  35.360  10.034  1.00 26.63     0.034 C 
BRANCH   8   9
ATOM      9  CG  LYS A 135      32.040  35.067  11.512  1.00 29.45     0.005 C 
BRANCH   9  10
ATOM     10  CD  LYS A 135      32.457  36.294  12.308  1.00 32.00     0.041 C 
BRANCH  10  11
ATOM     11  CE  LYS A 135      32.289  36.046  13.795  1.00 34.25     0.338 C 
ATOM     12  NZ  LYS A 135      33.163  34.932  14.255  1.00 35.99     0.618 N 
ENDBRANCH  10  11
ENDBRANCH   9  10
ENDBRANCH   8   9
ENDBRANCH   7   8
END_RES LYS A 135
