REMARK VINA RESULT:    -5.443      3.454      8.234
REMARK INTER + INTRA:         -13.815
REMARK INTER:                  -9.420
REMARK INTRA:                  -4.396
REMARK UNBOUND:                -4.396
REMARK SMILES CC(=O)N[C@@H]1[C@@H](O)C[C@](O)(C(=O)O)O[C@H]1C(O)[C@H](O)CNC(=O)OCc1cn(-c2ccccc2Br)nn1
REMARK SMILES IDX 20 1 18 2 16 3 15 4 9 5 8 6 14 7 6 8 5 9 10 10 11 12 12 13
REMARK SMILES IDX 13 14 7 16 4 18 2 19 1 21 3 22 17 23 19 25 21 27 22 28 23 30
REMARK SMILES IDX 24 31 25 32 26 33 27 34 37 35 28 36 36 37 29 38 30 39 34 40
REMARK SMILES IDX 31 41 33 42 35 43 32 44
REMARK H PARENT 10 11 13 15 7 17 4 20 17 24 19 26 21 29
REMARK Flexibility Score: inf
ROOT
ATOM      1  C   UNL     1      30.334  31.315  17.024  1.00  0.00     0.154 C 
ENDROOT
BRANCH   1   2
ATOM      2  C   UNL     1      30.404  32.818  16.952  1.00  0.00     0.165 C 
BRANCH   2   3
ATOM      3  C   UNL     1      30.624  33.204  15.522  1.00  0.00     0.176 C 
BRANCH   3   4
ATOM      4  C   UNL     1      30.962  34.655  15.279  1.00  0.00     0.178 C 
ATOM      5  C   UNL     1      30.318  35.239  13.101  1.00  0.00     0.269 C 
ATOM      6  C   UNL     1      31.378  36.340  13.052  1.00  0.00     0.112 C 
ATOM      7  O   UNL     1      29.983  35.117  14.408  1.00  0.00    -0.332 OA
ATOM      8  C   UNL     1      32.607  35.739  13.672  1.00  0.00     0.145 C 
ATOM      9  C   UNL     1      32.356  34.944  14.926  1.00  0.00     0.142 C 
BRANCH   5  10
ATOM     10  O   UNL     1      30.857  34.138  12.485  1.00  0.00    -0.357 OA
ATOM     11  H   UNL     1      31.684  33.896  12.970  1.00  0.00     0.214 HD
ENDBRANCH   5  10
BRANCH   5  12
ATOM     12  C   UNL     1      29.127  35.679  12.323  1.00  0.00     0.364 C 
ATOM     13  O   UNL     1      29.082  36.858  11.895  1.00  0.00    -0.246 OA
BRANCH  12  14
ATOM     14  O   UNL     1      28.070  34.815  12.060  1.00  0.00    -0.477 OA
ATOM     15  H   UNL     1      27.944  33.927  12.540  1.00  0.00     0.296 HD
ENDBRANCH  12  14
ENDBRANCH   5  12
BRANCH   8  16
ATOM     16  O   UNL     1      33.175  34.913  12.701  1.00  0.00    -0.391 OA
ATOM     17  H   UNL     1      32.725  34.051  12.655  1.00  0.00     0.211 HD
ENDBRANCH   8  16
BRANCH   9  18
ATOM     18  N   UNL     1      32.980  35.662  16.057  1.00  0.00    -0.348 N 
ATOM     19  C   UNL     1      34.384  35.753  16.186  1.00  0.00     0.217 C 
ATOM     20  H   UNL     1      32.374  36.126  16.794  1.00  0.00     0.163 HD
ATOM     21  C   UNL     1      35.025  36.473  17.338  1.00  0.00     0.114 C 
ATOM     22  O   UNL     1      35.096  35.210  15.305  1.00  0.00    -0.275 OA
ENDBRANCH   9  18
ENDBRANCH   3   4
BRANCH   3  23
ATOM     23  O   UNL     1      31.442  32.300  14.895  1.00  0.00    -0.388 OA
ATOM     24  H   UNL     1      32.410  32.570  14.920  1.00  0.00     0.211 HD
ENDBRANCH   3  23
ENDBRANCH   2   3
BRANCH   2  25
ATOM     25  O   UNL     1      31.418  33.284  17.748  1.00  0.00    -0.388 OA
ATOM     26  H   UNL     1      32.004  32.556  18.095  1.00  0.00     0.211 HD
ENDBRANCH   2  25
ENDBRANCH   1   2
BRANCH   1  27
ATOM     27  N   UNL     1      29.070  30.746  17.347  1.00  0.00    -0.319 N 
ATOM     28  C   UNL     1      28.300  29.960  16.462  1.00  0.00     0.407 C 
ATOM     29  H   UNL     1      28.642  30.903  18.320  1.00  0.00     0.167 HD
ATOM     30  O   UNL     1      28.652  29.696  15.289  1.00  0.00    -0.225 OA
BRANCH  28  31
ATOM     31  O   UNL     1      27.075  29.448  16.915  1.00  0.00    -0.443 OA
BRANCH  31  32
ATOM     32  C   UNL     1      27.100  28.207  17.584  1.00  0.00     0.294 C 
BRANCH  32  33
ATOM     33  C   UNL     1      27.489  28.455  18.994  1.00  0.00     0.121 A 
ATOM     34  C   UNL     1      28.021  27.483  19.851  1.00  0.00     0.144 A 
ATOM     35  N   UNL     1      27.438  29.558  19.750  1.00  0.00    -0.131 NA
ATOM     36  N   UNL     1      28.263  28.022  21.059  1.00  0.00    -0.219 N 
ATOM     37  N   UNL     1      27.897  29.289  20.968  1.00  0.00    -0.062 NA
BRANCH  36  38
ATOM     38  C   UNL     1      28.805  27.345  22.192  1.00  0.00     0.081 A 
ATOM     39  C   UNL     1      27.999  26.830  23.183  1.00  0.00     0.029 A 
ATOM     40  C   UNL     1      30.166  27.178  22.338  1.00  0.00     0.043 A 
ATOM     41  C   UNL     1      28.546  26.170  24.285  1.00  0.00     0.002 A 
ATOM     42  C   UNL     1      30.713  26.523  23.430  1.00  0.00     0.018 A 
ATOM     43  Br  UNL     1      31.299  27.891  20.963  1.00  0.00    -0.048 Br
ATOM     44  C   UNL     1      29.908  26.006  24.423  1.00  0.00     0.001 A 
ENDBRANCH  36  38
ENDBRANCH  32  33
ENDBRANCH  31  32
ENDBRANCH  28  31
ENDBRANCH   1  27
TORSDOF 15
BEGIN_RES LYS A 131
REMARK  4 active torsions:
REMARK  status: ('A' for Active; 'I' for Inactive)
REMARK    1  A    between atoms: CA   and  CB  
REMARK    2  A    between atoms: CB   and  CG  
REMARK    3  A    between atoms: CG   and  CD  
REMARK    4  A    between atoms: CD   and  CE  
ROOT
ATOM      1  CA  LYS A 131      29.867  25.555  16.977  1.00 20.52     0.186 C 
ENDROOT
BRANCH   1   2
ATOM      2  CB  LYS A 131      28.345  25.722  17.026  1.00 20.94     0.034 C 
BRANCH   2   3
ATOM      3  CG  LYS A 131      27.601  24.403  16.883  1.00 22.96     0.005 C 
BRANCH   3   4
ATOM      4  CD  LYS A 131      26.143  24.536  17.224  1.00 24.33     0.041 C 
BRANCH   4   5
ATOM      5  CE  LYS A 131      25.970  24.509  18.740  1.00 26.91     0.338 C 
ATOM      6  NZ  LYS A 131      25.496  23.178  19.185  1.00 27.40     0.618 N 
ENDBRANCH   4   5
ENDBRANCH   3   4
ENDBRANCH   2   3
ENDBRANCH   1   2
END_RES LYS A 131
BEGIN_RES LYS A 135
REMARK  4 active torsions:
REMARK  status: ('A' for Active; 'I' for Inactive)
REMARK    5  A    between atoms: CA   and  CB  
REMARK    6  A    between atoms: CB   and  CG  
REMARK    7  A    between atoms: CG   and  CD  
REMARK    8  A    between atoms: CD   and  CE  
ROOT
ATOM      7  CA  LYS A 135      33.193  34.663   9.290  1.00 25.02     0.186 C 
ENDROOT
BRANCH   7   8
ATOM      8  CB  LYS A 135      32.060  35.360  10.034  1.00 26.63     0.034 C 
BRANCH   8   9
ATOM      9  CG  LYS A 135      30.810  35.527   9.209  1.00 29.45     0.005 C 
BRANCH   9  10
ATOM     10  CD  LYS A 135      30.129  34.185   8.988  1.00 32.00     0.041 C 
BRANCH  10  11
ATOM     11  CE  LYS A 135      28.694  34.383   8.539  1.00 34.25     0.338 C 
ATOM     12  NZ  LYS A 135      28.623  35.280   7.352  1.00 35.99     0.618 N 
ENDBRANCH  10  11
ENDBRANCH   9  10
ENDBRANCH   8   9
ENDBRANCH   7   8
END_RES LYS A 135
