REMARK VINA RESULT:    -6.380      4.646      8.261
REMARK INTER + INTRA:         -15.619
REMARK INTER:                  -9.457
REMARK INTRA:                  -6.162
REMARK UNBOUND:                -4.578
REMARK SMILES CC(=O)N[C@@H]1[C@@H](O)C[C@](O)(C(=O)O)O[C@H]1C(O)[C@H](O)CNC(=O)OCc1cn(C2c3ccccc3-c3ccccc32)nn1
REMARK SMILES IDX 20 1 18 2 16 3 15 4 9 5 8 6 14 7 6 8 5 9 10 10 11 12 12 13
REMARK SMILES IDX 13 14 7 16 4 18 2 19 1 21 3 22 17 23 19 25 21 27 22 28 23 30
REMARK SMILES IDX 24 31 25 32 26 33 27 34 43 35 28 36 42 37 29 38 30 39 41 40
REMARK SMILES IDX 31 41 35 42 36 43 40 44 32 45 34 46 37 47 39 48 33 49 38 50
REMARK H PARENT 10 11 13 15 7 17 4 20 17 24 19 26 21 29
REMARK Flexibility Score: inf
ROOT
ATOM      1  C   UNL     1      23.158  40.768   7.152  1.00  0.00     0.154 C 
ENDROOT
BRANCH   1   2
ATOM      2  C   UNL     1      22.834  39.617   8.031  1.00  0.00     0.165 C 
BRANCH   2   3
ATOM      3  C   UNL     1      23.567  38.364   7.672  1.00  0.00     0.176 C 
BRANCH   3   4
ATOM      4  C   UNL     1      24.265  37.662   8.803  1.00  0.00     0.178 C 
ATOM      5  C   UNL     1      22.735  36.655  10.262  1.00  0.00     0.269 C 
ATOM      6  C   UNL     1      23.673  36.633  11.451  1.00  0.00     0.112 C 
ATOM      7  O   UNL     1      23.463  36.564   9.119  1.00  0.00    -0.332 OA
ATOM      8  C   UNL     1      24.746  37.638  11.242  1.00  0.00     0.145 C 
ATOM      9  C   UNL     1      24.519  38.526  10.008  1.00  0.00     0.142 C 
BRANCH   5  10
ATOM     10  O   UNL     1      21.920  37.746  10.406  1.00  0.00    -0.357 OA
ATOM     11  H   UNL     1      22.388  38.589  10.215  1.00  0.00     0.214 HD
ENDBRANCH   5  10
BRANCH   5  12
ATOM     12  C   UNL     1      21.910  35.412  10.367  1.00  0.00     0.364 C 
ATOM     13  O   UNL     1      22.054  34.662  11.360  1.00  0.00    -0.246 OA
BRANCH  12  14
ATOM     14  O   UNL     1      20.982  35.047   9.402  1.00  0.00    -0.477 OA
ATOM     15  H   UNL     1      19.974  35.133   9.589  1.00  0.00     0.296 HD
ENDBRANCH  12  14
ENDBRANCH   5  12
BRANCH   8  16
ATOM     16  O   UNL     1      24.943  38.485  12.321  1.00  0.00    -0.391 OA
ATOM     17  H   UNL     1      24.663  39.412  12.149  1.00  0.00     0.211 HD
ENDBRANCH   8  16
BRANCH   9  18
ATOM     18  N   UNL     1      25.773  39.229   9.851  1.00  0.00    -0.348 N 
ATOM     19  C   UNL     1      25.934  40.634   9.959  1.00  0.00     0.217 C 
ATOM     20  H   UNL     1      26.622  38.662   9.645  1.00  0.00     0.163 HD
ATOM     21  C   UNL     1      27.270  41.289   9.782  1.00  0.00     0.114 C 
ATOM     22  O   UNL     1      24.910  41.319  10.211  1.00  0.00    -0.275 OA
ENDBRANCH   9  18
ENDBRANCH   3   4
BRANCH   3  23
ATOM     23  O   UNL     1      22.834  37.462   6.910  1.00  0.00    -0.388 OA
ATOM     24  H   UNL     1      23.358  36.905   6.312  1.00  0.00     0.211 HD
ENDBRANCH   3  23
ENDBRANCH   2   3
BRANCH   2  25
ATOM     25  O   UNL     1      21.475  39.329   7.940  1.00  0.00    -0.388 OA
ATOM     26  H   UNL     1      21.041  39.237   8.810  1.00  0.00     0.211 HD
ENDBRANCH   2  25
ENDBRANCH   1   2
BRANCH   1  27
ATOM     27  N   UNL     1      24.387  40.693   6.454  1.00  0.00    -0.319 N 
ATOM     28  C   UNL     1      25.383  41.685   6.497  1.00  0.00     0.407 C 
ATOM     29  H   UNL     1      24.593  39.834   5.848  1.00  0.00     0.167 HD
ATOM     30  O   UNL     1      25.265  42.707   7.165  1.00  0.00    -0.225 OA
BRANCH  28  31
ATOM     31  O   UNL     1      26.577  41.548   5.766  1.00  0.00    -0.443 OA
BRANCH  31  32
ATOM     32  C   UNL     1      26.772  40.571   4.790  1.00  0.00     0.294 C 
BRANCH  32  33
ATOM     33  C   UNL     1      27.557  39.404   5.261  1.00  0.00     0.120 A 
ATOM     34  C   UNL     1      27.884  39.031   6.542  1.00  0.00     0.139 A 
ATOM     35  N   UNL     1      28.088  38.496   4.439  1.00  0.00    -0.132 NA
ATOM     36  N   UNL     1      28.599  37.915   6.452  1.00  0.00    -0.240 N 
ATOM     37  N   UNL     1      28.712  37.606   5.176  1.00  0.00    -0.066 NA
BRANCH  36  38
ATOM     38  C   UNL     1      29.171  37.142   7.544  1.00  0.00     0.170 C 
ATOM     39  C   UNL     1      28.190  36.211   8.127  1.00  0.00    -0.011 A 
ATOM     40  C   UNL     1      29.634  37.976   8.642  1.00  0.00    -0.011 A 
ATOM     41  C   UNL     1      27.435  35.192   7.520  1.00  0.00     0.007 A 
ATOM     42  C   UNL     1      28.095  36.488   9.461  1.00  0.00    -0.012 A 
ATOM     43  C   UNL     1      28.996  37.591   9.791  1.00  0.00    -0.012 A 
ATOM     44  C   UNL     1      30.561  39.035   8.721  1.00  0.00     0.007 A 
ATOM     45  C   UNL     1      26.581  34.461   8.308  1.00  0.00     0.000 A 
ATOM     46  C   UNL     1      27.215  35.724  10.228  1.00  0.00     0.009 A 
ATOM     47  C   UNL     1      29.220  38.196  11.031  1.00  0.00     0.009 A 
ATOM     48  C   UNL     1      30.796  39.644   9.926  1.00  0.00     0.000 A 
ATOM     49  C   UNL     1      26.464  34.719   9.659  1.00  0.00     0.001 A 
ATOM     50  C   UNL     1      30.131  39.227  11.067  1.00  0.00     0.001 A 
ENDBRANCH  36  38
ENDBRANCH  32  33
ENDBRANCH  31  32
ENDBRANCH  28  31
ENDBRANCH   1  27
TORSDOF 15
BEGIN_RES LYS A 131
REMARK  4 active torsions:
REMARK  status: ('A' for Active; 'I' for Inactive)
REMARK    1  A    between atoms: CA   and  CB  
REMARK    2  A    between atoms: CB   and  CG  
REMARK    3  A    between atoms: CG   and  CD  
REMARK    4  A    between atoms: CD   and  CE  
ROOT
ATOM      1  CA  LYS A 131      29.867  25.555  16.977  1.00 20.52     0.186 C 
ENDROOT
BRANCH   1   2
ATOM      2  CB  LYS A 131      28.345  25.722  17.026  1.00 20.94     0.034 C 
BRANCH   2   3
ATOM      3  CG  LYS A 131      27.600  24.407  16.856  1.00 22.96     0.005 C 
BRANCH   3   4
ATOM      4  CD  LYS A 131      26.576  24.192  17.935  1.00 24.33     0.041 C 
BRANCH   4   5
ATOM      5  CE  LYS A 131      25.206  23.973  17.300  1.00 26.91     0.338 C 
ATOM      6  NZ  LYS A 131      24.674  22.638  17.662  1.00 27.40     0.618 N 
ENDBRANCH   4   5
ENDBRANCH   3   4
ENDBRANCH   2   3
ENDBRANCH   1   2
END_RES LYS A 131
BEGIN_RES LYS A 135
REMARK  4 active torsions:
REMARK  status: ('A' for Active; 'I' for Inactive)
REMARK    5  A    between atoms: CA   and  CB  
REMARK    6  A    between atoms: CB   and  CG  
REMARK    7  A    between atoms: CG   and  CD  
REMARK    8  A    between atoms: CD   and  CE  
ROOT
ATOM      7  CA  LYS A 135      33.193  34.663   9.290  1.00 25.02     0.186 C 
ENDROOT
BRANCH   7   8
ATOM      8  CB  LYS A 135      32.060  35.360  10.034  1.00 26.63     0.034 C 
BRANCH   8   9
ATOM      9  CG  LYS A 135      30.841  34.495  10.222  1.00 29.45     0.005 C 
BRANCH   9  10
ATOM     10  CD  LYS A 135      30.346  34.569  11.658  1.00 32.00     0.041 C 
BRANCH  10  11
ATOM     11  CE  LYS A 135      31.308  35.372  12.512  1.00 34.25     0.338 C 
ATOM     12  NZ  LYS A 135      31.358  34.846  13.904  1.00 35.99     0.618 N 
ENDBRANCH  10  11
ENDBRANCH   9  10
ENDBRANCH   8   9
ENDBRANCH   7   8
END_RES LYS A 135
