REMARK VINA RESULT:    -5.118      2.817      6.181
REMARK INTER + INTRA:         -16.134
REMARK INTER:                  -9.684
REMARK INTRA:                  -6.450
REMARK UNBOUND:                -6.527
REMARK SMILES CC(=O)N[C@@H]1[C@@H](O)C[C@](O)(C(=O)O)O[C@H]1C(O)[C@H](O)CNC(=O)OCc1cn(-c2ccc(S(=O)(=O)c3ccc(N)cc3)cc2)nn1
REMARK SMILES IDX 21 1 22 2 23 3 20 5 18 6 16 7 15 8 9 9 8 10 14 11 6 12 5 13
REMARK SMILES IDX 10 14 11 16 12 17 13 18 7 20 4 22 2 23 1 25 3 26 17 27 19 29
REMARK SMILES IDX 24 31 25 32 26 33 27 34 46 35 28 36 45 37 29 38 30 39 44 40
REMARK SMILES IDX 31 41 43 42 32 43 33 44 34 45 35 46 36 47 37 48 42 49 38 50
REMARK SMILES IDX 41 51 39 52 40 53
REMARK H PARENT 21 4 10 15 13 19 7 21 4 24 17 28 19 30 40 54 40 55
REMARK Flexibility Score: inf
ROOT
ATOM      1  N   UNL     1      28.842  31.716  18.769  1.00  0.00    -0.319 N 
ATOM      2  C   UNL     1      28.536  30.535  19.486  1.00  0.00     0.407 C 
ATOM      3  O   UNL     1      28.100  29.544  18.890  1.00  0.00    -0.225 OA
ATOM      4  H   UNL     1      29.216  32.519  19.364  1.00  0.00     0.167 HD
ENDROOT
BRANCH   1   5
ATOM      5  C   UNL     1      28.686  31.891  17.344  1.00  0.00     0.154 C 
BRANCH   5   6
ATOM      6  C   UNL     1      29.917  31.417  16.650  1.00  0.00     0.165 C 
BRANCH   6   7
ATOM      7  C   UNL     1      30.681  32.536  15.975  1.00  0.00     0.176 C 
BRANCH   7   8
ATOM      8  C   UNL     1      31.493  33.380  16.897  1.00  0.00     0.178 C 
ATOM      9  C   UNL     1      31.208  34.519  18.894  1.00  0.00     0.269 C 
ATOM     10  C   UNL     1      32.512  35.216  18.659  1.00  0.00     0.112 C 
ATOM     11  O   UNL     1      31.092  33.321  18.212  1.00  0.00    -0.332 OA
ATOM     12  C   UNL     1      32.923  35.300  17.233  1.00  0.00     0.145 C 
ATOM     13  C   UNL     1      31.757  34.772  16.380  1.00  0.00     0.142 C 
BRANCH   9  14
ATOM     14  O   UNL     1      30.112  35.374  18.633  1.00  0.00    -0.357 OA
ATOM     15  H   UNL     1      30.043  36.016  19.360  1.00  0.00     0.214 HD
ENDBRANCH   9  14
BRANCH   9  16
ATOM     16  C   UNL     1      31.126  34.200  20.350  1.00  0.00     0.364 C 
ATOM     17  O   UNL     1      31.882  34.831  21.152  1.00  0.00    -0.246 OA
BRANCH  16  18
ATOM     18  O   UNL     1      30.280  33.263  20.885  1.00  0.00    -0.477 OA
ATOM     19  H   UNL     1      30.651  32.432  21.342  1.00  0.00     0.296 HD
ENDBRANCH  16  18
ENDBRANCH   9  16
BRANCH  12  20
ATOM     20  O   UNL     1      33.287  36.575  16.829  1.00  0.00    -0.391 OA
ATOM     21  H   UNL     1      34.231  36.552  16.473  1.00  0.00     0.211 HD
ENDBRANCH  12  20
BRANCH  13  22
ATOM     22  N   UNL     1      32.220  34.651  15.003  1.00  0.00    -0.348 N 
ATOM     23  C   UNL     1      32.001  35.708  14.085  1.00  0.00     0.217 C 
ATOM     24  H   UNL     1      32.715  33.803  14.655  1.00  0.00     0.163 HD
ATOM     25  C   UNL     1      32.463  35.613  12.655  1.00  0.00     0.114 C 
ATOM     26  O   UNL     1      31.418  36.767  14.400  1.00  0.00    -0.275 OA
ENDBRANCH  13  22
ENDBRANCH   7   8
BRANCH   7  27
ATOM     27  O   UNL     1      31.467  31.918  14.995  1.00  0.00    -0.388 OA
ATOM     28  H   UNL     1      30.970  31.943  14.150  1.00  0.00     0.211 HD
ENDBRANCH   7  27
ENDBRANCH   6   7
BRANCH   6  29
ATOM     29  O   UNL     1      29.637  30.358  15.800  1.00  0.00    -0.388 OA
ATOM     30  H   UNL     1      30.086  30.523  14.932  1.00  0.00     0.211 HD
ENDBRANCH   6  29
ENDBRANCH   5   6
ENDBRANCH   1   5
BRANCH   2  31
ATOM     31  O   UNL     1      28.704  30.424  20.863  1.00  0.00    -0.443 OA
BRANCH  31  32
ATOM     32  C   UNL     1      29.040  29.193  21.483  1.00  0.00     0.294 C 
BRANCH  32  33
ATOM     33  C   UNL     1      30.466  29.163  21.917  1.00  0.00     0.121 A 
ATOM     34  C   UNL     1      31.366  30.164  21.670  1.00  0.00     0.144 A 
ATOM     35  N   UNL     1      31.113  28.206  22.596  1.00  0.00    -0.131 NA
ATOM     36  N   UNL     1      32.551  29.793  22.207  1.00  0.00    -0.220 N 
ATOM     37  N   UNL     1      32.354  28.623  22.748  1.00  0.00    -0.062 NA
BRANCH  36  38
ATOM     38  C   UNL     1      33.720  30.594  22.142  1.00  0.00     0.066 A 
ATOM     39  C   UNL     1      34.942  30.068  22.502  1.00  0.00     0.030 A 
ATOM     40  C   UNL     1      33.693  31.907  21.725  1.00  0.00     0.030 A 
ATOM     41  C   UNL     1      36.108  30.814  22.453  1.00  0.00     0.023 A 
ATOM     42  C   UNL     1      34.865  32.669  21.671  1.00  0.00     0.023 A 
ATOM     43  C   UNL     1      36.071  32.122  22.036  1.00  0.00     0.072 A 
BRANCH  43  44
ATOM     44  S   UNL     1      37.527  33.052  21.974  1.00  0.00     0.206 S 
ATOM     45  O   UNL     1      38.662  32.257  22.524  1.00  0.00    -0.219 OA
ATOM     46  O   UNL     1      37.431  34.325  22.761  1.00  0.00    -0.219 OA
BRANCH  44  47
ATOM     47  C   UNL     1      37.808  33.492  20.293  1.00  0.00     0.072 A 
ATOM     48  C   UNL     1      37.345  34.699  19.840  1.00  0.00     0.023 A 
ATOM     49  C   UNL     1      38.488  32.645  19.424  1.00  0.00     0.023 A 
ATOM     50  C   UNL     1      37.545  35.088  18.522  1.00  0.00     0.027 A 
ATOM     51  C   UNL     1      38.704  33.002  18.102  1.00  0.00     0.027 A 
ATOM     52  C   UNL     1      38.223  34.221  17.687  1.00  0.00     0.031 A 
BRANCH  52  53
ATOM     53  N   UNL     1      38.433  34.604  16.343  1.00  0.00    -0.399 N 
ATOM     54  H   UNL     1      38.153  35.543  16.016  1.00  0.00     0.156 HD
ATOM     55  H   UNL     1      38.870  33.934  15.686  1.00  0.00     0.156 HD
ENDBRANCH  52  53
ENDBRANCH  44  47
ENDBRANCH  43  44
ENDBRANCH  36  38
ENDBRANCH  32  33
ENDBRANCH  31  32
ENDBRANCH   2  31
TORSDOF 18
BEGIN_RES LYS A 131
REMARK  4 active torsions:
REMARK  status: ('A' for Active; 'I' for Inactive)
REMARK    1  A    between atoms: CA   and  CB  
REMARK    2  A    between atoms: CB   and  CG  
REMARK    3  A    between atoms: CG   and  CD  
REMARK    4  A    between atoms: CD   and  CE  
ROOT
ATOM      1  CA  LYS A 131      29.867  25.555  16.977  1.00 20.52     0.186 C 
ENDROOT
BRANCH   1   2
ATOM      2  CB  LYS A 131      28.345  25.722  17.026  1.00 20.94     0.034 C 
BRANCH   2   3
ATOM      3  CG  LYS A 131      27.601  24.403  16.887  1.00 22.96     0.005 C 
BRANCH   3   4
ATOM      4  CD  LYS A 131      26.146  24.532  17.244  1.00 24.33     0.041 C 
BRANCH   4   5
ATOM      5  CE  LYS A 131      25.573  23.153  17.553  1.00 26.91     0.338 C 
ATOM      6  NZ  LYS A 131      24.161  23.067  17.110  1.00 27.40     0.618 N 
ENDBRANCH   4   5
ENDBRANCH   3   4
ENDBRANCH   2   3
ENDBRANCH   1   2
END_RES LYS A 131
BEGIN_RES LYS A 135
REMARK  4 active torsions:
REMARK  status: ('A' for Active; 'I' for Inactive)
REMARK    5  A    between atoms: CA   and  CB  
REMARK    6  A    between atoms: CB   and  CG  
REMARK    7  A    between atoms: CG   and  CD  
REMARK    8  A    between atoms: CD   and  CE  
ROOT
ATOM      7  CA  LYS A 135      33.193  34.663   9.290  1.00 25.02     0.186 C 
ENDROOT
BRANCH   7   8
ATOM      8  CB  LYS A 135      32.060  35.360  10.034  1.00 26.63     0.034 C 
BRANCH   8   9
ATOM      9  CG  LYS A 135      30.783  35.451   9.239  1.00 29.45     0.005 C 
BRANCH   9  10
ATOM     10  CD  LYS A 135      30.191  34.069   9.014  1.00 32.00     0.041 C 
BRANCH  10  11
ATOM     11  CE  LYS A 135      28.677  34.117   9.103  1.00 34.25     0.338 C 
ATOM     12  NZ  LYS A 135      28.097  34.870   7.957  1.00 35.99     0.618 N 
ENDBRANCH  10  11
ENDBRANCH   9  10
ENDBRANCH   8   9
ENDBRANCH   7   8
END_RES LYS A 135
