REMARK VINA RESULT:    -4.297      3.358      6.896
REMARK INTER + INTRA:         -14.882
REMARK INTER:                 -10.338
REMARK INTRA:                  -4.544
REMARK UNBOUND:                -5.938
REMARK SMILES CCOC(CCn1cc(COC(=O)NC[C@@H](O)C(O)[C@@H]2O[C@@](O)(C(=O)O)C[C@H](O)[C@H]2NC(C)=O)nn1)OCC
REMARK SMILES IDX 11 1 12 2 14 3 13 5 15 6 16 7 18 8 20 9 22 10 27 11 21 12
REMARK SMILES IDX 28 13 30 14 23 15 24 17 25 18 26 19 29 21 31 23 32 24 33 26
REMARK SMILES IDX 34 27 19 28 17 30 10 32 9 33 8 34 35 35 7 36 36 37 6 38 5 39
REMARK SMILES IDX 4 40 3 41 2 42 1 43 37 44 38 45 39 46
REMARK H PARENT 14 4 23 16 26 20 29 22 31 25 19 29 17 31
REMARK Flexibility Score: inf
ROOT
ATOM      1  O   UNL     1      32.838  34.588  14.321  1.00  0.00    -0.443 OA
ENDROOT
BRANCH   1   2
ATOM      2  C   UNL     1      32.168  33.912  15.351  1.00  0.00     0.407 C 
ATOM      3  N   UNL     1      31.423  32.739  15.108  1.00  0.00    -0.319 N 
ATOM      4  H   UNL     1      31.421  32.404  14.093  1.00  0.00     0.167 HD
ATOM      5  O   UNL     1      32.250  34.380  16.489  1.00  0.00    -0.225 OA
BRANCH   3   6
ATOM      6  C   UNL     1      30.686  31.963  16.054  1.00  0.00     0.154 C 
BRANCH   6   7
ATOM      7  C   UNL     1      29.258  32.421  16.148  1.00  0.00     0.165 C 
BRANCH   7   8
ATOM      8  C   UNL     1      28.403  31.214  15.772  1.00  0.00     0.176 C 
BRANCH   8   9
ATOM      9  C   UNL     1      27.571  30.738  16.922  1.00  0.00     0.178 C 
ATOM     10  C   UNL     1      27.288  28.834  18.216  1.00  0.00     0.269 C 
ATOM     11  C   UNL     1      25.965  29.382  18.641  1.00  0.00     0.112 C 
ATOM     12  O   UNL     1      28.161  29.770  17.681  1.00  0.00    -0.332 OA
ATOM     13  C   UNL     1      25.308  30.293  17.646  1.00  0.00     0.145 C 
ATOM     14  C   UNL     1      26.190  30.335  16.418  1.00  0.00     0.142 C 
BRANCH  10  15
ATOM     15  O   UNL     1      27.115  27.740  17.364  1.00  0.00    -0.357 OA
ATOM     16  H   UNL     1      27.922  27.155  17.483  1.00  0.00     0.214 HD
ENDBRANCH  10  15
BRANCH  10  17
ATOM     17  C   UNL     1      27.950  28.322  19.450  1.00  0.00     0.364 C 
ATOM     18  O   UNL     1      28.080  29.045  20.460  1.00  0.00    -0.246 OA
BRANCH  17  19
ATOM     19  O   UNL     1      28.433  27.000  19.458  1.00  0.00    -0.477 OA
ATOM     20  H   UNL     1      29.132  26.795  20.170  1.00  0.00     0.296 HD
ENDBRANCH  17  19
ENDBRANCH  10  17
BRANCH  13  21
ATOM     21  O   UNL     1      23.998  29.936  17.351  1.00  0.00    -0.391 OA
ATOM     22  H   UNL     1      23.492  30.006  18.200  1.00  0.00     0.211 HD
ENDBRANCH  13  21
BRANCH  14  23
ATOM     23  N   UNL     1      25.760  31.343  15.470  1.00  0.00    -0.348 N 
ATOM     24  C   UNL     1      24.869  30.981  14.425  1.00  0.00     0.217 C 
ATOM     25  H   UNL     1      26.063  32.331  15.503  1.00  0.00     0.163 HD
ATOM     26  C   UNL     1      24.379  31.941  13.415  1.00  0.00     0.114 C 
ATOM     27  O   UNL     1      24.478  29.783  14.355  1.00  0.00    -0.275 OA
ENDBRANCH  14  23
ENDBRANCH   8   9
BRANCH   8  28
ATOM     28  O   UNL     1      29.236  30.223  15.276  1.00  0.00    -0.388 OA
ATOM     29  H   UNL     1      29.739  30.512  14.467  1.00  0.00     0.211 HD
ENDBRANCH   8  28
ENDBRANCH   7   8
BRANCH   7  30
ATOM     30  O   UNL     1      28.996  33.399  15.224  1.00  0.00    -0.388 OA
ATOM     31  H   UNL     1      28.469  34.154  15.592  1.00  0.00     0.211 HD
ENDBRANCH   7  30
ENDBRANCH   6   7
ENDBRANCH   3   6
ENDBRANCH   1   2
BRANCH   1  32
ATOM     32  C   UNL     1      32.285  35.777  13.764  1.00  0.00     0.294 C 
BRANCH  32  33
ATOM     33  C   UNL     1      30.966  35.474  13.180  1.00  0.00     0.120 A 
ATOM     34  C   UNL     1      29.991  36.460  12.998  1.00  0.00     0.138 A 
ATOM     35  N   UNL     1      30.415  34.356  12.731  1.00  0.00    -0.132 NA
ATOM     36  N   UNL     1      28.900  35.887  12.449  1.00  0.00    -0.252 N 
ATOM     37  N   UNL     1      29.177  34.624  12.296  1.00  0.00    -0.067 NA
BRANCH  36  38
ATOM     38  C   UNL     1      27.698  36.602  12.126  1.00  0.00     0.151 C 
BRANCH  38  39
ATOM     39  C   UNL     1      26.560  35.694  11.721  1.00  0.00     0.086 C 
BRANCH  39  40
ATOM     40  C   UNL     1      25.639  36.320  10.720  1.00  0.00     0.251 C 
BRANCH  40  41
ATOM     41  O   UNL     1      24.367  36.383  11.278  1.00  0.00    -0.353 OA
BRANCH  41  42
ATOM     42  C   UNL     1      23.608  35.277  10.877  1.00  0.00     0.160 C 
ATOM     43  C   UNL     1      22.147  35.464  11.194  1.00  0.00     0.035 C 
ENDBRANCH  41  42
ENDBRANCH  40  41
BRANCH  40  44
ATOM     44  O   UNL     1      25.576  35.620   9.543  1.00  0.00    -0.353 OA
BRANCH  44  45
ATOM     45  C   UNL     1      26.518  36.060   8.613  1.00  0.00     0.160 C 
ATOM     46  C   UNL     1      27.190  34.844   7.986  1.00  0.00     0.035 C 
ENDBRANCH  44  45
ENDBRANCH  40  44
ENDBRANCH  39  40
ENDBRANCH  38  39
ENDBRANCH  36  38
ENDBRANCH  32  33
ENDBRANCH   1  32
TORSDOF 21
BEGIN_RES LYS A 131
REMARK  4 active torsions:
REMARK  status: ('A' for Active; 'I' for Inactive)
REMARK    1  A    between atoms: CA   and  CB  
REMARK    2  A    between atoms: CB   and  CG  
REMARK    3  A    between atoms: CG   and  CD  
REMARK    4  A    between atoms: CD   and  CE  
ROOT
ATOM      1  CA  LYS A 131      29.867  25.555  16.977  1.00 20.52     0.186 C 
ENDROOT
BRANCH   1   2
ATOM      2  CB  LYS A 131      28.345  25.722  17.026  1.00 20.94     0.034 C 
BRANCH   2   3
ATOM      3  CG  LYS A 131      27.601  24.401  16.902  1.00 22.96     0.005 C 
BRANCH   3   4
ATOM      4  CD  LYS A 131      26.146  24.535  17.254  1.00 24.33     0.041 C 
BRANCH   4   5
ATOM      5  CE  LYS A 131      25.958  24.284  18.747  1.00 26.91     0.338 C 
ATOM      6  NZ  LYS A 131      25.382  25.480  19.406  1.00 27.40     0.618 N 
ENDBRANCH   4   5
ENDBRANCH   3   4
ENDBRANCH   2   3
ENDBRANCH   1   2
END_RES LYS A 131
BEGIN_RES LYS A 135
REMARK  4 active torsions:
REMARK  status: ('A' for Active; 'I' for Inactive)
REMARK    5  A    between atoms: CA   and  CB  
REMARK    6  A    between atoms: CB   and  CG  
REMARK    7  A    between atoms: CG   and  CD  
REMARK    8  A    between atoms: CD   and  CE  
ROOT
ATOM      7  CA  LYS A 135      33.193  34.663   9.290  1.00 25.02     0.186 C 
ENDROOT
BRANCH   7   8
ATOM      8  CB  LYS A 135      32.060  35.360  10.034  1.00 26.63     0.034 C 
BRANCH   8   9
ATOM      9  CG  LYS A 135      30.753  35.354   9.284  1.00 29.45     0.005 C 
BRANCH   9  10
ATOM     10  CD  LYS A 135      30.265  36.775   9.045  1.00 32.00     0.041 C 
BRANCH  10  11
ATOM     11  CE  LYS A 135      31.120  37.767   9.810  1.00 34.25     0.338 C 
ATOM     12  NZ  LYS A 135      30.303  38.911  10.303  1.00 35.99     0.618 N 
ENDBRANCH  10  11
ENDBRANCH   9  10
ENDBRANCH   8   9
ENDBRANCH   7   8
END_RES LYS A 135
