REMARK VINA RESULT:    -3.787      3.380      7.616
REMARK INTER + INTRA:         -16.649
REMARK INTER:                  -7.430
REMARK INTRA:                  -9.218
REMARK UNBOUND:                -9.983
REMARK SMILES CC(=O)N[C@@H]1[C@@H](O)C[C@](O)(C(=O)O)O[C@H]1C(O)[C@H](O)CNC(=O)OCc1cn(-c2nc(C)nc(N)n2)nn1
REMARK SMILES IDX 21 1 22 2 23 3 20 5 18 6 16 7 15 8 9 9 8 10 14 11 6 12 5 13
REMARK SMILES IDX 10 14 11 16 12 17 13 18 7 20 4 22 2 23 1 25 3 26 17 27 19 29
REMARK SMILES IDX 24 31 25 32 26 33 27 34 38 35 28 36 37 37 29 38 36 39 30 40
REMARK SMILES IDX 34 41 31 42 33 43 32 44 35 45
REMARK H PARENT 21 4 10 15 13 19 7 21 4 24 17 28 19 30 35 46 35 47
REMARK Flexibility Score: inf
ROOT
ATOM      1  N   UNL     1      30.076  26.046  22.838  1.00  0.00    -0.319 N 
ATOM      2  C   UNL     1      29.471  26.079  24.119  1.00  0.00     0.407 C 
ATOM      3  O   UNL     1      29.950  26.709  25.080  1.00  0.00    -0.225 OA
ATOM      4  H   UNL     1      29.566  25.461  22.113  1.00  0.00     0.167 HD
ENDROOT
BRANCH   1   5
ATOM      5  C   UNL     1      31.300  26.736  22.476  1.00  0.00     0.154 C 
BRANCH   5   6
ATOM      6  C   UNL     1      31.128  27.606  21.305  1.00  0.00     0.165 C 
BRANCH   6   7
ATOM      7  C   UNL     1      29.702  28.085  21.029  1.00  0.00     0.176 C 
BRANCH   7   8
ATOM      8  C   UNL     1      29.598  29.549  20.722  1.00  0.00     0.178 C 
ATOM      9  C   UNL     1      29.695  31.015  18.904  1.00  0.00     0.269 C 
ATOM     10  C   UNL     1      30.755  31.825  19.612  1.00  0.00     0.112 C 
ATOM     11  O   UNL     1      29.554  29.745  19.379  1.00  0.00    -0.332 OA
ATOM     12  C   UNL     1      30.477  31.818  21.085  1.00  0.00     0.145 C 
ATOM     13  C   UNL     1      30.513  30.355  21.549  1.00  0.00     0.142 C 
BRANCH   9  14
ATOM     14  O   UNL     1      30.184  30.877  17.576  1.00  0.00    -0.357 OA
ATOM     15  H   UNL     1      30.077  31.745  17.110  1.00  0.00     0.214 HD
ENDBRANCH   9  14
BRANCH   9  16
ATOM     16  C   UNL     1      28.460  31.794  18.844  1.00  0.00     0.364 C 
ATOM     17  O   UNL     1      28.537  33.044  18.585  1.00  0.00    -0.246 OA
BRANCH  16  18
ATOM     18  O   UNL     1      27.174  31.325  19.039  1.00  0.00    -0.477 OA
ATOM     19  H   UNL     1      26.812  30.580  18.425  1.00  0.00     0.296 HD
ENDBRANCH  16  18
ENDBRANCH   9  16
BRANCH  12  20
ATOM     20  O   UNL     1      31.451  32.542  21.777  1.00  0.00    -0.391 OA
ATOM     21  H   UNL     1      31.151  33.495  21.776  1.00  0.00     0.211 HD
ENDBRANCH  12  20
BRANCH  13  22
ATOM     22  N   UNL     1      29.961  30.409  22.916  1.00  0.00    -0.348 N 
ATOM     23  C   UNL     1      30.841  30.235  24.010  1.00  0.00     0.217 C 
ATOM     24  H   UNL     1      28.947  30.572  23.085  1.00  0.00     0.163 HD
ATOM     25  C   UNL     1      30.357  30.277  25.428  1.00  0.00     0.114 C 
ATOM     26  O   UNL     1      32.063  30.040  23.760  1.00  0.00    -0.275 OA
ENDBRANCH  13  22
ENDBRANCH   7   8
BRANCH   7  27
ATOM     27  O   UNL     1      29.374  27.335  19.846  1.00  0.00    -0.388 OA
ATOM     28  H   UNL     1      28.941  28.033  19.265  1.00  0.00     0.211 HD
ENDBRANCH   7  27
ENDBRANCH   6   7
BRANCH   6  29
ATOM     29  O   UNL     1      31.702  27.118  20.159  1.00  0.00    -0.388 OA
ATOM     30  H   UNL     1      32.646  26.838  20.270  1.00  0.00     0.211 HD
ENDBRANCH   6  29
ENDBRANCH   5   6
ENDBRANCH   1   5
BRANCH   2  31
ATOM     31  O   UNL     1      28.284  25.387  24.361  1.00  0.00    -0.443 OA
BRANCH  31  32
ATOM     32  C   UNL     1      27.032  26.001  24.357  1.00  0.00     0.294 C 
BRANCH  32  33
ATOM     33  C   UNL     1      26.341  25.888  23.046  1.00  0.00     0.121 A 
ATOM     34  C   UNL     1      26.567  26.682  21.941  1.00  0.00     0.148 A 
ATOM     35  N   UNL     1      25.375  25.023  22.653  1.00  0.00    -0.131 NA
ATOM     36  N   UNL     1      25.761  26.298  20.929  1.00  0.00    -0.185 N 
ATOM     37  N   UNL     1      25.060  25.297  21.397  1.00  0.00    -0.059 NA
BRANCH  36  38
ATOM     38  C   UNL     1      25.684  26.857  19.624  1.00  0.00     0.257 A 
ATOM     39  N   UNL     1      26.693  27.533  19.049  1.00  0.00    -0.175 NA
ATOM     40  N   UNL     1      24.551  26.714  18.915  1.00  0.00    -0.196 NA
ATOM     41  C   UNL     1      26.621  28.063  17.816  1.00  0.00     0.225 A 
ATOM     42  C   UNL     1      24.450  27.242  17.661  1.00  0.00     0.133 A 
ATOM     43  N   UNL     1      25.490  27.909  17.132  1.00  0.00    -0.198 NA
ATOM     44  C   UNL     1      23.200  27.074  16.894  1.00  0.00     0.090 C 
BRANCH  41  45
ATOM     45  N   UNL     1      27.681  28.774  17.211  1.00  0.00    -0.368 N 
ATOM     46  H   UNL     1      28.077  29.608  17.681  1.00  0.00     0.159 HD
ATOM     47  H   UNL     1      28.079  28.485  16.299  1.00  0.00     0.159 HD
ENDBRANCH  41  45
ENDBRANCH  36  38
ENDBRANCH  32  33
ENDBRANCH  31  32
ENDBRANCH   2  31
TORSDOF 16
BEGIN_RES LYS A 135
REMARK  4 active torsions:
REMARK  status: ('A' for Active; 'I' for Inactive)
REMARK    1  A    between atoms: CA   and  CB  
REMARK    2  A    between atoms: CB   and  CG  
REMARK    3  A    between atoms: CG   and  CD  
REMARK    4  A    between atoms: CD   and  CE  
ROOT
ATOM      1  CA  LYS A 135      33.193  34.663   9.290  1.00 25.02     0.186 C 
ENDROOT
BRANCH   1   2
ATOM      2  CB  LYS A 135      32.060  35.360  10.034  1.00 26.63     0.034 C 
BRANCH   2   3
ATOM      3  CG  LYS A 135      30.709  34.737   9.795  1.00 29.45     0.005 C 
BRANCH   3   4
ATOM      4  CD  LYS A 135      30.463  34.544   8.306  1.00 32.00     0.041 C 
BRANCH   4   5
ATOM      5  CE  LYS A 135      29.020  34.854   7.960  1.00 34.25     0.338 C 
ATOM      6  NZ  LYS A 135      28.919  35.538   6.641  1.00 35.99     0.618 N 
ENDBRANCH   4   5
ENDBRANCH   3   4
ENDBRANCH   2   3
ENDBRANCH   1   2
END_RES LYS A 135
BEGIN_RES ARG A 124
REMARK  4 active torsions:
REMARK  status: ('A' for Active; 'I' for Inactive)
REMARK    5  A    between atoms: CA   and  CB  
REMARK    6  A    between atoms: CB   and  CG  
REMARK    7  A    between atoms: CG   and  CD  
REMARK    8  A    between atoms: CD   and  NE  
REMARK       I    between atoms: NE   and  CZ  
ROOT
ATOM      7  CA  ARG A 124      31.045  26.515   9.594  1.00 17.84     0.186 C 
ENDROOT
BRANCH   7   8
ATOM      8  CB  ARG A 124      29.529  26.705   9.647  1.00 16.18     0.036 C 
BRANCH   8   9
ATOM      9  CG  ARG A 124      28.757  25.740  10.617  1.00 16.22     0.029 C 
BRANCH   9  10
ATOM     10  CD  ARG A 124      28.258  26.449  11.896  1.00 15.09     0.145 C 
BRANCH  10  11
ATOM     11  NE  ARG A 124      26.836  26.853  11.841  1.00 16.98    -0.083 NA
ATOM     12  CZ  ARG A 124      26.220  27.596  12.754  1.00 18.21     0.782 C 
ATOM     13  NH1 ARG A 124      26.867  28.058  13.817  1.00 21.11     0.063 N 
ATOM     14  NH2 ARG A 124      24.943  27.909  12.600  1.00 21.25     0.063 N 
ENDBRANCH  10  11
ENDBRANCH   9  10
ENDBRANCH   8   9
ENDBRANCH   7   8
END_RES ARG A 124
BEGIN_RES ASN A 133
REMARK  2 active torsions:
REMARK  status: ('A' for Active; 'I' for Inactive)
REMARK    9  A    between atoms: CA   and  CB  
REMARK   10  A    between atoms: CB   and  CG  
ROOT
ATOM     15  CA  ASN A 133      31.225  30.257  11.749  1.00 18.15     0.196 C 
ENDROOT
BRANCH  15  16
ATOM     16  CB  ASN A 133      30.092  31.240  11.460  1.00 18.27     0.126 C 
BRANCH  16  17
ATOM     17  CG  ASN A 133      28.735  30.608  11.503  1.00 18.94     0.276 C 
ATOM     18  OD1 ASN A 133      28.447  29.665  10.764  1.00 18.09    -0.269 OA
ATOM     19  ND2 ASN A 133      27.877  31.130  12.378  1.00 18.93    -0.107 N 
ENDBRANCH  16  17
ENDBRANCH  15  16
END_RES ASN A 133
BEGIN_RES LYS A 131
REMARK  4 active torsions:
REMARK  status: ('A' for Active; 'I' for Inactive)
REMARK   11  A    between atoms: CA   and  CB  
REMARK   12  A    between atoms: CB   and  CG  
REMARK   13  A    between atoms: CG   and  CD  
REMARK   14  A    between atoms: CD   and  CE  
ROOT
ATOM     20  CA  LYS A 131      29.867  25.555  16.977  1.00 20.52     0.186 C 
ENDROOT
BRANCH  20  21
ATOM     21  CB  LYS A 131      28.345  25.722  17.026  1.00 20.94     0.034 C 
BRANCH  21  22
ATOM     22  CG  LYS A 131      27.599  24.420  16.775  1.00 22.96     0.005 C 
BRANCH  22  23
ATOM     23  CD  LYS A 131      26.820  23.973  17.981  1.00 24.33     0.041 C 
BRANCH  23  24
ATOM     24  CE  LYS A 131      25.785  22.934  17.561  1.00 26.91     0.338 C 
ATOM     25  NZ  LYS A 131      24.513  23.593  17.180  1.00 27.40     0.618 N 
ENDBRANCH  23  24
ENDBRANCH  22  23
ENDBRANCH  21  22
ENDBRANCH  20  21
END_RES LYS A 131
