REMARK VINA RESULT:    -3.895      3.054      6.222
REMARK INTER + INTRA:         -15.318
REMARK INTER:                  -9.380
REMARK INTRA:                  -5.937
REMARK UNBOUND:                -7.438
REMARK SMILES CC(=O)N[C@@H]1[C@@H](O)C[C@](O)(C(=O)O)O[C@H]1C(O)[C@H](O)CNC(=O)OCc1cn([C@@H](CCC(=O)O)C(=O)O)nn1
REMARK SMILES IDX 24 1 22 2 21 3 23 5 20 6 18 7 16 8 15 9 9 10 8 11 14 12 6 13
REMARK SMILES IDX 5 14 10 15 11 17 12 18 13 19 7 21 4 23 2 24 1 26 3 27 17 28
REMARK SMILES IDX 19 30 25 32 26 33 27 34 39 35 28 36 38 37 29 38 30 39 31 40
REMARK SMILES IDX 32 41 33 42 34 43 35 45 36 46 37 47
REMARK H PARENT 21 4 10 16 13 20 7 22 4 25 17 29 19 31 34 44 37 48
REMARK Flexibility Score: inf
ROOT
ATOM      1  O   UNL     1      24.735  35.919  12.438  1.00  0.00    -0.443 OA
ENDROOT
BRANCH   1   2
ATOM      2  C   UNL     1      24.473  36.422  11.157  1.00  0.00     0.407 C 
ATOM      3  N   UNL     1      25.356  37.280  10.487  1.00  0.00    -0.319 N 
ATOM      4  H   UNL     1      26.247  37.538  11.028  1.00  0.00     0.167 HD
ATOM      5  O   UNL     1      23.407  36.068  10.629  1.00  0.00    -0.225 OA
BRANCH   3   6
ATOM      6  C   UNL     1      25.193  37.840   9.176  1.00  0.00     0.154 C 
BRANCH   6   7
ATOM      7  C   UNL     1      26.027  37.144   8.173  1.00  0.00     0.165 C 
BRANCH   7   8
ATOM      8  C   UNL     1      27.478  37.590   8.184  1.00  0.00     0.176 C 
BRANCH   8   9
ATOM      9  C   UNL     1      27.591  39.041   7.708  1.00  0.00     0.178 C 
ATOM     10  C   UNL     1      27.933  38.995   5.393  1.00  0.00     0.269 C 
ATOM     11  C   UNL     1      29.353  38.657   5.745  1.00  0.00     0.112 C 
ATOM     12  O   UNL     1      27.115  39.238   6.453  1.00  0.00    -0.332 OA
ATOM     13  C   UNL     1      29.926  39.406   6.894  1.00  0.00     0.145 C 
ATOM     14  C   UNL     1      28.944  39.611   8.011  1.00  0.00     0.142 C 
BRANCH  10  15
ATOM     15  O   UNL     1      27.430  37.886   4.711  1.00  0.00    -0.357 OA
ATOM     16  H   UNL     1      27.726  37.864   3.778  1.00  0.00     0.214 HD
ENDBRANCH  10  15
BRANCH  10  17
ATOM     17  C   UNL     1      27.909  40.143   4.452  1.00  0.00     0.364 C 
ATOM     18  O   UNL     1      26.874  40.390   3.788  1.00  0.00    -0.246 OA
BRANCH  17  19
ATOM     19  O   UNL     1      29.011  40.974   4.272  1.00  0.00    -0.477 OA
ATOM     20  H   UNL     1      29.703  40.969   5.023  1.00  0.00     0.296 HD
ENDBRANCH  17  19
ENDBRANCH  10  17
BRANCH  13  21
ATOM     21  O   UNL     1      31.015  38.683   7.378  1.00  0.00    -0.391 OA
ATOM     22  H   UNL     1      30.891  38.443   8.334  1.00  0.00     0.211 HD
ENDBRANCH  13  21
BRANCH  14  23
ATOM     23  N   UNL     1      28.780  40.991   8.363  1.00  0.00    -0.348 N 
ATOM     24  C   UNL     1      28.527  41.346   9.712  1.00  0.00     0.217 C 
ATOM     25  H   UNL     1      28.847  41.745   7.618  1.00  0.00     0.163 HD
ATOM     26  C   UNL     1      28.357  42.767  10.078  1.00  0.00     0.114 C 
ATOM     27  O   UNL     1      28.438  40.486  10.630  1.00  0.00    -0.275 OA
ENDBRANCH  14  23
ENDBRANCH   8   9
BRANCH   8  28
ATOM     28  O   UNL     1      27.973  37.492   9.470  1.00  0.00    -0.388 OA
ATOM     29  H   UNL     1      27.215  37.343  10.089  1.00  0.00     0.211 HD
ENDBRANCH   8  28
ENDBRANCH   7   8
BRANCH   7  30
ATOM     30  O   UNL     1      25.477  37.131   6.933  1.00  0.00    -0.388 OA
ATOM     31  H   UNL     1      25.958  37.645   6.247  1.00  0.00     0.211 HD
ENDBRANCH   7  30
ENDBRANCH   6   7
ENDBRANCH   3   6
ENDBRANCH   1   2
BRANCH   1  32
ATOM     32  C   UNL     1      25.483  34.715  12.581  1.00  0.00     0.294 C 
BRANCH  32  33
ATOM     33  C   UNL     1      26.907  34.968  12.751  1.00  0.00     0.120 A 
ATOM     34  C   UNL     1      27.765  34.433  13.674  1.00  0.00     0.139 A 
ATOM     35  N   UNL     1      27.660  35.795  12.009  1.00  0.00    -0.132 NA
ATOM     36  N   UNL     1      28.998  34.926  13.490  1.00  0.00    -0.238 N 
ATOM     37  N   UNL     1      28.898  35.754  12.467  1.00  0.00    -0.066 NA
BRANCH  36  38
ATOM     38  C   UNL     1      30.242  34.681  14.196  1.00  0.00     0.219 C 
BRANCH  38  39
ATOM     39  C   UNL     1      30.337  33.257  14.603  1.00  0.00     0.051 C 
BRANCH  39  40
ATOM     40  C   UNL     1      31.523  32.881  15.409  1.00  0.00     0.125 C 
BRANCH  40  41
ATOM     41  C   UNL     1      31.505  33.410  16.771  1.00  0.00     0.303 C 
ATOM     42  O   UNL     1      32.170  34.457  17.089  1.00  0.00    -0.252 OA
BRANCH  41  43
ATOM     43  O   UNL     1      30.753  32.769  17.758  1.00  0.00    -0.481 OA
ATOM     44  H   UNL     1      30.055  33.319  18.240  1.00  0.00     0.296 HD
ENDBRANCH  41  43
ENDBRANCH  40  41
ENDBRANCH  39  40
ENDBRANCH  38  39
BRANCH  38  45
ATOM     45  C   UNL     1      31.404  35.277  13.559  1.00  0.00     0.328 C 
ATOM     46  O   UNL     1      32.014  36.272  13.946  1.00  0.00    -0.250 OA
BRANCH  45  47
ATOM     47  O   UNL     1      31.870  34.657  12.384  1.00  0.00    -0.480 OA
ATOM     48  H   UNL     1      32.430  35.195  11.745  1.00  0.00     0.296 HD
ENDBRANCH  45  47
ENDBRANCH  38  45
ENDBRANCH  36  38
ENDBRANCH  32  33
ENDBRANCH   1  32
TORSDOF 21
BEGIN_RES LYS A 131
REMARK  4 active torsions:
REMARK  status: ('A' for Active; 'I' for Inactive)
REMARK    1  A    between atoms: CA   and  CB  
REMARK    2  A    between atoms: CB   and  CG  
REMARK    3  A    between atoms: CG   and  CD  
REMARK    4  A    between atoms: CD   and  CE  
ROOT
ATOM      1  CA  LYS A 131      29.867  25.555  16.977  1.00 20.52     0.186 C 
ENDROOT
BRANCH   1   2
ATOM      2  CB  LYS A 131      28.345  25.722  17.026  1.00 20.94     0.034 C 
BRANCH   2   3
ATOM      3  CG  LYS A 131      27.603  24.395  16.984  1.00 22.96     0.005 C 
BRANCH   3   4
ATOM      4  CD  LYS A 131      26.315  24.441  17.758  1.00 24.33     0.041 C 
BRANCH   4   5
ATOM      5  CE  LYS A 131      25.514  23.171  17.490  1.00 26.91     0.338 C 
ATOM      6  NZ  LYS A 131      24.132  23.508  17.074  1.00 27.40     0.618 N 
ENDBRANCH   4   5
ENDBRANCH   3   4
ENDBRANCH   2   3
ENDBRANCH   1   2
END_RES LYS A 131
BEGIN_RES LYS A 135
REMARK  4 active torsions:
REMARK  status: ('A' for Active; 'I' for Inactive)
REMARK    5  A    between atoms: CA   and  CB  
REMARK    6  A    between atoms: CB   and  CG  
REMARK    7  A    between atoms: CG   and  CD  
REMARK    8  A    between atoms: CD   and  CE  
ROOT
ATOM      7  CA  LYS A 135      33.193  34.663   9.290  1.00 25.02     0.186 C 
ENDROOT
BRANCH   7   8
ATOM      8  CB  LYS A 135      32.060  35.360  10.034  1.00 26.63     0.034 C 
BRANCH   8   9
ATOM      9  CG  LYS A 135      30.775  35.425   9.250  1.00 29.45     0.005 C 
BRANCH   9  10
ATOM     10  CD  LYS A 135      29.986  34.134   9.406  1.00 32.00     0.041 C 
BRANCH  10  11
ATOM     11  CE  LYS A 135      28.710  34.187   8.587  1.00 34.25     0.338 C 
ATOM     12  NZ  LYS A 135      27.537  33.746   9.392  1.00 35.99     0.618 N 
ENDBRANCH  10  11
ENDBRANCH   9  10
ENDBRANCH   8   9
ENDBRANCH   7   8
END_RES LYS A 135
