REMARK VINA RESULT:    -4.006      4.175      6.612
REMARK INTER + INTRA:         -15.339
REMARK INTER:                  -7.376
REMARK INTRA:                  -7.963
REMARK UNBOUND:                -7.118
REMARK SMILES CC(=O)N[C@@H]1[C@@H](O)C[C@](O)(C(=O)O)O[C@H]1C(O)[C@H](O)CNC(=O)OCc1cn(C[C@H](CC(=O)O)CC(C)C)nn1
REMARK SMILES IDX 24 1 22 2 21 3 23 5 20 6 18 7 16 8 15 9 9 10 8 11 14 12 6 13
REMARK SMILES IDX 5 14 10 15 11 17 12 18 13 19 7 21 4 23 2 24 1 26 3 27 17 28
REMARK SMILES IDX 19 30 25 32 26 33 27 34 40 35 28 36 39 37 29 38 30 39 31 40
REMARK SMILES IDX 32 41 33 42 34 43 35 45 36 46 37 47 38 48
REMARK H PARENT 21 4 10 16 13 20 7 22 4 25 17 29 19 31 34 44
REMARK Flexibility Score: inf
ROOT
ATOM      1  O   UNL     1      30.883  37.381  15.840  1.00  0.00    -0.443 OA
ENDROOT
BRANCH   1   2
ATOM      2  C   UNL     1      29.674  37.341  16.558  1.00  0.00     0.407 C 
ATOM      3  N   UNL     1      29.145  36.120  17.041  1.00  0.00    -0.319 N 
ATOM      4  H   UNL     1      29.720  35.245  16.830  1.00  0.00     0.167 HD
ATOM      5  O   UNL     1      29.076  38.426  16.756  1.00  0.00    -0.225 OA
BRANCH   3   6
ATOM      6  C   UNL     1      27.907  36.021  17.780  1.00  0.00     0.154 C 
BRANCH   6   7
ATOM      7  C   UNL     1      27.898  34.759  18.571  1.00  0.00     0.165 C 
BRANCH   7   8
ATOM      8  C   UNL     1      27.357  33.562  17.806  1.00  0.00     0.176 C 
BRANCH   8   9
ATOM      9  C   UNL     1      28.434  32.568  17.503  1.00  0.00     0.178 C 
ATOM     10  C   UNL     1      30.108  33.001  15.953  1.00  0.00     0.269 C 
ATOM     11  C   UNL     1      30.167  31.578  15.453  1.00  0.00     0.112 C 
ATOM     12  O   UNL     1      29.671  33.088  17.265  1.00  0.00    -0.332 OA
ATOM     13  C   UNL     1      29.204  30.680  16.200  1.00  0.00     0.145 C 
ATOM     14  C   UNL     1      27.969  31.552  16.463  1.00  0.00     0.142 C 
BRANCH  10  15
ATOM     15  O   UNL     1      29.349  33.800  15.094  1.00  0.00    -0.357 OA
ATOM     16  H   UNL     1      28.399  33.579  15.097  1.00  0.00     0.214 HD
ENDBRANCH  10  15
BRANCH  10  17
ATOM     17  C   UNL     1      31.496  33.535  15.923  1.00  0.00     0.364 C 
ATOM     18  O   UNL     1      31.912  34.210  16.914  1.00  0.00    -0.246 OA
BRANCH  17  19
ATOM     19  O   UNL     1      32.367  33.339  14.873  1.00  0.00    -0.477 OA
ATOM     20  H   UNL     1      32.994  34.109  14.591  1.00  0.00     0.296 HD
ENDBRANCH  17  19
ENDBRANCH  10  17
BRANCH  13  21
ATOM     21  O   UNL     1      28.894  29.529  15.519  1.00  0.00    -0.391 OA
ATOM     22  H   UNL     1      27.942  29.626  15.206  1.00  0.00     0.211 HD
ENDBRANCH  13  21
BRANCH  14  23
ATOM     23  N   UNL     1      26.897  30.767  17.025  1.00  0.00    -0.348 N 
ATOM     24  C   UNL     1      25.724  30.481  16.260  1.00  0.00     0.217 C 
ATOM     25  H   UNL     1      26.918  30.375  17.998  1.00  0.00     0.163 HD
ATOM     26  C   UNL     1      24.611  29.682  16.805  1.00  0.00     0.114 C 
ATOM     27  O   UNL     1      25.632  30.921  15.087  1.00  0.00    -0.275 OA
ENDBRANCH  14  23
ENDBRANCH   8   9
BRANCH   8  28
ATOM     28  O   UNL     1      26.630  33.969  16.711  1.00  0.00    -0.388 OA
ATOM     29  H   UNL     1      26.546  33.218  16.087  1.00  0.00     0.211 HD
ENDBRANCH   8  28
ENDBRANCH   7   8
BRANCH   7  30
ATOM     30  O   UNL     1      27.051  34.945  19.689  1.00  0.00    -0.388 OA
ATOM     31  H   UNL     1      27.572  35.004  20.522  1.00  0.00     0.211 HD
ENDBRANCH   7  30
ENDBRANCH   6   7
ENDBRANCH   3   6
ENDBRANCH   1   2
BRANCH   1  32
ATOM     32  C   UNL     1      30.819  37.733  14.481  1.00  0.00     0.294 C 
BRANCH  32  33
ATOM     33  C   UNL     1      30.473  36.588  13.619  1.00  0.00     0.120 A 
ATOM     34  C   UNL     1      29.287  36.290  12.965  1.00  0.00     0.138 A 
ATOM     35  N   UNL     1      31.301  35.584  13.305  1.00  0.00    -0.132 NA
ATOM     36  N   UNL     1      29.438  35.137  12.290  1.00  0.00    -0.252 N 
ATOM     37  N   UNL     1      30.662  34.731  12.512  1.00  0.00    -0.067 NA
BRANCH  36  38
ATOM     38  C   UNL     1      28.381  34.491  11.464  1.00  0.00     0.150 C 
BRANCH  38  39
ATOM     39  C   UNL     1      27.105  35.245  11.603  1.00  0.00     0.022 C 
BRANCH  39  40
ATOM     40  C   UNL     1      26.305  34.602  12.722  1.00  0.00     0.128 C 
BRANCH  40  41
ATOM     41  C   UNL     1      25.708  35.665  13.570  1.00  0.00     0.303 C 
ATOM     42  O   UNL     1      26.284  36.065  14.597  1.00  0.00    -0.252 OA
BRANCH  41  43
ATOM     43  O   UNL     1      24.478  36.194  13.166  1.00  0.00    -0.481 OA
ATOM     44  H   UNL     1      23.668  35.606  13.157  1.00  0.00     0.296 HD
ENDBRANCH  41  43
ENDBRANCH  40  41
ENDBRANCH  39  40
BRANCH  39  45
ATOM     45  C   UNL     1      26.373  35.404  10.335  1.00  0.00     0.009 C 
BRANCH  45  46
ATOM     46  C   UNL     1      26.097  36.775   9.849  1.00  0.00    -0.017 C 
ATOM     47  C   UNL     1      27.407  37.575  10.099  1.00  0.00     0.007 C 
ATOM     48  C   UNL     1      25.763  36.935   8.405  1.00  0.00     0.007 C 
ENDBRANCH  45  46
ENDBRANCH  39  45
ENDBRANCH  38  39
ENDBRANCH  36  38
ENDBRANCH  32  33
ENDBRANCH   1  32
TORSDOF 21
BEGIN_RES LYS A 131
REMARK  4 active torsions:
REMARK  status: ('A' for Active; 'I' for Inactive)
REMARK    1  A    between atoms: CA   and  CB  
REMARK    2  A    between atoms: CB   and  CG  
REMARK    3  A    between atoms: CG   and  CD  
REMARK    4  A    between atoms: CD   and  CE  
ROOT
ATOM      1  CA  LYS A 131      29.867  25.555  16.977  1.00 20.52     0.186 C 
ENDROOT
BRANCH   1   2
ATOM      2  CB  LYS A 131      28.345  25.722  17.026  1.00 20.94     0.034 C 
BRANCH   2   3
ATOM      3  CG  LYS A 131      27.599  24.431  16.726  1.00 22.96     0.005 C 
BRANCH   3   4
ATOM      4  CD  LYS A 131      26.995  23.826  17.963  1.00 24.33     0.041 C 
BRANCH   4   5
ATOM      5  CE  LYS A 131      25.541  23.454  17.690  1.00 26.91     0.338 C 
ATOM      6  NZ  LYS A 131      24.897  24.476  16.831  1.00 27.40     0.618 N 
ENDBRANCH   4   5
ENDBRANCH   3   4
ENDBRANCH   2   3
ENDBRANCH   1   2
END_RES LYS A 131
BEGIN_RES LYS A 135
REMARK  4 active torsions:
REMARK  status: ('A' for Active; 'I' for Inactive)
REMARK    5  A    between atoms: CA   and  CB  
REMARK    6  A    between atoms: CB   and  CG  
REMARK    7  A    between atoms: CG   and  CD  
REMARK    8  A    between atoms: CD   and  CE  
ROOT
ATOM      7  CA  LYS A 135      33.193  34.663   9.290  1.00 25.02     0.186 C 
ENDROOT
BRANCH   7   8
ATOM      8  CB  LYS A 135      32.060  35.360  10.034  1.00 26.63     0.034 C 
BRANCH   8   9
ATOM      9  CG  LYS A 135      30.919  35.776   9.141  1.00 29.45     0.005 C 
BRANCH   9  10
ATOM     10  CD  LYS A 135      30.410  34.592   8.334  1.00 32.00     0.041 C 
BRANCH  10  11
ATOM     11  CE  LYS A 135      28.985  34.834   7.876  1.00 34.25     0.338 C 
ATOM     12  NZ  LYS A 135      28.937  35.840   6.778  1.00 35.99     0.618 N 
ENDBRANCH  10  11
ENDBRANCH   9  10
ENDBRANCH   8   9
ENDBRANCH   7   8
END_RES LYS A 135
