REMARK VINA RESULT:    -4.879      4.230      7.710
REMARK INTER + INTRA:         -14.371
REMARK INTER:                  -7.826
REMARK INTRA:                  -6.544
REMARK UNBOUND:                -4.785
REMARK SMILES C=CCCCCn1cc(COC(=O)NC[C@@H](O)C(O)[C@@H]2O[C@@](O)(C(=O)O)C[C@H](O)[C@H]2NC(C)=O)nn1
REMARK SMILES IDX 11 1 12 2 14 3 13 5 15 6 16 7 18 8 20 9 22 10 27 11 21 12
REMARK SMILES IDX 28 13 30 14 23 15 24 17 25 18 26 19 29 21 31 23 32 24 33 26
REMARK SMILES IDX 34 27 19 28 17 30 10 32 9 33 8 34 35 35 7 36 36 37 6 38 5 39
REMARK SMILES IDX 4 40 3 41 2 42 1 43
REMARK H PARENT 14 4 23 16 26 20 29 22 31 25 19 29 17 31
REMARK Flexibility Score: inf
ROOT
ATOM      1  O   UNL     1      26.396  29.803  16.961  1.00  0.00    -0.443 OA
ENDROOT
BRANCH   1   2
ATOM      2  C   UNL     1      26.374  28.652  17.723  1.00  0.00     0.407 C 
ATOM      3  N   UNL     1      27.593  28.278  18.381  1.00  0.00    -0.319 N 
ATOM      4  H   UNL     1      28.427  28.883  18.256  1.00  0.00     0.167 HD
ATOM      5  O   UNL     1      25.321  27.946  17.844  1.00  0.00    -0.225 OA
BRANCH   3   6
ATOM      6  C   UNL     1      27.681  27.111  19.191  1.00  0.00     0.154 C 
BRANCH   6   7
ATOM      7  C   UNL     1      27.476  27.379  20.683  1.00  0.00     0.165 C 
BRANCH   7   8
ATOM      8  C   UNL     1      28.840  27.722  21.229  1.00  0.00     0.176 C 
BRANCH   8   9
ATOM      9  C   UNL     1      29.005  29.162  21.592  1.00  0.00     0.178 C 
ATOM     10  C   UNL     1      29.346  31.116  20.388  1.00  0.00     0.269 C 
ATOM     11  C   UNL     1      29.736  31.688  21.735  1.00  0.00     0.112 C 
ATOM     12  O   UNL     1      28.602  29.962  20.556  1.00  0.00    -0.332 OA
ATOM     13  C   UNL     1      30.788  30.775  22.324  1.00  0.00     0.145 C 
ATOM     14  C   UNL     1      30.495  29.352  21.911  1.00  0.00     0.142 C 
BRANCH  10  15
ATOM     15  O   UNL     1      30.465  30.914  19.584  1.00  0.00    -0.357 OA
ATOM     16  H   UNL     1      31.233  30.642  20.135  1.00  0.00     0.214 HD
ENDBRANCH  10  15
BRANCH  10  17
ATOM     17  C   UNL     1      28.506  32.139  19.714  1.00  0.00     0.364 C 
ATOM     18  O   UNL     1      28.860  33.341  19.616  1.00  0.00    -0.246 OA
BRANCH  17  19
ATOM     19  O   UNL     1      27.261  31.823  19.145  1.00  0.00    -0.477 OA
ATOM     20  H   UNL     1      26.535  31.482  19.769  1.00  0.00     0.296 HD
ENDBRANCH  17  19
ENDBRANCH  10  17
BRANCH  13  21
ATOM     21  O   UNL     1      32.022  31.118  21.805  1.00  0.00    -0.391 OA
ATOM     22  H   UNL     1      32.739  30.756  22.382  1.00  0.00     0.211 HD
ENDBRANCH  13  21
BRANCH  14  23
ATOM     23  N   UNL     1      30.844  28.406  22.955  1.00  0.00    -0.348 N 
ATOM     24  C   UNL     1      32.162  27.898  23.139  1.00  0.00     0.217 C 
ATOM     25  H   UNL     1      30.125  28.042  23.641  1.00  0.00     0.163 HD
ATOM     26  C   UNL     1      32.509  26.924  24.216  1.00  0.00     0.114 C 
ATOM     27  O   UNL     1      33.044  28.311  22.336  1.00  0.00    -0.275 OA
ENDBRANCH  14  23
ENDBRANCH   8   9
BRANCH   8  28
ATOM     28  O   UNL     1      29.763  27.301  20.258  1.00  0.00    -0.388 OA
ATOM     29  H   UNL     1      30.592  26.948  20.669  1.00  0.00     0.211 HD
ENDBRANCH   8  28
ENDBRANCH   7   8
BRANCH   7  30
ATOM     30  O   UNL     1      26.872  26.313  21.314  1.00  0.00    -0.388 OA
ATOM     31  H   UNL     1      27.468  25.718  21.798  1.00  0.00     0.211 HD
ENDBRANCH   7  30
ENDBRANCH   6   7
ENDBRANCH   3   6
ENDBRANCH   1   2
BRANCH   1  32
ATOM     32  C   UNL     1      27.243  29.900  15.846  1.00  0.00     0.294 C 
BRANCH  32  33
ATOM     33  C   UNL     1      28.047  31.155  16.024  1.00  0.00     0.120 A 
ATOM     34  C   UNL     1      29.415  31.170  16.246  1.00  0.00     0.138 A 
ATOM     35  N   UNL     1      27.667  32.432  16.010  1.00  0.00    -0.132 NA
ATOM     36  N   UNL     1      29.811  32.444  16.359  1.00  0.00    -0.252 N 
ATOM     37  N   UNL     1      28.732  33.187  16.212  1.00  0.00    -0.067 NA
BRANCH  36  38
ATOM     38  C   UNL     1      31.143  32.982  16.596  1.00  0.00     0.146 C 
BRANCH  38  39
ATOM     39  C   UNL     1      31.875  33.133  15.289  1.00  0.00     0.024 C 
BRANCH  39  40
ATOM     40  C   UNL     1      32.572  34.467  15.198  1.00  0.00     0.006 C 
BRANCH  40  41
ATOM     41  C   UNL     1      31.625  35.585  14.846  1.00  0.00     0.027 C 
BRANCH  41  42
ATOM     42  C   UNL     1      31.482  35.686  13.376  1.00  0.00    -0.035 C 
ATOM     43  C   UNL     1      32.203  36.506  12.644  1.00  0.00     0.004 C 
ENDBRANCH  41  42
ENDBRANCH  40  41
ENDBRANCH  39  40
ENDBRANCH  38  39
ENDBRANCH  36  38
ENDBRANCH  32  33
ENDBRANCH   1  32
TORSDOF 19
BEGIN_RES LYS A 131
REMARK  4 active torsions:
REMARK  status: ('A' for Active; 'I' for Inactive)
REMARK    1  A    between atoms: CA   and  CB  
REMARK    2  A    between atoms: CB   and  CG  
REMARK    3  A    between atoms: CG   and  CD  
REMARK    4  A    between atoms: CD   and  CE  
ROOT
ATOM      1  CA  LYS A 131      29.867  25.555  16.977  1.00 20.52     0.186 C 
ENDROOT
BRANCH   1   2
ATOM      2  CB  LYS A 131      28.345  25.722  17.026  1.00 20.94     0.034 C 
BRANCH   2   3
ATOM      3  CG  LYS A 131      27.599  24.475  16.575  1.00 22.96     0.005 C 
BRANCH   3   4
ATOM      4  CD  LYS A 131      26.962  23.749  17.728  1.00 24.33     0.041 C 
BRANCH   4   5
ATOM      5  CE  LYS A 131      25.445  23.859  17.623  1.00 26.91     0.338 C 
ATOM      6  NZ  LYS A 131      24.829  22.512  17.574  1.00 27.40     0.618 N 
ENDBRANCH   4   5
ENDBRANCH   3   4
ENDBRANCH   2   3
ENDBRANCH   1   2
END_RES LYS A 131
BEGIN_RES LYS A 135
REMARK  4 active torsions:
REMARK  status: ('A' for Active; 'I' for Inactive)
REMARK    5  A    between atoms: CA   and  CB  
REMARK    6  A    between atoms: CB   and  CG  
REMARK    7  A    between atoms: CG   and  CD  
REMARK    8  A    between atoms: CD   and  CE  
ROOT
ATOM      7  CA  LYS A 135      33.193  34.663   9.290  1.00 25.02     0.186 C 
ENDROOT
BRANCH   7   8
ATOM      8  CB  LYS A 135      32.060  35.360  10.034  1.00 26.63     0.034 C 
BRANCH   8   9
ATOM      9  CG  LYS A 135      30.702  34.773   9.750  1.00 29.45     0.005 C 
BRANCH   9  10
ATOM     10  CD  LYS A 135      30.545  34.475   8.266  1.00 32.00     0.041 C 
BRANCH  10  11
ATOM     11  CE  LYS A 135      29.403  35.282   7.678  1.00 34.25     0.338 C 
ATOM     12  NZ  LYS A 135      28.085  34.728   8.095  1.00 35.99     0.618 N 
ENDBRANCH  10  11
ENDBRANCH   9  10
ENDBRANCH   8   9
ENDBRANCH   7   8
END_RES LYS A 135
