REMARK VINA RESULT:    -5.097      8.452     14.959
REMARK INTER + INTRA:         -15.922
REMARK INTER:                  -9.265
REMARK INTRA:                  -6.658
REMARK UNBOUND:                -5.909
REMARK SMILES CC(=O)N[C@@H]1[C@@H](O)C[C@](O)(C(=O)O)O[C@H]1C(O)[C@H](O)CNC(=O)OCc1cn(CCNC(=O)NCc2ccco2)nn1
REMARK SMILES IDX 24 1 22 2 21 3 23 5 20 6 18 7 16 8 15 9 9 10 8 11 14 12 6 13
REMARK SMILES IDX 5 14 10 15 11 17 12 18 13 19 7 21 4 23 2 24 1 26 3 27 17 28
REMARK SMILES IDX 19 30 25 32 26 33 27 34 42 35 28 36 41 37 29 38 30 39 31 40
REMARK SMILES IDX 32 41 33 43 34 44 35 46 36 47 37 48 40 49 38 50 39 51
REMARK H PARENT 21 4 10 16 13 20 7 22 4 25 17 29 19 31 31 42 34 45
REMARK Flexibility Score: inf
ROOT
ATOM      1  O   UNL     1      29.373  35.069   9.442  1.00  0.00    -0.443 OA
ENDROOT
BRANCH   1   2
ATOM      2  C   UNL     1      28.764  35.205   8.199  1.00  0.00     0.407 C 
ATOM      3  N   UNL     1      29.318  35.900   7.115  1.00  0.00    -0.319 N 
ATOM      4  H   UNL     1      30.238  36.353   7.211  1.00  0.00     0.167 HD
ATOM      5  O   UNL     1      27.637  34.663   8.047  1.00  0.00    -0.225 OA
BRANCH   3   6
ATOM      6  C   UNL     1      28.588  35.981   5.846  1.00  0.00     0.154 C 
BRANCH   6   7
ATOM      7  C   UNL     1      28.736  37.371   5.288  1.00  0.00     0.165 C 
BRANCH   7   8
ATOM      8  C   UNL     1      29.151  38.369   6.333  1.00  0.00     0.176 C 
BRANCH   8   9
ATOM      9  C   UNL     1      30.023  39.460   5.782  1.00  0.00     0.178 C 
ATOM     10  C   UNL     1      31.994  40.581   6.344  1.00  0.00     0.269 C 
ATOM     11  C   UNL     1      31.593  41.773   5.538  1.00  0.00     0.112 C 
ATOM     12  O   UNL     1      30.978  39.783   6.762  1.00  0.00    -0.332 OA
ATOM     13  C   UNL     1      30.309  41.661   4.822  1.00  0.00     0.145 C 
ATOM     14  C   UNL     1      29.306  40.762   5.521  1.00  0.00     0.142 C 
BRANCH  10  15
ATOM     15  O   UNL     1      32.592  41.107   7.519  1.00  0.00    -0.357 OA
ATOM     16  H   UNL     1      33.238  41.821   7.294  1.00  0.00     0.214 HD
ENDBRANCH  10  15
BRANCH  10  17
ATOM     17  C   UNL     1      33.035  39.758   5.680  1.00  0.00     0.364 C 
ATOM     18  O   UNL     1      33.208  39.794   4.429  1.00  0.00    -0.246 OA
BRANCH  17  19
ATOM     19  O   UNL     1      33.875  38.901   6.381  1.00  0.00    -0.477 OA
ATOM     20  H   UNL     1      33.755  38.780   7.381  1.00  0.00     0.296 HD
ENDBRANCH  17  19
ENDBRANCH  10  17
BRANCH  13  21
ATOM     21  O   UNL     1      29.748  42.943   4.642  1.00  0.00    -0.391 OA
ATOM     22  H   UNL     1      29.162  43.190   5.386  1.00  0.00     0.211 HD
ENDBRANCH  13  21
BRANCH  14  23
ATOM     23  N   UNL     1      28.103  40.666   4.768  1.00  0.00    -0.348 N 
ATOM     24  C   UNL     1      26.900  41.208   5.320  1.00  0.00     0.217 C 
ATOM     25  H   UNL     1      28.027  40.233   3.824  1.00  0.00     0.163 HD
ATOM     26  C   UNL     1      25.600  41.160   4.618  1.00  0.00     0.114 C 
ATOM     27  O   UNL     1      26.927  41.758   6.460  1.00  0.00    -0.275 OA
ENDBRANCH  14  23
ENDBRANCH   8   9
BRANCH   8  28
ATOM     28  O   UNL     1      28.104  38.823   7.115  1.00  0.00    -0.388 OA
ATOM     29  H   UNL     1      28.276  38.766   8.089  1.00  0.00     0.211 HD
ENDBRANCH   8  28
ENDBRANCH   7   8
BRANCH   7  30
ATOM     30  O   UNL     1      27.427  37.764   4.898  1.00  0.00    -0.388 OA
ATOM     31  H   UNL     1      27.558  38.143   3.975  1.00  0.00     0.211 HD
ENDBRANCH   7  30
ENDBRANCH   6   7
ENDBRANCH   3   6
ENDBRANCH   1   2
BRANCH   1  32
ATOM     32  C   UNL     1      28.756  35.545  10.620  1.00  0.00     0.294 C 
BRANCH  32  33
ATOM     33  C   UNL     1      28.673  37.020  10.536  1.00  0.00     0.120 A 
ATOM     34  C   UNL     1      27.795  37.836  11.196  1.00  0.00     0.138 A 
ATOM     35  N   UNL     1      29.455  37.816   9.790  1.00  0.00    -0.132 NA
ATOM     36  N   UNL     1      28.067  39.103  10.834  1.00  0.00    -0.250 N 
ATOM     37  N   UNL     1      29.077  39.086   9.979  1.00  0.00    -0.067 NA
BRANCH  36  38
ATOM     38  C   UNL     1      27.383  40.316  11.289  1.00  0.00     0.167 C 
BRANCH  38  39
ATOM     39  C   UNL     1      27.006  41.108  10.064  1.00  0.00     0.141 C 
BRANCH  39  40
ATOM     40  N   UNL     1      26.572  40.208   9.027  1.00  0.00    -0.336 N 
ATOM     41  C   UNL     1      25.217  39.924   8.734  1.00  0.00     0.315 C 
ATOM     42  H   UNL     1      27.291  39.712   8.428  1.00  0.00     0.165 HD
ATOM     43  O   UNL     1      24.322  40.498   9.424  1.00  0.00    -0.249 OA
ATOM     44  N   UNL     1      24.890  39.019   7.691  1.00  0.00    -0.331 N 
ATOM     45  H   UNL     1      25.601  38.536   7.113  1.00  0.00     0.165 HD
BRANCH  44  46
ATOM     46  C   UNL     1      23.494  38.754   7.421  1.00  0.00     0.193 C 
BRANCH  46  47
ATOM     47  C   UNL     1      23.139  37.454   8.029  1.00  0.00     0.122 A 
ATOM     48  C   UNL     1      21.930  36.801   7.811  1.00  0.00     0.047 A 
ATOM     49  O   UNL     1      23.861  36.736   8.830  1.00  0.00    -0.467 OA
ATOM     50  C   UNL     1      22.002  35.641   8.551  1.00  0.00     0.042 A 
ATOM     51  C   UNL     1      23.235  35.652   9.170  1.00  0.00     0.195 A 
ENDBRANCH  46  47
ENDBRANCH  44  46
ENDBRANCH  39  40
ENDBRANCH  38  39
ENDBRANCH  36  38
ENDBRANCH  32  33
ENDBRANCH   1  32
TORSDOF 19
BEGIN_RES LYS A 131
REMARK  4 active torsions:
REMARK  status: ('A' for Active; 'I' for Inactive)
REMARK    1  A    between atoms: CA   and  CB  
REMARK    2  A    between atoms: CB   and  CG  
REMARK    3  A    between atoms: CG   and  CD  
REMARK    4  A    between atoms: CD   and  CE  
ROOT
ATOM      1  CA  LYS A 131      29.867  25.555  16.977  1.00 20.52     0.186 C 
ENDROOT
BRANCH   1   2
ATOM      2  CB  LYS A 131      28.345  25.722  17.026  1.00 20.94     0.034 C 
BRANCH   2   3
ATOM      3  CG  LYS A 131      27.599  24.470  16.592  1.00 22.96     0.005 C 
BRANCH   3   4
ATOM      4  CD  LYS A 131      26.993  23.739  17.758  1.00 24.33     0.041 C 
BRANCH   4   5
ATOM      5  CE  LYS A 131      26.218  24.722  18.629  1.00 26.91     0.338 C 
ATOM      6  NZ  LYS A 131      25.474  24.002  19.689  1.00 27.40     0.618 N 
ENDBRANCH   4   5
ENDBRANCH   3   4
ENDBRANCH   2   3
ENDBRANCH   1   2
END_RES LYS A 131
BEGIN_RES LYS A 135
REMARK  4 active torsions:
REMARK  status: ('A' for Active; 'I' for Inactive)
REMARK    5  A    between atoms: CA   and  CB  
REMARK    6  A    between atoms: CB   and  CG  
REMARK    7  A    between atoms: CG   and  CD  
REMARK    8  A    between atoms: CD   and  CE  
ROOT
ATOM      7  CA  LYS A 135      33.193  34.663   9.290  1.00 25.02     0.186 C 
ENDROOT
BRANCH   7   8
ATOM      8  CB  LYS A 135      32.060  35.360  10.034  1.00 26.63     0.034 C 
BRANCH   8   9
ATOM      9  CG  LYS A 135      32.534  36.271  11.137  1.00 29.45     0.005 C 
BRANCH   9  10
ATOM     10  CD  LYS A 135      32.072  35.758  12.492  1.00 32.00     0.041 C 
BRANCH  10  11
ATOM     11  CE  LYS A 135      31.336  36.846  13.250  1.00 34.25     0.338 C 
ATOM     12  NZ  LYS A 135      31.441  38.155  12.548  1.00 35.99     0.618 N 
ENDBRANCH  10  11
ENDBRANCH   9  10
ENDBRANCH   8   9
ENDBRANCH   7   8
END_RES LYS A 135
