REMARK VINA RESULT:    -4.268      8.519     15.578
REMARK INTER + INTRA:         -13.174
REMARK INTER:                  -8.788
REMARK INTRA:                  -4.385
REMARK UNBOUND:                -5.786
REMARK SMILES CC(=O)N[C@@H]1[C@@H](O)C[C@](O)(C(=O)O)O[C@H]1C(O)[C@H](O)CNC(=O)OCc1cn(C2CCN(C)CC2)nn1
REMARK SMILES IDX 20 1 18 2 16 3 15 4 9 5 8 6 14 7 6 8 5 9 10 10 11 12 12 13
REMARK SMILES IDX 13 14 7 16 4 18 2 19 1 21 3 22 17 23 19 25 21 27 22 28 23 30
REMARK SMILES IDX 24 31 25 32 26 33 27 34 37 35 28 36 36 37 29 38 30 39 35 40
REMARK SMILES IDX 31 41 34 42 32 43 33 44
REMARK H PARENT 10 11 13 15 7 17 4 20 17 24 19 26 21 29
REMARK Flexibility Score: inf
ROOT
ATOM      1  C   UNL     1      27.673  35.628   6.853  1.00  0.00     0.154 C 
ENDROOT
BRANCH   1   2
ATOM      2  C   UNL     1      27.460  36.851   6.024  1.00  0.00     0.165 C 
BRANCH   2   3
ATOM      3  C   UNL     1      28.555  37.880   6.212  1.00  0.00     0.176 C 
BRANCH   3   4
ATOM      4  C   UNL     1      28.002  39.265   5.953  1.00  0.00     0.178 C 
ATOM      5  C   UNL     1      26.785  40.558   4.436  1.00  0.00     0.269 C 
ATOM      6  C   UNL     1      27.772  41.679   4.563  1.00  0.00     0.112 C 
ATOM      7  O   UNL     1      27.217  39.331   4.845  1.00  0.00    -0.332 OA
ATOM      8  C   UNL     1      28.496  41.631   5.882  1.00  0.00     0.145 C 
ATOM      9  C   UNL     1      29.130  40.246   5.986  1.00  0.00     0.142 C 
BRANCH   5  10
ATOM     10  O   UNL     1      26.358  40.519   3.079  1.00  0.00    -0.357 OA
ATOM     11  H   UNL     1      26.887  39.866   2.559  1.00  0.00     0.214 HD
ENDBRANCH   5  10
BRANCH   5  12
ATOM     12  C   UNL     1      25.589  40.899   5.249  1.00  0.00     0.364 C 
ATOM     13  O   UNL     1      25.115  42.062   5.205  1.00  0.00    -0.246 OA
BRANCH  12  14
ATOM     14  O   UNL     1      24.929  40.009   6.081  1.00  0.00    -0.477 OA
ATOM     15  H   UNL     1      25.333  39.114   6.360  1.00  0.00     0.296 HD
ENDBRANCH  12  14
ENDBRANCH   5  12
BRANCH   8  16
ATOM     16  O   UNL     1      29.495  42.605   5.957  1.00  0.00    -0.391 OA
ATOM     17  H   UNL     1      29.986  42.706   5.112  1.00  0.00     0.211 HD
ENDBRANCH   8  16
BRANCH   9  18
ATOM     18  N   UNL     1      29.767  40.230   7.309  1.00  0.00    -0.348 N 
ATOM     19  C   UNL     1      31.129  39.913   7.483  1.00  0.00     0.217 C 
ATOM     20  H   UNL     1      29.167  40.464   8.111  1.00  0.00     0.163 HD
ATOM     21  C   UNL     1      31.767  39.902   8.846  1.00  0.00     0.114 C 
ATOM     22  O   UNL     1      31.814  39.636   6.465  1.00  0.00    -0.275 OA
ENDBRANCH   9  18
ENDBRANCH   3   4
BRANCH   3  23
ATOM     23  O   UNL     1      29.607  37.564   5.384  1.00  0.00    -0.388 OA
ATOM     24  H   UNL     1      30.453  37.951   5.725  1.00  0.00     0.211 HD
ENDBRANCH   3  23
ENDBRANCH   2   3
BRANCH   2  25
ATOM     25  O   UNL     1      26.243  37.448   6.430  1.00  0.00    -0.388 OA
ATOM     26  H   UNL     1      26.335  37.858   7.330  1.00  0.00     0.211 HD
ENDBRANCH   2  25
ENDBRANCH   1   2
BRANCH   1  27
ATOM     27  N   UNL     1      26.710  35.627   7.933  1.00  0.00    -0.319 N 
ATOM     28  C   UNL     1      26.752  34.743   9.045  1.00  0.00     0.407 C 
ATOM     29  H   UNL     1      25.893  36.309   7.954  1.00  0.00     0.167 HD
ATOM     30  O   UNL     1      27.666  33.909   9.121  1.00  0.00    -0.225 OA
BRANCH  28  31
ATOM     31  O   UNL     1      25.803  34.779  10.058  1.00  0.00    -0.443 OA
BRANCH  31  32
ATOM     32  C   UNL     1      25.299  36.013  10.530  1.00  0.00     0.294 C 
BRANCH  32  33
ATOM     33  C   UNL     1      24.106  36.427   9.748  1.00  0.00     0.120 A 
ATOM     34  C   UNL     1      22.797  36.430  10.137  1.00  0.00     0.138 A 
ATOM     35  N   UNL     1      24.112  36.883   8.482  1.00  0.00    -0.132 NA
ATOM     36  N   UNL     1      22.040  36.879   9.121  1.00  0.00    -0.249 N 
ATOM     37  N   UNL     1      22.883  37.148   8.121  1.00  0.00    -0.067 NA
BRANCH  36  38
ATOM     38  C   UNL     1      20.602  37.032   9.133  1.00  0.00     0.111 C 
ATOM     39  C   UNL     1      19.979  36.323  10.314  1.00  0.00     0.043 C 
ATOM     40  C   UNL     1      19.994  36.616   7.827  1.00  0.00     0.043 C 
ATOM     41  C   UNL     1      19.746  34.854  10.049  1.00  0.00     0.086 C 
ATOM     42  C   UNL     1      19.846  35.136   7.667  1.00  0.00     0.086 C 
ATOM     43  N   UNL     1      19.122  34.608   8.783  1.00  0.00    -0.306 NA
ATOM     44  C   UNL     1      17.757  35.045   8.729  1.00  0.00     0.105 C 
ENDBRANCH  36  38
ENDBRANCH  32  33
ENDBRANCH  31  32
ENDBRANCH  28  31
ENDBRANCH   1  27
TORSDOF 15
BEGIN_RES LYS A 131
REMARK  4 active torsions:
REMARK  status: ('A' for Active; 'I' for Inactive)
REMARK    1  A    between atoms: CA   and  CB  
REMARK    2  A    between atoms: CB   and  CG  
REMARK    3  A    between atoms: CG   and  CD  
REMARK    4  A    between atoms: CD   and  CE  
ROOT
ATOM      1  CA  LYS A 131      29.867  25.555  16.977  1.00 20.52     0.186 C 
ENDROOT
BRANCH   1   2
ATOM      2  CB  LYS A 131      28.345  25.722  17.026  1.00 20.94     0.034 C 
BRANCH   2   3
ATOM      3  CG  LYS A 131      27.601  24.402  16.892  1.00 22.96     0.005 C 
BRANCH   3   4
ATOM      4  CD  LYS A 131      26.166  24.514  17.328  1.00 24.33     0.041 C 
BRANCH   4   5
ATOM      5  CE  LYS A 131      25.978  23.780  18.652  1.00 26.91     0.338 C 
ATOM      6  NZ  LYS A 131      24.971  22.702  18.509  1.00 27.40     0.618 N 
ENDBRANCH   4   5
ENDBRANCH   3   4
ENDBRANCH   2   3
ENDBRANCH   1   2
END_RES LYS A 131
BEGIN_RES LYS A 135
REMARK  4 active torsions:
REMARK  status: ('A' for Active; 'I' for Inactive)
REMARK    5  A    between atoms: CA   and  CB  
REMARK    6  A    between atoms: CB   and  CG  
REMARK    7  A    between atoms: CG   and  CD  
REMARK    8  A    between atoms: CD   and  CE  
ROOT
ATOM      7  CA  LYS A 135      33.193  34.663   9.290  1.00 25.02     0.186 C 
ENDROOT
BRANCH   7   8
ATOM      8  CB  LYS A 135      32.060  35.360  10.034  1.00 26.63     0.034 C 
BRANCH   8   9
ATOM      9  CG  LYS A 135      30.760  35.379   9.271  1.00 29.45     0.005 C 
BRANCH   9  10
ATOM     10  CD  LYS A 135      30.020  36.687   9.506  1.00 32.00     0.041 C 
BRANCH  10  11
ATOM     11  CE  LYS A 135      29.925  36.986  10.989  1.00 34.25     0.338 C 
ATOM     12  NZ  LYS A 135      28.849  36.181  11.631  1.00 35.99     0.618 N 
ENDBRANCH  10  11
ENDBRANCH   9  10
ENDBRANCH   8   9
ENDBRANCH   7   8
END_RES LYS A 135
