REMARK VINA RESULT:    -4.752      1.907      3.661
REMARK INTER + INTRA:         -13.388
REMARK INTER:                  -7.605
REMARK INTRA:                  -5.782
REMARK UNBOUND:                -5.164
REMARK SMILES CC(=O)N[C@@H]1[C@@H](O)C[C@](O)(C(=O)O)O[C@H]1C(O)[C@H](O)CNC(=O)OCc1cn(-c2cccnc2)nn1
REMARK SMILES IDX 20 1 18 2 16 3 15 4 9 5 8 6 14 7 6 8 5 9 10 10 11 12 12 13
REMARK SMILES IDX 13 14 7 16 4 18 2 19 1 21 3 22 17 23 19 25 21 27 22 28 23 30
REMARK SMILES IDX 24 31 25 32 26 33 27 34 36 35 28 36 35 37 29 38 30 39 34 40
REMARK SMILES IDX 31 41 33 42 32 43
REMARK H PARENT 10 11 13 15 7 17 4 20 17 24 19 26 21 29
REMARK Flexibility Score: inf
ROOT
ATOM      1  C   UNL     1      26.540  31.253  20.522  1.00  0.00     0.154 C 
ENDROOT
BRANCH   1   2
ATOM      2  C   UNL     1      27.977  31.242  20.894  1.00  0.00     0.165 C 
BRANCH   2   3
ATOM      3  C   UNL     1      28.771  30.206  20.192  1.00  0.00     0.176 C 
BRANCH   3   4
ATOM      4  C   UNL     1      29.796  29.454  20.966  1.00  0.00     0.178 C 
ATOM      5  C   UNL     1      31.958  29.296  21.631  1.00  0.00     0.269 C 
ATOM      6  C   UNL     1      31.716  27.932  22.173  1.00  0.00     0.112 C 
ATOM      7  O   UNL     1      31.087  29.735  20.652  1.00  0.00    -0.332 OA
ATOM      8  C   UNL     1      30.303  27.466  22.226  1.00  0.00     0.145 C 
ATOM      9  C   UNL     1      29.555  27.970  20.959  1.00  0.00     0.142 C 
BRANCH   5  10
ATOM     10  O   UNL     1      33.233  29.221  20.984  1.00  0.00    -0.357 OA
ATOM     11  H   UNL     1      33.492  28.275  21.075  1.00  0.00     0.214 HD
ENDBRANCH   5  10
BRANCH   5  12
ATOM     12  C   UNL     1      32.113  30.321  22.688  1.00  0.00     0.364 C 
ATOM     13  O   UNL     1      32.360  29.965  23.867  1.00  0.00    -0.246 OA
BRANCH  12  14
ATOM     14  O   UNL     1      32.006  31.690  22.484  1.00  0.00    -0.477 OA
ATOM     15  H   UNL     1      32.527  32.281  23.140  1.00  0.00     0.296 HD
ENDBRANCH  12  14
ENDBRANCH   5  12
BRANCH   8  16
ATOM     16  O   UNL     1      30.234  26.074  22.153  1.00  0.00    -0.391 OA
ATOM     17  H   UNL     1      29.854  25.809  21.279  1.00  0.00     0.211 HD
ENDBRANCH   8  16
BRANCH   9  18
ATOM     18  N   UNL     1      28.163  27.725  21.225  1.00  0.00    -0.348 N 
ATOM     19  C   UNL     1      27.245  27.256  20.258  1.00  0.00     0.217 C 
ATOM     20  H   UNL     1      27.791  27.899  22.196  1.00  0.00     0.163 HD
ATOM     21  C   UNL     1      25.829  27.034  20.631  1.00  0.00     0.114 C 
ATOM     22  O   UNL     1      27.640  27.032  19.091  1.00  0.00    -0.275 OA
ENDBRANCH   9  18
ENDBRANCH   3   4
BRANCH   3  23
ATOM     23  O   UNL     1      29.136  30.535  18.901  1.00  0.00    -0.388 OA
ATOM     24  H   UNL     1      28.624  31.236  18.469  1.00  0.00     0.211 HD
ENDBRANCH   3  23
ENDBRANCH   2   3
BRANCH   2  25
ATOM     25  O   UNL     1      28.109  30.969  22.278  1.00  0.00    -0.388 OA
ATOM     26  H   UNL     1      28.463  30.060  22.356  1.00  0.00     0.211 HD
ENDBRANCH   2  25
ENDBRANCH   1   2
BRANCH   1  27
ATOM     27  N   UNL     1      26.154  30.443  19.405  1.00  0.00    -0.319 N 
ATOM     28  C   UNL     1      25.201  30.763  18.446  1.00  0.00     0.407 C 
ATOM     29  H   UNL     1      26.640  29.500  19.286  1.00  0.00     0.167 HD
ATOM     30  O   UNL     1      24.568  31.826  18.488  1.00  0.00    -0.225 OA
BRANCH  28  31
ATOM     31  O   UNL     1      24.885  29.915  17.370  1.00  0.00    -0.443 OA
BRANCH  31  32
ATOM     32  C   UNL     1      25.303  30.228  16.061  1.00  0.00     0.294 C 
BRANCH  32  33
ATOM     33  C   UNL     1      26.763  30.416  15.983  1.00  0.00     0.121 A 
ATOM     34  C   UNL     1      27.354  31.625  15.649  1.00  0.00     0.144 A 
ATOM     35  N   UNL     1      27.773  29.571  16.188  1.00  0.00    -0.131 NA
ATOM     36  N   UNL     1      28.689  31.471  15.664  1.00  0.00    -0.219 N 
ATOM     37  N   UNL     1      28.927  30.227  15.991  1.00  0.00    -0.062 NA
BRANCH  36  38
ATOM     38  C   UNL     1      29.677  32.466  15.379  1.00  0.00     0.085 A 
ATOM     39  C   UNL     1      30.996  32.304  15.768  1.00  0.00     0.031 A 
ATOM     40  C   UNL     1      29.322  33.616  14.704  1.00  0.00     0.139 A 
ATOM     41  C   UNL     1      31.924  33.303  15.467  1.00  0.00     0.022 A 
ATOM     42  N   UNL     1      30.249  34.574  14.425  1.00  0.00    -0.262 NA
ATOM     43  C   UNL     1      31.537  34.444  14.789  1.00  0.00     0.111 A 
ENDBRANCH  36  38
ENDBRANCH  32  33
ENDBRANCH  31  32
ENDBRANCH  28  31
ENDBRANCH   1  27
TORSDOF 15
BEGIN_RES LYS A 131
REMARK  4 active torsions:
REMARK  status: ('A' for Active; 'I' for Inactive)
REMARK    1  A    between atoms: CA   and  CB  
REMARK    2  A    between atoms: CB   and  CG  
REMARK    3  A    between atoms: CG   and  CD  
REMARK    4  A    between atoms: CD   and  CE  
ROOT
ATOM      1  CA  LYS A 131      29.867  25.555  16.977  1.00 20.52     0.186 C 
ENDROOT
BRANCH   1   2
ATOM      2  CB  LYS A 131      28.345  25.722  17.026  1.00 20.94     0.034 C 
BRANCH   2   3
ATOM      3  CG  LYS A 131      27.599  24.435  16.710  1.00 22.96     0.005 C 
BRANCH   3   4
ATOM      4  CD  LYS A 131      26.875  23.891  17.911  1.00 24.33     0.041 C 
BRANCH   4   5
ATOM      5  CE  LYS A 131      25.478  24.497  17.981  1.00 26.91     0.338 C 
ATOM      6  NZ  LYS A 131      24.591  23.877  16.969  1.00 27.40     0.618 N 
ENDBRANCH   4   5
ENDBRANCH   3   4
ENDBRANCH   2   3
ENDBRANCH   1   2
END_RES LYS A 131
BEGIN_RES LYS A 135
REMARK  4 active torsions:
REMARK  status: ('A' for Active; 'I' for Inactive)
REMARK    5  A    between atoms: CA   and  CB  
REMARK    6  A    between atoms: CB   and  CG  
REMARK    7  A    between atoms: CG   and  CD  
REMARK    8  A    between atoms: CD   and  CE  
ROOT
ATOM      7  CA  LYS A 135      33.193  34.663   9.290  1.00 25.02     0.186 C 
ENDROOT
BRANCH   7   8
ATOM      8  CB  LYS A 135      32.060  35.360  10.034  1.00 26.63     0.034 C 
BRANCH   8   9
ATOM      9  CG  LYS A 135      30.791  35.473   9.230  1.00 29.45     0.005 C 
BRANCH   9  10
ATOM     10  CD  LYS A 135      30.221  34.095   8.929  1.00 32.00     0.041 C 
BRANCH  10  11
ATOM     11  CE  LYS A 135      28.716  34.088   9.121  1.00 34.25     0.338 C 
ATOM     12  NZ  LYS A 135      28.032  34.820   8.019  1.00 35.99     0.618 N 
ENDBRANCH  10  11
ENDBRANCH   9  10
ENDBRANCH   8   9
ENDBRANCH   7   8
END_RES LYS A 135
