REMARK VINA RESULT:    -4.014      2.988      5.812
REMARK INTER + INTRA:         -15.560
REMARK INTER:                  -8.721
REMARK INTRA:                  -6.839
REMARK UNBOUND:                -7.438
REMARK SMILES CC(=O)N[C@@H]1[C@@H](O)C[C@](O)(C(=O)O)O[C@H]1C(O)[C@H](O)CNC(=O)OCc1cn([C@@H](CCC(=O)O)C(=O)O)nn1
REMARK SMILES IDX 24 1 22 2 21 3 23 5 20 6 18 7 16 8 15 9 9 10 8 11 14 12 6 13
REMARK SMILES IDX 5 14 10 15 11 17 12 18 13 19 7 21 4 23 2 24 1 26 3 27 17 28
REMARK SMILES IDX 19 30 25 32 26 33 27 34 39 35 28 36 38 37 29 38 30 39 31 40
REMARK SMILES IDX 32 41 33 42 34 43 35 45 36 46 37 47
REMARK H PARENT 21 4 10 16 13 20 7 22 4 25 17 29 19 31 34 44 37 48
REMARK Flexibility Score: inf
ROOT
ATOM      1  O   UNL     1      25.530  36.046  12.736  1.00  0.00    -0.443 OA
ENDROOT
BRANCH   1   2
ATOM      2  C   UNL     1      25.815  36.945  11.701  1.00  0.00     0.407 C 
ATOM      3  N   UNL     1      25.132  36.931  10.476  1.00  0.00    -0.319 N 
ATOM      4  H   UNL     1      24.378  36.172  10.380  1.00  0.00     0.167 HD
ATOM      5  O   UNL     1      26.716  37.772  11.916  1.00  0.00    -0.225 OA
BRANCH   3   6
ATOM      6  C   UNL     1      25.335  37.809   9.360  1.00  0.00     0.154 C 
BRANCH   6   7
ATOM      7  C   UNL     1      26.090  37.149   8.273  1.00  0.00     0.165 C 
BRANCH   7   8
ATOM      8  C   UNL     1      27.545  37.573   8.209  1.00  0.00     0.176 C 
BRANCH   8   9
ATOM      9  C   UNL     1      27.656  39.023   7.729  1.00  0.00     0.178 C 
ATOM     10  C   UNL     1      27.937  38.975   5.406  1.00  0.00     0.269 C 
ATOM     11  C   UNL     1      29.364  38.627   5.722  1.00  0.00     0.112 C 
ATOM     12  O   UNL     1      27.149  39.223   6.488  1.00  0.00    -0.332 OA
ATOM     13  C   UNL     1      29.971  39.373   6.855  1.00  0.00     0.145 C 
ATOM     14  C   UNL     1      29.020  39.584   7.997  1.00  0.00     0.142 C 
BRANCH  10  15
ATOM     15  O   UNL     1      27.410  37.869   4.739  1.00  0.00    -0.357 OA
ATOM     16  H   UNL     1      27.163  38.081   3.815  1.00  0.00     0.214 HD
ENDBRANCH  10  15
BRANCH  10  17
ATOM     17  C   UNL     1      27.897  40.123   4.466  1.00  0.00     0.364 C 
ATOM     18  O   UNL     1      27.053  40.146   3.540  1.00  0.00    -0.246 OA
BRANCH  17  19
ATOM     19  O   UNL     1      28.776  41.197   4.573  1.00  0.00    -0.477 OA
ATOM     20  H   UNL     1      28.610  41.835   5.352  1.00  0.00     0.296 HD
ENDBRANCH  17  19
ENDBRANCH  10  17
BRANCH  13  21
ATOM     21  O   UNL     1      31.068  38.643   7.311  1.00  0.00    -0.391 OA
ATOM     22  H   UNL     1      31.148  37.776   6.830  1.00  0.00     0.211 HD
ENDBRANCH  13  21
BRANCH  14  23
ATOM     23  N   UNL     1      28.875  40.966   8.353  1.00  0.00    -0.348 N 
ATOM     24  C   UNL     1      28.708  41.326   9.713  1.00  0.00     0.217 C 
ATOM     25  H   UNL     1      28.891  41.716   7.602  1.00  0.00     0.163 HD
ATOM     26  C   UNL     1      28.557  42.748  10.083  1.00  0.00     0.114 C 
ATOM     27  O   UNL     1      28.682  40.470  10.640  1.00  0.00    -0.275 OA
ENDBRANCH  14  23
ENDBRANCH   8   9
BRANCH   8  28
ATOM     28  O   UNL     1      28.105  37.465   9.467  1.00  0.00    -0.388 OA
ATOM     29  H   UNL     1      29.083  37.346   9.368  1.00  0.00     0.211 HD
ENDBRANCH   8  28
ENDBRANCH   7   8
BRANCH   7  30
ATOM     30  O   UNL     1      25.460  37.203   7.073  1.00  0.00    -0.388 OA
ATOM     31  H   UNL     1      25.146  38.093   6.795  1.00  0.00     0.211 HD
ENDBRANCH   7  30
ENDBRANCH   6   7
ENDBRANCH   3   6
ENDBRANCH   1   2
BRANCH   1  32
ATOM     32  C   UNL     1      26.040  34.717  12.674  1.00  0.00     0.294 C 
BRANCH  32  33
ATOM     33  C   UNL     1      27.283  34.570  13.419  1.00  0.00     0.120 A 
ATOM     34  C   UNL     1      28.564  34.798  12.995  1.00  0.00     0.139 A 
ATOM     35  N   UNL     1      27.400  34.172  14.695  1.00  0.00    -0.132 NA
ATOM     36  N   UNL     1      29.425  34.546  13.991  1.00  0.00    -0.238 N 
ATOM     37  N   UNL     1      28.683  34.166  15.013  1.00  0.00    -0.066 NA
BRANCH  36  38
ATOM     38  C   UNL     1      30.874  34.631  14.048  1.00  0.00     0.219 C 
BRANCH  38  39
ATOM     39  C   UNL     1      31.306  36.047  14.158  1.00  0.00     0.051 C 
BRANCH  39  40
ATOM     40  C   UNL     1      31.591  36.748  12.884  1.00  0.00     0.125 C 
BRANCH  40  41
ATOM     41  C   UNL     1      30.735  37.908  12.641  1.00  0.00     0.303 C 
ATOM     42  O   UNL     1      30.847  38.977  13.335  1.00  0.00    -0.252 OA
BRANCH  41  43
ATOM     43  O   UNL     1      29.767  37.861  11.635  1.00  0.00    -0.481 OA
ATOM     44  H   UNL     1      29.898  38.466  10.837  1.00  0.00     0.296 HD
ENDBRANCH  41  43
ENDBRANCH  40  41
ENDBRANCH  39  40
ENDBRANCH  38  39
BRANCH  38  45
ATOM     45  C   UNL     1      31.481  33.671  14.953  1.00  0.00     0.328 C 
ATOM     46  O   UNL     1      32.248  33.931  15.879  1.00  0.00    -0.250 OA
BRANCH  45  47
ATOM     47  O   UNL     1      31.166  32.315  14.744  1.00  0.00    -0.480 OA
ATOM     48  H   UNL     1      31.774  31.763  14.165  1.00  0.00     0.296 HD
ENDBRANCH  45  47
ENDBRANCH  38  45
ENDBRANCH  36  38
ENDBRANCH  32  33
ENDBRANCH   1  32
TORSDOF 21
BEGIN_RES LYS A 131
REMARK  4 active torsions:
REMARK  status: ('A' for Active; 'I' for Inactive)
REMARK    1  A    between atoms: CA   and  CB  
REMARK    2  A    between atoms: CB   and  CG  
REMARK    3  A    between atoms: CG   and  CD  
REMARK    4  A    between atoms: CD   and  CE  
ROOT
ATOM      1  CA  LYS A 131      29.867  25.555  16.977  1.00 20.52     0.186 C 
ENDROOT
BRANCH   1   2
ATOM      2  CB  LYS A 131      28.345  25.722  17.026  1.00 20.94     0.034 C 
BRANCH   2   3
ATOM      3  CG  LYS A 131      27.601  24.402  16.894  1.00 22.96     0.005 C 
BRANCH   3   4
ATOM      4  CD  LYS A 131      26.157  24.523  17.297  1.00 24.33     0.041 C 
BRANCH   4   5
ATOM      5  CE  LYS A 131      25.615  23.146  17.667  1.00 26.91     0.338 C 
ATOM      6  NZ  LYS A 131      25.402  23.049  19.130  1.00 27.40     0.618 N 
ENDBRANCH   4   5
ENDBRANCH   3   4
ENDBRANCH   2   3
ENDBRANCH   1   2
END_RES LYS A 131
BEGIN_RES LYS A 135
REMARK  4 active torsions:
REMARK  status: ('A' for Active; 'I' for Inactive)
REMARK    5  A    between atoms: CA   and  CB  
REMARK    6  A    between atoms: CB   and  CG  
REMARK    7  A    between atoms: CG   and  CD  
REMARK    8  A    between atoms: CD   and  CE  
ROOT
ATOM      7  CA  LYS A 135      33.193  34.663   9.290  1.00 25.02     0.186 C 
ENDROOT
BRANCH   7   8
ATOM      8  CB  LYS A 135      32.060  35.360  10.034  1.00 26.63     0.034 C 
BRANCH   8   9
ATOM      9  CG  LYS A 135      30.794  35.481   9.226  1.00 29.45     0.005 C 
BRANCH   9  10
ATOM     10  CD  LYS A 135      30.181  34.111   8.981  1.00 32.00     0.041 C 
BRANCH  10  11
ATOM     11  CE  LYS A 135      28.745  34.246   8.512  1.00 34.25     0.338 C 
ATOM     12  NZ  LYS A 135      27.791  33.829   9.577  1.00 35.99     0.618 N 
ENDBRANCH  10  11
ENDBRANCH   9  10
ENDBRANCH   8   9
ENDBRANCH   7   8
END_RES LYS A 135
