REMARK VINA RESULT:    -5.651      2.591      4.839
REMARK INTER + INTRA:         -15.453
REMARK INTER:                  -8.692
REMARK INTRA:                  -6.761
REMARK UNBOUND:                -5.011
REMARK SMILES CC(=O)N[C@@H]1[C@@H](O)C[C@](O)(C(=O)O)O[C@H]1C(O)[C@H](O)CNC(=O)OCc1cn(CS(=O)(=O)c2ccccc2)nn1
REMARK SMILES IDX 21 1 22 2 23 3 20 5 18 6 16 7 15 8 9 9 8 10 14 11 6 12 5 13
REMARK SMILES IDX 10 14 11 16 12 17 13 18 7 20 4 22 2 23 1 25 3 26 17 27 19 29
REMARK SMILES IDX 24 31 25 32 26 33 27 34 40 35 28 36 39 37 29 38 30 39 31 40
REMARK SMILES IDX 32 41 33 42 34 43 38 44 35 45 37 46 36 47
REMARK H PARENT 21 4 10 15 13 19 7 21 4 24 17 28 19 30
REMARK Flexibility Score: inf
ROOT
ATOM      1  N   UNL     1      27.472  28.734  17.401  1.00  0.00    -0.319 N 
ATOM      2  C   UNL     1      26.555  29.417  16.524  1.00  0.00     0.407 C 
ATOM      3  O   UNL     1      25.343  29.178  16.620  1.00  0.00    -0.225 OA
ATOM      4  H   UNL     1      28.466  28.994  17.261  1.00  0.00     0.167 HD
ENDROOT
BRANCH   1   5
ATOM      5  C   UNL     1      26.981  27.780  18.380  1.00  0.00     0.154 C 
BRANCH   5   6
ATOM      6  C   UNL     1      27.795  27.768  19.630  1.00  0.00     0.165 C 
BRANCH   6   7
ATOM      7  C   UNL     1      28.565  29.020  19.877  1.00  0.00     0.176 C 
BRANCH   7   8
ATOM      8  C   UNL     1      29.151  29.196  21.232  1.00  0.00     0.178 C 
ATOM      9  C   UNL     1      30.867  30.620  20.527  1.00  0.00     0.269 C 
ATOM     10  C   UNL     1      31.717  29.423  20.251  1.00  0.00     0.112 C 
ATOM     11  O   UNL     1      29.778  30.435  21.340  1.00  0.00    -0.332 OA
ATOM     12  C   UNL     1      31.431  28.203  21.035  1.00  0.00     0.145 C 
ATOM     13  C   UNL     1      30.109  28.199  21.750  1.00  0.00     0.142 C 
BRANCH   9  14
ATOM     14  O   UNL     1      30.394  31.191  19.345  1.00  0.00    -0.357 OA
ATOM     15  H   UNL     1      30.768  30.805  18.537  1.00  0.00     0.214 HD
ENDBRANCH   9  14
BRANCH   9  16
ATOM     16  C   UNL     1      31.704  31.653  21.192  1.00  0.00     0.364 C 
ATOM     17  O   UNL     1      32.191  31.414  22.317  1.00  0.00    -0.246 OA
BRANCH  16  18
ATOM     18  O   UNL     1      31.979  32.889  20.621  1.00  0.00    -0.477 OA
ATOM     19  H   UNL     1      31.219  33.548  20.397  1.00  0.00     0.296 HD
ENDBRANCH  16  18
ENDBRANCH   9  16
BRANCH  12  20
ATOM     20  O   UNL     1      31.558  27.087  20.210  1.00  0.00    -0.391 OA
ATOM     21  H   UNL     1      31.873  26.296  20.685  1.00  0.00     0.211 HD
ENDBRANCH  12  20
BRANCH  13  22
ATOM     22  N   UNL     1      30.280  28.436  23.187  1.00  0.00    -0.348 N 
ATOM     23  C   UNL     1      30.258  27.381  24.125  1.00  0.00     0.217 C 
ATOM     24  H   UNL     1      30.423  29.403  23.539  1.00  0.00     0.163 HD
ATOM     25  C   UNL     1      30.431  27.605  25.592  1.00  0.00     0.114 C 
ATOM     26  O   UNL     1      30.085  26.220  23.680  1.00  0.00    -0.275 OA
ENDBRANCH  13  22
ENDBRANCH   7   8
BRANCH   7  27
ATOM     27  O   UNL     1      27.511  30.035  19.874  1.00  0.00    -0.388 OA
ATOM     28  H   UNL     1      27.396  30.293  20.805  1.00  0.00     0.211 HD
ENDBRANCH   7  27
ENDBRANCH   6   7
BRANCH   6  29
ATOM     29  O   UNL     1      28.524  26.619  19.862  1.00  0.00    -0.388 OA
ATOM     30  H   UNL     1      29.495  26.790  19.914  1.00  0.00     0.211 HD
ENDBRANCH   6  29
ENDBRANCH   5   6
ENDBRANCH   1   5
BRANCH   2  31
ATOM     31  O   UNL     1      27.004  30.327  15.586  1.00  0.00    -0.443 OA
BRANCH  31  32
ATOM     32  C   UNL     1      26.661  31.701  15.628  1.00  0.00     0.294 C 
BRANCH  32  33
ATOM     33  C   UNL     1      27.469  32.435  16.612  1.00  0.00     0.120 A 
ATOM     34  C   UNL     1      28.270  33.532  16.463  1.00  0.00     0.139 A 
ATOM     35  N   UNL     1      27.548  32.109  17.920  1.00  0.00    -0.132 NA
ATOM     36  N   UNL     1      28.808  33.836  17.672  1.00  0.00    -0.237 N 
ATOM     37  N   UNL     1      28.349  32.950  18.540  1.00  0.00    -0.066 NA
BRANCH  36  38
ATOM     38  C   UNL     1      29.708  34.932  17.916  1.00  0.00     0.287 C 
BRANCH  38  39
ATOM     39  S   UNL     1      31.378  34.478  17.471  1.00  0.00     0.198 S 
ATOM     40  O   UNL     1      31.458  32.973  17.456  1.00  0.00    -0.222 OA
ATOM     41  O   UNL     1      32.286  35.025  18.508  1.00  0.00    -0.222 OA
BRANCH  39  42
ATOM     42  C   UNL     1      31.730  35.133  15.882  1.00  0.00     0.069 A 
ATOM     43  C   UNL     1      30.981  36.220  15.445  1.00  0.00     0.020 A 
ATOM     44  C   UNL     1      32.718  34.577  15.105  1.00  0.00     0.020 A 
ATOM     45  C   UNL     1      31.259  36.732  14.200  1.00  0.00     0.001 A 
ATOM     46  C   UNL     1      32.956  35.127  13.864  1.00  0.00     0.001 A 
ATOM     47  C   UNL     1      32.249  36.201  13.379  1.00  0.00     0.000 A 
ENDBRANCH  39  42
ENDBRANCH  38  39
ENDBRANCH  36  38
ENDBRANCH  32  33
ENDBRANCH  31  32
ENDBRANCH   2  31
TORSDOF 17
BEGIN_RES LYS A 131
REMARK  4 active torsions:
REMARK  status: ('A' for Active; 'I' for Inactive)
REMARK    1  A    between atoms: CA   and  CB  
REMARK    2  A    between atoms: CB   and  CG  
REMARK    3  A    between atoms: CG   and  CD  
REMARK    4  A    between atoms: CD   and  CE  
ROOT
ATOM      1  CA  LYS A 131      29.867  25.555  16.977  1.00 20.52     0.186 C 
ENDROOT
BRANCH   1   2
ATOM      2  CB  LYS A 131      28.345  25.722  17.026  1.00 20.94     0.034 C 
BRANCH   2   3
ATOM      3  CG  LYS A 131      27.601  24.406  16.863  1.00 22.96     0.005 C 
BRANCH   3   4
ATOM      4  CD  LYS A 131      26.611  24.174  17.971  1.00 24.33     0.041 C 
BRANCH   4   5
ATOM      5  CE  LYS A 131      25.665  23.043  17.581  1.00 26.91     0.338 C 
ATOM      6  NZ  LYS A 131      24.361  23.587  17.136  1.00 27.40     0.618 N 
ENDBRANCH   4   5
ENDBRANCH   3   4
ENDBRANCH   2   3
ENDBRANCH   1   2
END_RES LYS A 131
BEGIN_RES LYS A 135
REMARK  4 active torsions:
REMARK  status: ('A' for Active; 'I' for Inactive)
REMARK    5  A    between atoms: CA   and  CB  
REMARK    6  A    between atoms: CB   and  CG  
REMARK    7  A    between atoms: CG   and  CD  
REMARK    8  A    between atoms: CD   and  CE  
ROOT
ATOM      7  CA  LYS A 135      33.193  34.663   9.290  1.00 25.02     0.186 C 
ENDROOT
BRANCH   7   8
ATOM      8  CB  LYS A 135      32.060  35.360  10.034  1.00 26.63     0.034 C 
BRANCH   8   9
ATOM      9  CG  LYS A 135      30.704  34.762   9.763  1.00 29.45     0.005 C 
BRANCH   9  10
ATOM     10  CD  LYS A 135      30.424  34.721   8.269  1.00 32.00     0.041 C 
BRANCH  10  11
ATOM     11  CE  LYS A 135      29.124  35.435   7.951  1.00 34.25     0.338 C 
ATOM     12  NZ  LYS A 135      28.881  35.478   6.482  1.00 35.99     0.618 N 
ENDBRANCH  10  11
ENDBRANCH   9  10
ENDBRANCH   8   9
ENDBRANCH   7   8
END_RES LYS A 135
