REMARK VINA RESULT:    -4.396      7.872     12.864
REMARK INTER + INTRA:         -14.940
REMARK INTER:                  -7.797
REMARK INTRA:                  -7.143
REMARK UNBOUND:                -5.918
REMARK SMILES CC(=O)N[C@@H]1[C@@H](O)C[C@](O)(C(=O)O)O[C@H]1C(O)[C@H](O)CNC(=O)OCc1cn(CCCCCC(=O)O)nn1
REMARK SMILES IDX 25 1 24 2 22 3 21 4 23 6 20 7 18 8 16 9 15 10 9 11 8 12
REMARK SMILES IDX 14 13 6 14 5 15 10 16 11 18 12 19 13 20 7 22 4 24 2 25 1 27
REMARK SMILES IDX 3 28 17 29 19 31 26 33 27 34 38 35 28 36 37 37 29 38 30 39
REMARK SMILES IDX 31 40 32 41 33 42 34 43 35 44 36 45
REMARK H PARENT 21 5 10 17 13 21 7 23 4 26 17 30 19 32 36 46
REMARK Flexibility Score: inf
ROOT
ATOM      1  C   UNL     1      30.123  33.390  23.366  1.00  0.00     0.294 C 
ENDROOT
BRANCH   1   2
ATOM      2  O   UNL     1      31.029  34.485  23.298  1.00  0.00    -0.443 OA
BRANCH   2   3
ATOM      3  C   UNL     1      31.363  34.974  22.029  1.00  0.00     0.407 C 
ATOM      4  N   UNL     1      30.307  35.218  21.106  1.00  0.00    -0.319 N 
ATOM      5  H   UNL     1      29.322  35.022  21.427  1.00  0.00     0.167 HD
ATOM      6  O   UNL     1      32.575  35.170  21.770  1.00  0.00    -0.225 OA
BRANCH   4   7
ATOM      7  C   UNL     1      30.622  35.712  19.803  1.00  0.00     0.154 C 
BRANCH   7   8
ATOM      8  C   UNL     1      30.754  34.649  18.740  1.00  0.00     0.165 C 
BRANCH   8   9
ATOM      9  C   UNL     1      29.372  34.096  18.451  1.00  0.00     0.176 C 
BRANCH   9  10
ATOM     10  C   UNL     1      29.113  33.784  17.015  1.00  0.00     0.178 C 
ATOM     11  C   UNL     1      28.814  31.496  17.417  1.00  0.00     0.269 C 
ATOM     12  C   UNL     1      30.258  31.309  16.924  1.00  0.00     0.112 C 
ATOM     13  O   UNL     1      28.301  32.671  16.945  1.00  0.00    -0.332 OA
ATOM     14  C   UNL     1      30.359  32.152  15.677  1.00  0.00     0.145 C 
ATOM     15  C   UNL     1      30.299  33.622  16.134  1.00  0.00     0.142 C 
BRANCH  11  16
ATOM     16  O   UNL     1      28.760  31.336  18.800  1.00  0.00    -0.357 OA
ATOM     17  H   UNL     1      29.611  30.927  19.156  1.00  0.00     0.214 HD
ENDBRANCH  11  16
BRANCH  11  18
ATOM     18  C   UNL     1      28.031  30.391  16.808  1.00  0.00     0.364 C 
ATOM     19  O   UNL     1      27.360  30.599  15.753  1.00  0.00    -0.246 OA
BRANCH  18  20
ATOM     20  O   UNL     1      28.053  29.146  17.409  1.00  0.00    -0.477 OA
ATOM     21  H   UNL     1      27.172  28.844  17.849  1.00  0.00     0.296 HD
ENDBRANCH  18  20
ENDBRANCH  11  18
BRANCH  14  22
ATOM     22  O   UNL     1      31.542  31.912  14.977  1.00  0.00    -0.391 OA
ATOM     23  H   UNL     1      32.283  32.007  15.631  1.00  0.00     0.211 HD
ENDBRANCH  14  22
BRANCH  15  24
ATOM     24  N   UNL     1      30.237  34.482  14.960  1.00  0.00    -0.348 N 
ATOM     25  C   UNL     1      31.374  35.093  14.396  1.00  0.00     0.217 C 
ATOM     26  H   UNL     1      29.291  34.648  14.513  1.00  0.00     0.163 HD
ATOM     27  C   UNL     1      31.276  35.980  13.181  1.00  0.00     0.114 C 
ATOM     28  O   UNL     1      32.503  34.883  14.935  1.00  0.00    -0.275 OA
ENDBRANCH  15  24
ENDBRANCH   9  10
BRANCH   9  29
ATOM     29  O   UNL     1      28.504  35.183  18.759  1.00  0.00    -0.388 OA
ATOM     30  H   UNL     1      27.613  34.905  18.441  1.00  0.00     0.211 HD
ENDBRANCH   9  29
ENDBRANCH   8   9
BRANCH   8  31
ATOM     31  O   UNL     1      31.642  33.698  19.191  1.00  0.00    -0.388 OA
ATOM     32  H   UNL     1      31.671  33.668  20.179  1.00  0.00     0.211 HD
ENDBRANCH   8  31
ENDBRANCH   7   8
ENDBRANCH   4   7
ENDBRANCH   2   3
ENDBRANCH   1   2
BRANCH   1  33
ATOM     33  C   UNL     1      30.667  32.348  22.464  1.00  0.00     0.120 A 
ATOM     34  C   UNL     1      31.705  31.506  22.806  1.00  0.00     0.138 A 
ATOM     35  N   UNL     1      30.287  32.037  21.225  1.00  0.00    -0.132 NA
ATOM     36  N   UNL     1      31.898  30.715  21.728  1.00  0.00    -0.252 N 
ATOM     37  N   UNL     1      31.043  31.041  20.784  1.00  0.00    -0.067 NA
BRANCH  36  38
ATOM     38  C   UNL     1      32.934  29.680  21.709  1.00  0.00     0.146 C 
BRANCH  38  39
ATOM     39  C   UNL     1      32.576  28.654  22.752  1.00  0.00     0.024 C 
BRANCH  39  40
ATOM     40  C   UNL     1      32.325  27.281  22.167  1.00  0.00     0.002 C 
BRANCH  40  41
ATOM     41  C   UNL     1      31.354  27.305  21.038  1.00  0.00     0.012 C 
BRANCH  41  42
ATOM     42  C   UNL     1      29.913  27.280  21.471  1.00  0.00     0.122 C 
BRANCH  42  43
ATOM     43  C   UNL     1      28.970  27.715  20.429  1.00  0.00     0.303 C 
ATOM     44  O   UNL     1      28.588  28.894  20.358  1.00  0.00    -0.252 OA
BRANCH  43  45
ATOM     45  O   UNL     1      28.476  26.800  19.483  1.00  0.00    -0.481 OA
ATOM     46  H   UNL     1      29.042  26.549  18.666  1.00  0.00     0.296 HD
ENDBRANCH  43  45
ENDBRANCH  42  43
ENDBRANCH  41  42
ENDBRANCH  40  41
ENDBRANCH  39  40
ENDBRANCH  38  39
ENDBRANCH  36  38
ENDBRANCH   1  33
TORSDOF 21
BEGIN_RES LYS A 131
REMARK  4 active torsions:
REMARK  status: ('A' for Active; 'I' for Inactive)
REMARK    1  A    between atoms: CA   and  CB  
REMARK    2  A    between atoms: CB   and  CG  
REMARK    3  A    between atoms: CG   and  CD  
REMARK    4  A    between atoms: CD   and  CE  
ROOT
ATOM      1  CA  LYS A 131      29.867  25.555  16.977  1.00 20.52     0.186 C 
ENDROOT
BRANCH   1   2
ATOM      2  CB  LYS A 131      28.345  25.722  17.026  1.00 20.94     0.034 C 
BRANCH   2   3
ATOM      3  CG  LYS A 131      27.602  24.398  16.938  1.00 22.96     0.005 C 
BRANCH   3   4
ATOM      4  CD  LYS A 131      26.204  24.495  17.482  1.00 24.33     0.041 C 
BRANCH   4   5
ATOM      5  CE  LYS A 131      25.912  23.281  18.357  1.00 26.91     0.338 C 
ATOM      6  NZ  LYS A 131      25.329  23.703  19.652  1.00 27.40     0.618 N 
ENDBRANCH   4   5
ENDBRANCH   3   4
ENDBRANCH   2   3
ENDBRANCH   1   2
END_RES LYS A 131
BEGIN_RES LYS A 135
REMARK  4 active torsions:
REMARK  status: ('A' for Active; 'I' for Inactive)
REMARK    5  A    between atoms: CA   and  CB  
REMARK    6  A    between atoms: CB   and  CG  
REMARK    7  A    between atoms: CG   and  CD  
REMARK    8  A    between atoms: CD   and  CE  
ROOT
ATOM      7  CA  LYS A 135      33.193  34.663   9.290  1.00 25.02     0.186 C 
ENDROOT
BRANCH   7   8
ATOM      8  CB  LYS A 135      32.060  35.360  10.034  1.00 26.63     0.034 C 
BRANCH   8   9
ATOM      9  CG  LYS A 135      30.709  34.736   9.795  1.00 29.45     0.005 C 
BRANCH   9  10
ATOM     10  CD  LYS A 135      30.484  34.495   8.311  1.00 32.00     0.041 C 
BRANCH  10  11
ATOM     11  CE  LYS A 135      29.101  34.961   7.898  1.00 34.25     0.338 C 
ATOM     12  NZ  LYS A 135      29.077  36.433   7.672  1.00 35.99     0.618 N 
ENDBRANCH  10  11
ENDBRANCH   9  10
ENDBRANCH   8   9
ENDBRANCH   7   8
END_RES LYS A 135
