REMARK VINA RESULT:    -4.563      6.053     11.520
REMARK INTER + INTRA:         -13.683
REMARK INTER:                  -7.970
REMARK INTRA:                  -5.713
REMARK UNBOUND:                -5.786
REMARK SMILES CC(=O)N[C@@H]1[C@@H](O)C[C@](O)(C(=O)O)O[C@H]1C(O)[C@H](O)CNC(=O)OCc1cn(C2CCN(C)CC2)nn1
REMARK SMILES IDX 20 1 18 2 16 3 15 4 9 5 8 6 14 7 6 8 5 9 10 10 11 12 12 13
REMARK SMILES IDX 13 14 7 16 4 18 2 19 1 21 3 22 17 23 19 25 21 27 22 28 23 30
REMARK SMILES IDX 24 31 25 32 26 33 27 34 37 35 28 36 36 37 29 38 30 39 35 40
REMARK SMILES IDX 31 41 34 42 32 43 33 44
REMARK H PARENT 10 11 13 15 7 17 4 20 17 24 19 26 21 29
REMARK Flexibility Score: inf
ROOT
ATOM      1  C   UNL     1      25.745  37.463  11.134  1.00  0.00     0.154 C 
ENDROOT
BRANCH   1   2
ATOM      2  C   UNL     1      26.877  37.377  10.165  1.00  0.00     0.165 C 
BRANCH   2   3
ATOM      3  C   UNL     1      27.639  38.680  10.044  1.00  0.00     0.176 C 
BRANCH   3   4
ATOM      4  C   UNL     1      29.125  38.411  10.149  1.00  0.00     0.178 C 
ATOM      5  C   UNL     1      31.060  38.942  11.344  1.00  0.00     0.269 C 
ATOM      6  C   UNL     1      31.833  39.099  10.070  1.00  0.00     0.112 C 
ATOM      7  O   UNL     1      29.702  38.998  11.230  1.00  0.00    -0.332 OA
ATOM      8  C   UNL     1      31.223  38.298   8.952  1.00  0.00     0.145 C 
ATOM      9  C   UNL     1      29.766  38.739   8.837  1.00  0.00     0.142 C 
BRANCH   5  10
ATOM     10  O   UNL     1      31.533  39.930  12.253  1.00  0.00    -0.357 OA
ATOM     11  H   UNL     1      32.313  39.598  12.763  1.00  0.00     0.214 HD
ENDBRANCH   5  10
BRANCH   5  12
ATOM     12  C   UNL     1      31.401  37.622  11.934  1.00  0.00     0.364 C 
ATOM     13  O   UNL     1      32.518  37.100  11.693  1.00  0.00    -0.246 OA
BRANCH  12  14
ATOM     14  O   UNL     1      30.558  36.892  12.758  1.00  0.00    -0.477 OA
ATOM     15  H   UNL     1      30.867  36.489  13.642  1.00  0.00     0.296 HD
ENDBRANCH  12  14
ENDBRANCH   5  12
BRANCH   8  16
ATOM     16  O   UNL     1      31.873  38.530   7.737  1.00  0.00    -0.391 OA
ATOM     17  H   UNL     1      31.268  38.455   6.966  1.00  0.00     0.211 HD
ENDBRANCH   8  16
BRANCH   9  18
ATOM     18  N   UNL     1      29.203  37.888   7.780  1.00  0.00    -0.348 N 
ATOM     19  C   UNL     1      28.964  38.369   6.478  1.00  0.00     0.217 C 
ATOM     20  H   UNL     1      28.992  36.916   8.038  1.00  0.00     0.163 HD
ATOM     21  C   UNL     1      28.387  37.483   5.406  1.00  0.00     0.114 C 
ATOM     22  O   UNL     1      29.243  39.568   6.221  1.00  0.00    -0.275 OA
ENDBRANCH   9  18
ENDBRANCH   3   4
BRANCH   3  23
ATOM     23  O   UNL     1      27.186  39.549  11.009  1.00  0.00    -0.388 OA
ATOM     24  H   UNL     1      26.216  39.426  11.168  1.00  0.00     0.211 HD
ENDBRANCH   3  23
ENDBRANCH   2   3
BRANCH   2  25
ATOM     25  O   UNL     1      26.340  37.079   8.891  1.00  0.00    -0.388 OA
ATOM     26  H   UNL     1      26.367  37.878   8.301  1.00  0.00     0.211 HD
ENDBRANCH   2  25
ENDBRANCH   1   2
BRANCH   1  27
ATOM     27  N   UNL     1      26.227  37.083  12.445  1.00  0.00    -0.319 N 
ATOM     28  C   UNL     1      26.061  35.795  13.020  1.00  0.00     0.407 C 
ATOM     29  H   UNL     1      26.749  37.770  13.069  1.00  0.00     0.167 HD
ATOM     30  O   UNL     1      25.468  34.916  12.376  1.00  0.00    -0.225 OA
BRANCH  28  31
ATOM     31  O   UNL     1      26.541  35.478  14.284  1.00  0.00    -0.443 OA
BRANCH  31  32
ATOM     32  C   UNL     1      27.041  34.186  14.561  1.00  0.00     0.294 C 
BRANCH  32  33
ATOM     33  C   UNL     1      28.519  34.151  14.416  1.00  0.00     0.120 A 
ATOM     34  C   UNL     1      29.464  34.006  15.391  1.00  0.00     0.138 A 
ATOM     35  N   UNL     1      29.201  34.263  13.260  1.00  0.00    -0.132 NA
ATOM     36  N   UNL     1      30.683  34.031  14.826  1.00  0.00    -0.249 N 
ATOM     37  N   UNL     1      30.482  34.190  13.515  1.00  0.00    -0.067 NA
BRANCH  36  38
ATOM     38  C   UNL     1      31.946  33.908  15.519  1.00  0.00     0.111 C 
ATOM     39  C   UNL     1      31.800  34.202  16.995  1.00  0.00     0.043 C 
ATOM     40  C   UNL     1      33.013  34.739  14.871  1.00  0.00     0.043 C 
ATOM     41  C   UNL     1      31.861  35.680  17.299  1.00  0.00     0.086 C 
ATOM     42  C   UNL     1      32.950  36.193  15.221  1.00  0.00     0.086 C 
ATOM     43  N   UNL     1      32.953  36.338  16.645  1.00  0.00    -0.306 NA
ATOM     44  C   UNL     1      34.236  35.967  17.170  1.00  0.00     0.105 C 
ENDBRANCH  36  38
ENDBRANCH  32  33
ENDBRANCH  31  32
ENDBRANCH  28  31
ENDBRANCH   1  27
TORSDOF 15
BEGIN_RES LYS A 131
REMARK  4 active torsions:
REMARK  status: ('A' for Active; 'I' for Inactive)
REMARK    1  A    between atoms: CA   and  CB  
REMARK    2  A    between atoms: CB   and  CG  
REMARK    3  A    between atoms: CG   and  CD  
REMARK    4  A    between atoms: CD   and  CE  
ROOT
ATOM      1  CA  LYS A 131      29.867  25.555  16.977  1.00 20.52     0.186 C 
ENDROOT
BRANCH   1   2
ATOM      2  CB  LYS A 131      28.345  25.722  17.026  1.00 20.94     0.034 C 
BRANCH   2   3
ATOM      3  CG  LYS A 131      27.601  24.402  16.893  1.00 22.96     0.005 C 
BRANCH   3   4
ATOM      4  CD  LYS A 131      26.283  24.419  17.616  1.00 24.33     0.041 C 
BRANCH   4   5
ATOM      5  CE  LYS A 131      26.282  25.544  18.646  1.00 26.91     0.338 C 
ATOM      6  NZ  LYS A 131      25.548  25.130  19.865  1.00 27.40     0.618 N 
ENDBRANCH   4   5
ENDBRANCH   3   4
ENDBRANCH   2   3
ENDBRANCH   1   2
END_RES LYS A 131
BEGIN_RES LYS A 135
REMARK  4 active torsions:
REMARK  status: ('A' for Active; 'I' for Inactive)
REMARK    5  A    between atoms: CA   and  CB  
REMARK    6  A    between atoms: CB   and  CG  
REMARK    7  A    between atoms: CG   and  CD  
REMARK    8  A    between atoms: CD   and  CE  
ROOT
ATOM      7  CA  LYS A 135      33.193  34.663   9.290  1.00 25.02     0.186 C 
ENDROOT
BRANCH   7   8
ATOM      8  CB  LYS A 135      32.060  35.360  10.034  1.00 26.63     0.034 C 
BRANCH   8   9
ATOM      9  CG  LYS A 135      30.734  34.654   9.911  1.00 29.45     0.005 C 
BRANCH   9  10
ATOM     10  CD  LYS A 135      30.330  34.522   8.451  1.00 32.00     0.041 C 
BRANCH  10  11
ATOM     11  CE  LYS A 135      28.819  34.514   8.315  1.00 34.25     0.338 C 
ATOM     12  NZ  LYS A 135      28.181  33.825   9.471  1.00 35.99     0.618 N 
ENDBRANCH  10  11
ENDBRANCH   9  10
ENDBRANCH   8   9
ENDBRANCH   7   8
END_RES LYS A 135
