REMARK VINA RESULT:    -4.177      3.168      7.432
REMARK INTER + INTRA:         -14.010
REMARK INTER:                  -8.456
REMARK INTRA:                  -5.553
REMARK UNBOUND:                -6.292
REMARK SMILES CC(=O)N[C@@H]1[C@@H](O)C[C@](O)(C(=O)O)O[C@H]1C(O)[C@H](O)CNC(=O)OCc1cn(CCC2OCCO2)nn1
REMARK SMILES IDX 21 1 22 2 23 3 20 5 18 6 16 7 15 8 9 9 8 10 14 11 6 12 5 13
REMARK SMILES IDX 10 14 11 16 12 17 13 18 7 20 4 22 2 23 1 25 3 26 17 27 19 29
REMARK SMILES IDX 24 31 25 32 26 33 27 34 37 35 28 36 36 37 29 38 30 39 31 40
REMARK SMILES IDX 32 41 35 42 33 43 34 44
REMARK H PARENT 21 4 10 15 13 19 7 21 4 24 17 28 19 30
REMARK Flexibility Score: inf
ROOT
ATOM      1  N   UNL     1      28.864  27.555  19.578  1.00  0.00    -0.319 N 
ATOM      2  C   UNL     1      27.511  27.887  19.325  1.00  0.00     0.407 C 
ATOM      3  O   UNL     1      26.711  28.033  20.311  1.00  0.00    -0.225 OA
ATOM      4  H   UNL     1      29.519  27.436  18.788  1.00  0.00     0.167 HD
ENDROOT
BRANCH   1   5
ATOM      5  C   UNL     1      29.310  27.390  20.922  1.00  0.00     0.154 C 
BRANCH   5   6
ATOM      6  C   UNL     1      30.721  27.855  21.153  1.00  0.00     0.165 C 
BRANCH   6   7
ATOM      7  C   UNL     1      30.897  29.328  20.933  1.00  0.00     0.176 C 
BRANCH   7   8
ATOM      8  C   UNL     1      32.057  29.851  21.752  1.00  0.00     0.178 C 
ATOM      9  C   UNL     1      33.349  29.260  23.594  1.00  0.00     0.269 C 
ATOM     10  C   UNL     1      33.303  30.693  24.039  1.00  0.00     0.112 C 
ATOM     11  O   UNL     1      32.381  28.907  22.691  1.00  0.00    -0.332 OA
ATOM     12  C   UNL     1      31.883  31.185  23.847  1.00  0.00     0.145 C 
ATOM     13  C   UNL     1      31.615  31.179  22.348  1.00  0.00     0.142 C 
BRANCH   9  14
ATOM     14  O   UNL     1      33.138  28.464  24.744  1.00  0.00    -0.357 OA
ATOM     15  H   UNL     1      33.598  28.826  25.526  1.00  0.00     0.214 HD
ENDBRANCH   9  14
BRANCH   9  16
ATOM     16  C   UNL     1      34.729  28.910  23.130  1.00  0.00     0.364 C 
ATOM     17  O   UNL     1      35.622  29.754  22.892  1.00  0.00    -0.246 OA
BRANCH  16  18
ATOM     18  O   UNL     1      35.014  27.563  22.958  1.00  0.00    -0.477 OA
ATOM     19  H   UNL     1      35.014  26.882  23.710  1.00  0.00     0.296 HD
ENDBRANCH  16  18
ENDBRANCH   9  16
BRANCH  12  20
ATOM     20  O   UNL     1      31.014  30.266  24.455  1.00  0.00    -0.391 OA
ATOM     21  H   UNL     1      30.099  30.325  24.092  1.00  0.00     0.211 HD
ENDBRANCH  12  20
BRANCH  13  22
ATOM     22  N   UNL     1      32.337  32.294  21.756  1.00  0.00    -0.348 N 
ATOM     23  C   UNL     1      31.727  33.036  20.713  1.00  0.00     0.217 C 
ATOM     24  H   UNL     1      33.308  32.556  22.094  1.00  0.00     0.163 HD
ATOM     25  C   UNL     1      32.382  34.189  20.045  1.00  0.00     0.114 C 
ATOM     26  O   UNL     1      30.567  32.691  20.343  1.00  0.00    -0.275 OA
ENDBRANCH  13  22
ENDBRANCH   7   8
BRANCH   7  27
ATOM     27  O   UNL     1      31.025  29.625  19.577  1.00  0.00    -0.388 OA
ATOM     28  H   UNL     1      31.720  29.104  19.120  1.00  0.00     0.211 HD
ENDBRANCH   7  27
ENDBRANCH   6   7
BRANCH   6  29
ATOM     29  O   UNL     1      31.572  27.153  20.312  1.00  0.00    -0.388 OA
ATOM     30  H   UNL     1      32.073  26.445  20.757  1.00  0.00     0.211 HD
ENDBRANCH   6  29
ENDBRANCH   5   6
ENDBRANCH   1   5
BRANCH   2  31
ATOM     31  O   UNL     1      26.978  28.069  18.081  1.00  0.00    -0.443 OA
BRANCH  31  32
ATOM     32  C   UNL     1      26.678  29.311  17.475  1.00  0.00     0.294 C 
BRANCH  32  33
ATOM     33  C   UNL     1      27.893  30.115  17.203  1.00  0.00     0.120 A 
ATOM     34  C   UNL     1      28.359  30.508  15.970  1.00  0.00     0.138 A 
ATOM     35  N   UNL     1      28.763  30.605  18.101  1.00  0.00    -0.132 NA
ATOM     36  N   UNL     1      29.491  31.221  16.153  1.00  0.00    -0.252 N 
ATOM     37  N   UNL     1      29.713  31.264  17.453  1.00  0.00    -0.067 NA
BRANCH  36  38
ATOM     38  C   UNL     1      30.342  31.850  15.150  1.00  0.00     0.151 C 
BRANCH  38  39
ATOM     39  C   UNL     1      31.400  32.706  15.813  1.00  0.00     0.086 C 
BRANCH  39  40
ATOM     40  C   UNL     1      31.505  34.042  15.159  1.00  0.00     0.251 C 
ATOM     41  O   UNL     1      31.018  35.092  15.926  1.00  0.00    -0.350 OA
ATOM     42  O   UNL     1      30.875  34.124  13.925  1.00  0.00    -0.350 OA
ATOM     43  C   UNL     1      30.711  36.118  15.036  1.00  0.00     0.192 C 
ATOM     44  C   UNL     1      30.534  35.438  13.710  1.00  0.00     0.192 C 
ENDBRANCH  39  40
ENDBRANCH  38  39
ENDBRANCH  36  38
ENDBRANCH  32  33
ENDBRANCH  31  32
ENDBRANCH   2  31
TORSDOF 17
BEGIN_RES LYS A 131
REMARK  4 active torsions:
REMARK  status: ('A' for Active; 'I' for Inactive)
REMARK    1  A    between atoms: CA   and  CB  
REMARK    2  A    between atoms: CB   and  CG  
REMARK    3  A    between atoms: CG   and  CD  
REMARK    4  A    between atoms: CD   and  CE  
ROOT
ATOM      1  CA  LYS A 131      29.867  25.555  16.977  1.00 20.52     0.186 C 
ENDROOT
BRANCH   1   2
ATOM      2  CB  LYS A 131      28.345  25.722  17.026  1.00 20.94     0.034 C 
BRANCH   2   3
ATOM      3  CG  LYS A 131      27.599  24.477  16.570  1.00 22.96     0.005 C 
BRANCH   3   4
ATOM      4  CD  LYS A 131      27.024  23.707  17.726  1.00 24.33     0.041 C 
BRANCH   4   5
ATOM      5  CE  LYS A 131      26.230  24.651  18.623  1.00 26.91     0.338 C 
ATOM      6  NZ  LYS A 131      24.793  24.621  18.263  1.00 27.40     0.618 N 
ENDBRANCH   4   5
ENDBRANCH   3   4
ENDBRANCH   2   3
ENDBRANCH   1   2
END_RES LYS A 131
BEGIN_RES LYS A 135
REMARK  4 active torsions:
REMARK  status: ('A' for Active; 'I' for Inactive)
REMARK    5  A    between atoms: CA   and  CB  
REMARK    6  A    between atoms: CB   and  CG  
REMARK    7  A    between atoms: CG   and  CD  
REMARK    8  A    between atoms: CD   and  CE  
ROOT
ATOM      7  CA  LYS A 135      33.193  34.663   9.290  1.00 25.02     0.186 C 
ENDROOT
BRANCH   7   8
ATOM      8  CB  LYS A 135      32.060  35.360  10.034  1.00 26.63     0.034 C 
BRANCH   8   9
ATOM      9  CG  LYS A 135      30.765  35.394   9.264  1.00 29.45     0.005 C 
BRANCH   9  10
ATOM     10  CD  LYS A 135      29.727  34.496   9.919  1.00 32.00     0.041 C 
BRANCH  10  11
ATOM     11  CE  LYS A 135      28.634  34.137   8.932  1.00 34.25     0.338 C 
ATOM     12  NZ  LYS A 135      27.376  33.764   9.636  1.00 35.99     0.618 N 
ENDBRANCH  10  11
ENDBRANCH   9  10
ENDBRANCH   8   9
ENDBRANCH   7   8
END_RES LYS A 135
