REMARK VINA RESULT:    -5.121      2.698      5.761
REMARK INTER + INTRA:         -16.982
REMARK INTER:                 -10.269
REMARK INTRA:                  -6.713
REMARK UNBOUND:                -6.771
REMARK SMILES CC(=O)N[C@@H]1[C@@H](O)C[C@](O)(C(=O)O)O[C@H]1C(O)[C@H](O)CNC(=O)OCc1cn(CC(O)CCc2ccccc2)nn1
REMARK SMILES IDX 24 1 22 2 21 3 23 5 20 6 18 7 16 8 15 9 9 10 8 11 14 12 6 13
REMARK SMILES IDX 5 14 10 15 11 17 12 18 13 19 7 21 4 23 2 24 1 26 3 27 17 28
REMARK SMILES IDX 19 30 25 32 26 33 27 34 41 35 28 36 40 37 29 38 30 39 31 40
REMARK SMILES IDX 32 42 33 43 34 44 35 45 39 46 36 47 38 48 37 49
REMARK H PARENT 21 4 10 16 13 20 7 22 4 25 17 29 19 31 31 41
REMARK Flexibility Score: inf
ROOT
ATOM      1  O   UNL     1      31.248  38.639   8.689  1.00  0.00    -0.443 OA
ENDROOT
BRANCH   1   2
ATOM      2  C   UNL     1      30.883  38.982   7.399  1.00  0.00     0.407 C 
ATOM      3  N   UNL     1      29.705  38.464   6.821  1.00  0.00    -0.319 N 
ATOM      4  H   UNL     1      29.111  37.819   7.374  1.00  0.00     0.167 HD
ATOM      5  O   UNL     1      31.601  39.761   6.732  1.00  0.00    -0.225 OA
BRANCH   3   6
ATOM      6  C   UNL     1      29.284  38.802   5.469  1.00  0.00     0.154 C 
BRANCH   6   7
ATOM      7  C   UNL     1      27.773  38.734   5.341  1.00  0.00     0.165 C 
BRANCH   7   8
ATOM      8  C   UNL     1      27.170  39.004   6.709  1.00  0.00     0.176 C 
BRANCH   8   9
ATOM      9  C   UNL     1      26.500  40.382   6.729  1.00  0.00     0.178 C 
ATOM     10  C   UNL     1      28.071  42.049   7.179  1.00  0.00     0.269 C 
ATOM     11  C   UNL     1      27.944  41.663   8.611  1.00  0.00     0.112 C 
ATOM     12  O   UNL     1      27.296  41.383   6.299  1.00  0.00    -0.332 OA
ATOM     13  C   UNL     1      26.548  41.387   9.043  1.00  0.00     0.145 C 
ATOM     14  C   UNL     1      25.788  40.572   8.031  1.00  0.00     0.142 C 
BRANCH  10  15
ATOM     15  O   UNL     1      29.424  41.842   6.815  1.00  0.00    -0.357 OA
ATOM     16  H   UNL     1      29.670  42.475   6.094  1.00  0.00     0.214 HD
ENDBRANCH  10  15
BRANCH  10  17
ATOM     17  C   UNL     1      27.855  43.537   7.089  1.00  0.00     0.364 C 
ATOM     18  O   UNL     1      28.738  44.373   7.393  1.00  0.00    -0.246 OA
BRANCH  17  19
ATOM     19  O   UNL     1      26.636  44.063   6.651  1.00  0.00    -0.477 OA
ATOM     20  H   UNL     1      26.513  45.082   6.566  1.00  0.00     0.296 HD
ENDBRANCH  17  19
ENDBRANCH  10  17
BRANCH  13  21
ATOM     21  O   UNL     1      26.588  40.749  10.304  1.00  0.00    -0.391 OA
ATOM     22  H   UNL     1      25.715  40.870  10.784  1.00  0.00     0.211 HD
ENDBRANCH  13  21
BRANCH  14  23
ATOM     23  N   UNL     1      24.447  41.116   7.807  1.00  0.00    -0.348 N 
ATOM     24  C   UNL     1      23.314  40.291   7.755  1.00  0.00     0.217 C 
ATOM     25  H   UNL     1      24.384  42.170   7.686  1.00  0.00     0.163 HD
ATOM     26  C   UNL     1      21.985  40.885   7.525  1.00  0.00     0.114 C 
ATOM     27  O   UNL     1      23.420  39.058   7.900  1.00  0.00    -0.275 OA
ENDBRANCH  14  23
ENDBRANCH   8   9
BRANCH   8  28
ATOM     28  O   UNL     1      26.110  38.089   6.835  1.00  0.00    -0.388 OA
ATOM     29  H   UNL     1      25.369  38.460   7.402  1.00  0.00     0.211 HD
ENDBRANCH   8  28
ENDBRANCH   7   8
BRANCH   7  30
ATOM     30  O   UNL     1      27.389  37.478   4.889  1.00  0.00    -0.388 OA
ATOM     31  H   UNL     1      28.213  36.979   4.674  1.00  0.00     0.211 HD
ENDBRANCH   7  30
ENDBRANCH   6   7
ENDBRANCH   3   6
ENDBRANCH   1   2
BRANCH   1  32
ATOM     32  C   UNL     1      30.891  39.577   9.717  1.00  0.00     0.294 C 
BRANCH  32  33
ATOM     33  C   UNL     1      29.733  39.073  10.486  1.00  0.00     0.120 A 
ATOM     34  C   UNL     1      28.971  37.947  10.279  1.00  0.00     0.138 A 
ATOM     35  N   UNL     1      29.221  39.679  11.572  1.00  0.00    -0.132 NA
ATOM     36  N   UNL     1      28.028  37.898  11.231  1.00  0.00    -0.250 N 
ATOM     37  N   UNL     1      28.191  38.934  11.992  1.00  0.00    -0.067 NA
BRANCH  36  38
ATOM     38  C   UNL     1      26.979  36.870  11.413  1.00  0.00     0.177 C 
BRANCH  38  39
ATOM     39  C   UNL     1      26.223  36.740  10.128  1.00  0.00     0.136 C 
BRANCH  39  40
ATOM     40  O   UNL     1      25.424  37.864   9.875  1.00  0.00    -0.391 OA
ATOM     41  H   UNL     1      26.041  38.644   9.766  1.00  0.00     0.211 HD
ENDBRANCH  39  40
BRANCH  39  42
ATOM     42  C   UNL     1      25.684  35.442   9.792  1.00  0.00     0.038 C 
BRANCH  42  43
ATOM     43  C   UNL     1      26.154  34.750   8.586  1.00  0.00     0.038 C 
BRANCH  43  44
ATOM     44  C   UNL     1      27.597  34.641   8.448  1.00  0.00    -0.048 A 
ATOM     45  C   UNL     1      28.306  33.961   9.446  1.00  0.00     0.004 A 
ATOM     46  C   UNL     1      28.345  35.205   7.462  1.00  0.00     0.004 A 
ATOM     47  C   UNL     1      29.678  33.880   9.414  1.00  0.00     0.000 A 
ATOM     48  C   UNL     1      29.726  35.134   7.411  1.00  0.00     0.000 A 
ATOM     49  C   UNL     1      30.408  34.460   8.403  1.00  0.00     0.000 A 
ENDBRANCH  43  44
ENDBRANCH  42  43
ENDBRANCH  39  42
ENDBRANCH  38  39
ENDBRANCH  36  38
ENDBRANCH  32  33
ENDBRANCH   1  32
TORSDOF 20
BEGIN_RES LYS A 131
REMARK  4 active torsions:
REMARK  status: ('A' for Active; 'I' for Inactive)
REMARK    1  A    between atoms: CA   and  CB  
REMARK    2  A    between atoms: CB   and  CG  
REMARK    3  A    between atoms: CG   and  CD  
REMARK    4  A    between atoms: CD   and  CE  
ROOT
ATOM      1  CA  LYS A 131      29.867  25.555  16.977  1.00 20.52     0.186 C 
ENDROOT
BRANCH   1   2
ATOM      2  CB  LYS A 131      28.345  25.722  17.026  1.00 20.94     0.034 C 
BRANCH   2   3
ATOM      3  CG  LYS A 131      27.601  24.401  16.905  1.00 22.96     0.005 C 
BRANCH   3   4
ATOM      4  CD  LYS A 131      26.161  24.521  17.320  1.00 24.33     0.041 C 
BRANCH   4   5
ATOM      5  CE  LYS A 131      25.967  25.808  18.116  1.00 26.91     0.338 C 
ATOM      6  NZ  LYS A 131      24.717  26.490  17.702  1.00 27.40     0.618 N 
ENDBRANCH   4   5
ENDBRANCH   3   4
ENDBRANCH   2   3
ENDBRANCH   1   2
END_RES LYS A 131
BEGIN_RES LYS A 135
REMARK  4 active torsions:
REMARK  status: ('A' for Active; 'I' for Inactive)
REMARK    5  A    between atoms: CA   and  CB  
REMARK    6  A    between atoms: CB   and  CG  
REMARK    7  A    between atoms: CG   and  CD  
REMARK    8  A    between atoms: CD   and  CE  
ROOT
ATOM      7  CA  LYS A 135      33.193  34.663   9.290  1.00 25.02     0.186 C 
ENDROOT
BRANCH   7   8
ATOM      8  CB  LYS A 135      32.060  35.360  10.034  1.00 26.63     0.034 C 
BRANCH   8   9
ATOM      9  CG  LYS A 135      32.288  35.462  11.520  1.00 29.45     0.005 C 
BRANCH   9  10
ATOM     10  CD  LYS A 135      32.246  36.914  11.971  1.00 32.00     0.041 C 
BRANCH  10  11
ATOM     11  CE  LYS A 135      31.381  37.063  13.208  1.00 34.25     0.338 C 
ATOM     12  NZ  LYS A 135      30.305  36.034  13.236  1.00 35.99     0.618 N 
ENDBRANCH  10  11
ENDBRANCH   9  10
ENDBRANCH   8   9
ENDBRANCH   7   8
END_RES LYS A 135
