REMARK VINA RESULT:    -4.617      5.332     10.193
REMARK INTER + INTRA:         -16.647
REMARK INTER:                 -10.276
REMARK INTRA:                  -6.371
REMARK UNBOUND:                -7.171
REMARK SMILES CCOCCc1c(-c2ccccc2)nc(N)nc1-n1cc(COC(=O)NC[C@@H](O)C(O)[C@@H]2O[C@@](O)(C(=O)O)C[C@H](O)[C@H]2NC(C)=O)nn1
REMARK SMILES IDX 23 1 24 2 26 3 25 5 27 6 28 7 30 8 32 9 34 10 39 11 33 12
REMARK SMILES IDX 40 13 42 14 35 15 36 17 37 18 38 19 41 21 43 23 44 24 45 26
REMARK SMILES IDX 46 27 31 28 29 30 22 32 21 33 20 34 47 35 19 36 48 37 18 38
REMARK SMILES IDX 17 39 6 40 15 41 7 42 14 43 5 44 4 45 3 46 2 47 1 48 16 49
REMARK SMILES IDX 8 52 9 53 13 54 10 55 12 56 11 57
REMARK H PARENT 26 4 35 16 38 20 41 22 43 25 31 29 29 31 16 50 16 51
REMARK Flexibility Score: inf
ROOT
ATOM      1  O   UNL     1      29.195  36.873  19.303  1.00  0.00    -0.443 OA
ENDROOT
BRANCH   1   2
ATOM      2  C   UNL     1      29.278  35.784  20.141  1.00  0.00     0.407 C 
ATOM      3  N   UNL     1      30.444  34.931  20.162  1.00  0.00    -0.319 N 
ATOM      4  H   UNL     1      31.193  35.210  19.498  1.00  0.00     0.167 HD
ATOM      5  O   UNL     1      28.305  35.542  20.899  1.00  0.00    -0.225 OA
BRANCH   3   6
ATOM      6  C   UNL     1      30.478  33.802  21.062  1.00  0.00     0.154 C 
BRANCH   6   7
ATOM      7  C   UNL     1      31.174  32.656  20.340  1.00  0.00     0.165 C 
BRANCH   7   8
ATOM      8  C   UNL     1      30.307  32.305  19.155  1.00  0.00     0.176 C 
BRANCH   8   9
ATOM      9  C   UNL     1      30.211  30.841  18.853  1.00  0.00     0.178 C 
ATOM     10  C   UNL     1      28.324  31.017  17.476  1.00  0.00     0.269 C 
ATOM     11  C   UNL     1      27.501  30.614  18.688  1.00  0.00     0.112 C 
ATOM     12  O   UNL     1      29.646  30.704  17.607  1.00  0.00    -0.332 OA
ATOM     13  C   UNL     1      28.224  29.488  19.398  1.00  0.00     0.145 C 
ATOM     14  C   UNL     1      29.594  29.986  19.898  1.00  0.00     0.142 C 
BRANCH  10  15
ATOM     15  O   UNL     1      28.099  32.389  17.305  1.00  0.00    -0.357 OA
ATOM     16  H   UNL     1      27.743  32.811  18.117  1.00  0.00     0.214 HD
ENDBRANCH  10  15
BRANCH  10  17
ATOM     17  C   UNL     1      27.825  30.337  16.263  1.00  0.00     0.364 C 
ATOM     18  O   UNL     1      26.747  30.702  15.756  1.00  0.00    -0.246 OA
BRANCH  17  19
ATOM     19  O   UNL     1      28.539  29.313  15.698  1.00  0.00    -0.477 OA
ATOM     20  H   UNL     1      28.193  28.698  14.973  1.00  0.00     0.296 HD
ENDBRANCH  17  19
ENDBRANCH  10  17
BRANCH  13  21
ATOM     21  O   UNL     1      27.468  28.985  20.430  1.00  0.00    -0.391 OA
ATOM     22  H   UNL     1      26.974  28.181  20.158  1.00  0.00     0.211 HD
ENDBRANCH  13  21
BRANCH  14  23
ATOM     23  N   UNL     1      30.361  28.757  20.143  1.00  0.00    -0.348 N 
ATOM     24  C   UNL     1      30.543  28.300  21.470  1.00  0.00     0.217 C 
ATOM     25  H   UNL     1      30.775  28.212  19.356  1.00  0.00     0.163 HD
ATOM     26  C   UNL     1      31.311  27.058  21.792  1.00  0.00     0.114 C 
ATOM     27  O   UNL     1      30.027  28.984  22.397  1.00  0.00    -0.275 OA
ENDBRANCH  14  23
ENDBRANCH   8   9
BRANCH   8  28
ATOM     28  O   UNL     1      31.047  32.845  18.052  1.00  0.00    -0.388 OA
ATOM     29  H   UNL     1      31.959  32.494  18.062  1.00  0.00     0.211 HD
ENDBRANCH   8  28
ENDBRANCH   7   8
BRANCH   7  30
ATOM     30  O   UNL     1      31.308  31.637  21.269  1.00  0.00    -0.388 OA
ATOM     31  H   UNL     1      30.528  31.042  21.279  1.00  0.00     0.211 HD
ENDBRANCH   7  30
ENDBRANCH   6   7
ENDBRANCH   3   6
ENDBRANCH   1   2
BRANCH   1  32
ATOM     32  C   UNL     1      29.958  37.069  18.132  1.00  0.00     0.294 C 
BRANCH  32  33
ATOM     33  C   UNL     1      29.561  36.061  17.098  1.00  0.00     0.121 A 
ATOM     34  C   UNL     1      28.429  36.044  16.323  1.00  0.00     0.146 A 
ATOM     35  N   UNL     1      30.259  34.962  16.737  1.00  0.00    -0.131 NA
ATOM     36  N   UNL     1      28.446  34.947  15.506  1.00  0.00    -0.202 N 
ATOM     37  N   UNL     1      29.581  34.327  15.800  1.00  0.00    -0.060 NA
BRANCH  36  38
ATOM     38  C   UNL     1      27.448  34.570  14.574  1.00  0.00     0.164 A 
ATOM     39  N   UNL     1      26.364  33.881  14.956  1.00  0.00    -0.193 NA
ATOM     40  C   UNL     1      27.582  34.885  13.217  1.00  0.00     0.026 A 
ATOM     41  C   UNL     1      25.418  33.495  14.063  1.00  0.00     0.222 A 
ATOM     42  C   UNL     1      26.633  34.495  12.315  1.00  0.00     0.081 A 
ATOM     43  N   UNL     1      25.534  33.786  12.763  1.00  0.00    -0.213 NA
BRANCH  40  44
ATOM     44  C   UNL     1      28.789  35.617  12.783  1.00  0.00     0.070 C 
BRANCH  44  45
ATOM     45  C   UNL     1      30.002  34.760  12.548  1.00  0.00     0.165 C 
BRANCH  45  46
ATOM     46  O   UNL     1      31.169  35.392  12.877  1.00  0.00    -0.381 OA
BRANCH  46  47
ATOM     47  C   UNL     1      31.010  36.695  13.290  1.00  0.00     0.156 C 
ATOM     48  C   UNL     1      31.975  37.055  14.400  1.00  0.00     0.035 C 
ENDBRANCH  46  47
ENDBRANCH  45  46
ENDBRANCH  44  45
ENDBRANCH  40  44
BRANCH  41  49
ATOM     49  N   UNL     1      24.290  32.770  14.511  1.00  0.00    -0.368 N 
ATOM     50  H   UNL     1      24.140  31.794  14.199  1.00  0.00     0.159 HD
ATOM     51  H   UNL     1      23.591  33.185  15.154  1.00  0.00     0.159 HD
ENDBRANCH  41  49
BRANCH  42  52
ATOM     52  C   UNL     1      26.771  34.691  10.885  1.00  0.00     0.001 A 
ATOM     53  C   UNL     1      27.438  33.935   9.993  1.00  0.00     0.010 A 
ATOM     54  C   UNL     1      26.092  35.817  10.368  1.00  0.00     0.010 A 
ATOM     55  C   UNL     1      27.446  34.263   8.623  1.00  0.00     0.001 A 
ATOM     56  C   UNL     1      26.092  36.147   9.041  1.00  0.00     0.001 A 
ATOM     57  C   UNL     1      26.781  35.361   8.134  1.00  0.00     0.000 A 
ENDBRANCH  42  52
ENDBRANCH  36  38
ENDBRANCH  32  33
ENDBRANCH   1  32
TORSDOF 21
BEGIN_RES LYS A 131
REMARK  4 active torsions:
REMARK  status: ('A' for Active; 'I' for Inactive)
REMARK    1  A    between atoms: CA   and  CB  
REMARK    2  A    between atoms: CB   and  CG  
REMARK    3  A    between atoms: CG   and  CD  
REMARK    4  A    between atoms: CD   and  CE  
ROOT
ATOM      1  CA  LYS A 131      29.867  25.555  16.977  1.00 20.52     0.186 C 
ENDROOT
BRANCH   1   2
ATOM      2  CB  LYS A 131      28.345  25.722  17.026  1.00 20.94     0.034 C 
BRANCH   2   3
ATOM      3  CG  LYS A 131      27.601  24.405  16.865  1.00 22.96     0.005 C 
BRANCH   3   4
ATOM      4  CD  LYS A 131      26.683  24.129  18.024  1.00 24.33     0.041 C 
BRANCH   4   5
ATOM      5  CE  LYS A 131      25.537  23.233  17.562  1.00 26.91     0.338 C 
ATOM      6  NZ  LYS A 131      24.497  24.034  16.874  1.00 27.40     0.618 N 
ENDBRANCH   4   5
ENDBRANCH   3   4
ENDBRANCH   2   3
ENDBRANCH   1   2
END_RES LYS A 131
BEGIN_RES LYS A 135
REMARK  4 active torsions:
REMARK  status: ('A' for Active; 'I' for Inactive)
REMARK    5  A    between atoms: CA   and  CB  
REMARK    6  A    between atoms: CB   and  CG  
REMARK    7  A    between atoms: CG   and  CD  
REMARK    8  A    between atoms: CD   and  CE  
ROOT
ATOM      7  CA  LYS A 135      33.193  34.663   9.290  1.00 25.02     0.186 C 
ENDROOT
BRANCH   7   8
ATOM      8  CB  LYS A 135      32.060  35.360  10.034  1.00 26.63     0.034 C 
BRANCH   8   9
ATOM      9  CG  LYS A 135      30.803  35.506   9.216  1.00 29.45     0.005 C 
BRANCH   9  10
ATOM     10  CD  LYS A 135      30.096  36.812   9.548  1.00 32.00     0.041 C 
BRANCH  10  11
ATOM     11  CE  LYS A 135      29.992  37.689   8.315  1.00 34.25     0.338 C 
ATOM     12  NZ  LYS A 135      28.759  38.523   8.353  1.00 35.99     0.618 N 
ENDBRANCH  10  11
ENDBRANCH   9  10
ENDBRANCH   8   9
ENDBRANCH   7   8
END_RES LYS A 135
