REMARK VINA RESULT:    -9.222      5.133      8.028
REMARK INTER + INTRA:         -13.562
REMARK INTER:                  -7.636
REMARK INTRA:                  -5.926
REMARK UNBOUND:                 4.555
REMARK SMILES CC(=O)N[C@@H]1[C@@H](O)C[C@](O)(C(=O)O)O[C@H]1C(O)[C@H](O)CNC(=O)OCc1cn(C2CCc3ccccc3NC2=O)nn1
REMARK SMILES IDX 24 1 22 2 21 3 23 5 20 6 18 7 16 8 15 9 9 10 8 11 14 12 6 13
REMARK SMILES IDX 5 14 10 15 11 17 12 18 13 19 7 21 4 23 2 24 1 26 3 27 17 28
REMARK SMILES IDX 19 30 25 32 26 33 27 34 42 35 28 36 41 37 29 38 39 40 38 41
REMARK SMILES IDX 40 42 37 44 32 45 36 46 33 47 35 48 34 49 31 50 30 51
REMARK H PARENT 21 4 10 16 13 20 7 22 4 25 17 29 19 31 38 43
REMARK Flexibility Score: 80.00
ROOT
ATOM      1  O   UNL     1      25.409  42.249   7.307  1.00  0.00    -0.443 OA
ENDROOT
BRANCH   1   2
ATOM      2  C   UNL     1      25.666  41.367   6.285  1.00  0.00     0.407 C 
ATOM      3  N   UNL     1      26.769  40.454   6.385  1.00  0.00    -0.319 N 
ATOM      4  H   UNL     1      27.335  40.510   7.263  1.00  0.00     0.167 HD
ATOM      5  O   UNL     1      24.965  41.325   5.243  1.00  0.00    -0.225 OA
BRANCH   3   6
ATOM      6  C   UNL     1      27.078  39.508   5.328  1.00  0.00     0.154 C 
BRANCH   6   7
ATOM      7  C   UNL     1      27.599  38.242   5.962  1.00  0.00     0.165 C 
BRANCH   7   8
ATOM      8  C   UNL     1      29.109  38.153   5.924  1.00  0.00     0.176 C 
BRANCH   8   9
ATOM      9  C   UNL     1      29.704  38.527   7.290  1.00  0.00     0.178 C 
ATOM     10  C   UNL     1      28.830  39.250   9.343  1.00  0.00     0.269 C 
ATOM     11  C   UNL     1      30.096  40.035   9.488  1.00  0.00     0.112 C 
ATOM     12  O   UNL     1      28.696  38.552   8.174  1.00  0.00    -0.332 OA
ATOM     13  C   UNL     1      30.268  40.803   8.187  1.00  0.00     0.145 C 
ATOM     14  C   UNL     1      30.474  39.792   7.088  1.00  0.00     0.142 C 
BRANCH  10  15
ATOM     15  O   UNL     1      27.749  40.156   9.374  1.00  0.00    -0.357 OA
ATOM     16  H   UNL     1      27.159  39.877   8.628  1.00  0.00     0.214 HD
ENDBRANCH  10  15
BRANCH  10  17
ATOM     17  C   UNL     1      28.623  38.299  10.465  1.00  0.00     0.364 C 
ATOM     18  O   UNL     1      27.880  37.309  10.299  1.00  0.00    -0.246 OA
BRANCH  17  19
ATOM     19  O   UNL     1      29.233  38.470  11.705  1.00  0.00    -0.477 OA
ATOM     20  H   UNL     1      29.286  39.438  12.055  1.00  0.00     0.296 HD
ENDBRANCH  17  19
ENDBRANCH  10  17
BRANCH  13  21
ATOM     21  O   UNL     1      29.079  41.485   7.952  1.00  0.00    -0.391 OA
ATOM     22  H   UNL     1      28.574  40.976   7.272  1.00  0.00     0.211 HD
ENDBRANCH  13  21
BRANCH  14  23
ATOM     23  N   UNL     1      31.887  39.456   7.083  1.00  0.00    -0.348 N 
ATOM     24  C   UNL     1      32.764  39.773   6.013  1.00  0.00     0.217 C 
ATOM     25  H   UNL     1      32.292  38.946   7.926  1.00  0.00     0.163 HD
ATOM     26  C   UNL     1      34.188  39.377   6.123  1.00  0.00     0.114 C 
ATOM     27  O   UNL     1      32.296  40.376   5.012  1.00  0.00    -0.275 OA
ENDBRANCH  14  23
ENDBRANCH   8   9
BRANCH   8  28
ATOM     28  O   UNL     1      29.537  39.108   4.995  1.00  0.00    -0.388 OA
ATOM     29  H   UNL     1      29.220  40.014   5.194  1.00  0.00     0.211 HD
ENDBRANCH   8  28
ENDBRANCH   7   8
BRANCH   7  30
ATOM     30  O   UNL     1      27.025  37.115   5.386  1.00  0.00    -0.388 OA
ATOM     31  H   UNL     1      27.609  36.329   5.423  1.00  0.00     0.211 HD
ENDBRANCH   7  30
ENDBRANCH   6   7
ENDBRANCH   3   6
ENDBRANCH   1   2
BRANCH   1  32
ATOM     32  C   UNL     1      24.913  41.812   8.562  1.00  0.00     0.294 C 
BRANCH  32  33
ATOM     33  C   UNL     1      24.056  40.610   8.413  1.00  0.00     0.120 A 
ATOM     34  C   UNL     1      24.373  39.345   8.919  1.00  0.00     0.139 A 
ATOM     35  N   UNL     1      22.867  40.454   7.803  1.00  0.00    -0.132 NA
ATOM     36  N   UNL     1      23.386  38.490   8.602  1.00  0.00    -0.240 N 
ATOM     37  N   UNL     1      22.499  39.192   7.932  1.00  0.00    -0.066 NA
BRANCH  36  38
ATOM     38  C   UNL     1      23.320  37.082   8.925  1.00  0.00     0.198 CG0
ATOM     39  G   UNL     1      22.498  36.906  10.160  1.00  0.00     0.000 G0
BRANCH  38  40
ATOM     40  C   UNL     1      24.681  36.489   9.051  1.00  0.00     0.249 C 
ATOM     41  N   UNL     1      25.291  35.716  10.067  1.00  0.00    -0.324 N 
ATOM     42  O   UNL     1      25.402  36.740   8.053  1.00  0.00    -0.272 OA
ATOM     43  H   UNL     1      26.329  35.619  10.073  1.00  0.00     0.170 HD
BRANCH  41  44
ATOM     44  C   UNL     1      24.637  35.015  11.140  1.00  0.00     0.044 A 
ATOM     45  C   UNL     1      23.276  34.900  11.355  1.00  0.00    -0.024 A 
ATOM     46  C   UNL     1      25.565  34.432  11.981  1.00  0.00     0.026 A 
ATOM     47  C   UNL     1      22.849  34.188  12.433  1.00  0.00     0.006 A 
ATOM     48  C   UNL     1      25.130  33.711  13.072  1.00  0.00     0.002 A 
ATOM     49  C   UNL     1      23.774  33.598  13.284  1.00  0.00     0.000 A 
BRANCH  45  50
ATOM     50  C   UNL     1      22.191  35.482  10.519  1.00  0.00     0.040 C 
BRANCH  50  51
ATOM     51  C   UNL     1      22.462  36.930  10.149  1.00  0.00     0.042 CG0
ATOM     52  G   UNL     1      23.314  37.055   8.928  1.00  0.00     0.000 G0
ENDBRANCH  50  51
ENDBRANCH  45  50
ENDBRANCH  41  44
ENDBRANCH  38  40
ENDBRANCH  36  38
ENDBRANCH  32  33
ENDBRANCH   1  32
TORSDOF 15
BEGIN_RES LYS A 131
REMARK  4 active torsions:
REMARK  status: ('A' for Active; 'I' for Inactive)
REMARK    1  A    between atoms: CA   and  CB  
REMARK    2  A    between atoms: CB   and  CG  
REMARK    3  A    between atoms: CG   and  CD  
REMARK    4  A    between atoms: CD   and  CE  
ROOT
ATOM      1  CA  LYS A 131      29.867  25.555  16.977  1.00 20.52     0.186 C 
ENDROOT
BRANCH   1   2
ATOM      2  CB  LYS A 131      28.345  25.722  17.026  1.00 20.94     0.034 C 
BRANCH   2   3
ATOM      3  CG  LYS A 131      27.600  24.410  16.831  1.00 22.96     0.005 C 
BRANCH   3   4
ATOM      4  CD  LYS A 131      26.832  24.008  18.059  1.00 24.33     0.041 C 
BRANCH   4   5
ATOM      5  CE  LYS A 131      25.361  23.822  17.702  1.00 26.91     0.338 C 
ATOM      6  NZ  LYS A 131      25.092  22.413  17.327  1.00 27.40     0.618 N 
ENDBRANCH   4   5
ENDBRANCH   3   4
ENDBRANCH   2   3
ENDBRANCH   1   2
END_RES LYS A 131
BEGIN_RES LYS A 135
REMARK  4 active torsions:
REMARK  status: ('A' for Active; 'I' for Inactive)
REMARK    5  A    between atoms: CA   and  CB  
REMARK    6  A    between atoms: CB   and  CG  
REMARK    7  A    between atoms: CG   and  CD  
REMARK    8  A    between atoms: CD   and  CE  
ROOT
ATOM      7  CA  LYS A 135      33.193  34.663   9.290  1.00 25.02     0.186 C 
ENDROOT
BRANCH   7   8
ATOM      8  CB  LYS A 135      32.060  35.360  10.034  1.00 26.63     0.034 C 
BRANCH   8   9
ATOM      9  CG  LYS A 135      30.852  35.630   9.175  1.00 29.45     0.005 C 
BRANCH   9  10
ATOM     10  CD  LYS A 135      30.182  34.327   8.767  1.00 32.00     0.041 C 
BRANCH  10  11
ATOM     11  CE  LYS A 135      28.690  34.531   8.581  1.00 34.25     0.338 C 
ATOM     12  NZ  LYS A 135      27.910  33.591   9.434  1.00 35.99     0.618 N 
ENDBRANCH  10  11
ENDBRANCH   9  10
ENDBRANCH   8   9
ENDBRANCH   7   8
END_RES LYS A 135
