REMARK VINA RESULT:    -6.560      3.287      8.448
REMARK INTER + INTRA:         -15.931
REMARK INTER:                 -12.077
REMARK INTRA:                  -3.855
REMARK UNBOUND:                -4.578
REMARK SMILES CC(=O)N[C@@H]1[C@@H](O)C[C@](O)(C(=O)O)O[C@H]1C(O)[C@H](O)CNC(=O)OCc1cn(C2c3ccccc3-c3ccccc32)nn1
REMARK SMILES IDX 20 1 18 2 16 3 15 4 9 5 8 6 14 7 6 8 5 9 10 10 11 12 12 13
REMARK SMILES IDX 13 14 7 16 4 18 2 19 1 21 3 22 17 23 19 25 21 27 22 28 23 30
REMARK SMILES IDX 24 31 25 32 26 33 27 34 43 35 28 36 42 37 29 38 30 39 41 40
REMARK SMILES IDX 31 41 35 42 36 43 40 44 32 45 34 46 37 47 39 48 33 49 38 50
REMARK H PARENT 10 11 13 15 7 17 4 20 17 24 19 26 21 29
REMARK Flexibility Score: inf
ROOT
ATOM      1  C   UNL     1      24.959  35.814  12.381  1.00  0.00     0.154 C 
ENDROOT
BRANCH   1   2
ATOM      2  C   UNL     1      24.887  35.957  10.906  1.00  0.00     0.165 C 
BRANCH   2   3
ATOM      3  C   UNL     1      26.202  36.275  10.270  1.00  0.00     0.176 C 
BRANCH   3   4
ATOM      4  C   UNL     1      26.353  35.869   8.831  1.00  0.00     0.178 C 
ATOM      5  C   UNL     1      28.606  35.612   8.244  1.00  0.00     0.269 C 
ATOM      6  C   UNL     1      28.387  35.826   6.761  1.00  0.00     0.112 C 
ATOM      7  O   UNL     1      27.489  35.058   8.784  1.00  0.00    -0.332 OA
ATOM      8  C   UNL     1      27.103  36.543   6.558  1.00  0.00     0.145 C 
ATOM      9  C   UNL     1      26.456  37.021   7.868  1.00  0.00     0.142 C 
BRANCH   5  10
ATOM     10  O   UNL     1      29.037  36.801   8.768  1.00  0.00    -0.357 OA
ATOM     11  H   UNL     1      28.705  36.949   9.681  1.00  0.00     0.214 HD
ENDBRANCH   5  10
BRANCH   5  12
ATOM     12  C   UNL     1      29.703  34.602   8.356  1.00  0.00     0.364 C 
ATOM     13  O   UNL     1      29.563  33.626   9.128  1.00  0.00    -0.246 OA
BRANCH  12  14
ATOM     14  O   UNL     1      30.885  34.700   7.635  1.00  0.00    -0.477 OA
ATOM     15  H   UNL     1      31.092  34.031   6.880  1.00  0.00     0.296 HD
ENDBRANCH  12  14
ENDBRANCH   5  12
BRANCH   8  16
ATOM     16  O   UNL     1      27.199  37.648   5.727  1.00  0.00    -0.391 OA
ATOM     17  H   UNL     1      27.964  38.231   5.934  1.00  0.00     0.211 HD
ENDBRANCH   8  16
BRANCH   9  18
ATOM     18  N   UNL     1      25.133  37.444   7.468  1.00  0.00    -0.348 N 
ATOM     19  C   UNL     1      24.483  38.619   7.928  1.00  0.00     0.217 C 
ATOM     20  H   UNL     1      24.618  36.844   6.791  1.00  0.00     0.163 HD
ATOM     21  C   UNL     1      23.107  38.990   7.465  1.00  0.00     0.114 C 
ATOM     22  O   UNL     1      25.106  39.347   8.743  1.00  0.00    -0.275 OA
ENDBRANCH   9  18
ENDBRANCH   3   4
BRANCH   3  23
ATOM     23  O   UNL     1      26.637  37.581  10.461  1.00  0.00    -0.388 OA
ATOM     24  H   UNL     1      26.938  38.038   9.659  1.00  0.00     0.211 HD
ENDBRANCH   3  23
ENDBRANCH   2   3
BRANCH   2  25
ATOM     25  O   UNL     1      24.019  36.996  10.580  1.00  0.00    -0.388 OA
ATOM     26  H   UNL     1      24.446  37.874  10.596  1.00  0.00     0.211 HD
ENDBRANCH   2  25
ENDBRANCH   1   2
BRANCH   1  27
ATOM     27  N   UNL     1      24.746  34.512  12.893  1.00  0.00    -0.319 N 
ATOM     28  C   UNL     1      25.663  33.821  13.705  1.00  0.00     0.407 C 
ATOM     29  H   UNL     1      23.833  34.001  12.660  1.00  0.00     0.167 HD
ATOM     30  O   UNL     1      26.736  34.308  14.047  1.00  0.00    -0.225 OA
BRANCH  28  31
ATOM     31  O   UNL     1      25.389  32.522  14.167  1.00  0.00    -0.443 OA
BRANCH  31  32
ATOM     32  C   UNL     1      25.439  32.160  15.514  1.00  0.00     0.294 C 
BRANCH  32  33
ATOM     33  C   UNL     1      26.712  31.510  15.911  1.00  0.00     0.120 A 
ATOM     34  C   UNL     1      27.827  32.060  16.496  1.00  0.00     0.139 A 
ATOM     35  N   UNL     1      26.957  30.210  15.740  1.00  0.00    -0.132 NA
ATOM     36  N   UNL     1      28.705  31.076  16.657  1.00  0.00    -0.240 N 
ATOM     37  N   UNL     1      28.164  29.968  16.196  1.00  0.00    -0.066 NA
BRANCH  36  38
ATOM     38  C   UNL     1      30.037  31.168  17.236  1.00  0.00     0.170 C 
ATOM     39  C   UNL     1      29.986  31.342  18.699  1.00  0.00    -0.011 A 
ATOM     40  C   UNL     1      30.797  32.298  16.725  1.00  0.00    -0.011 A 
ATOM     41  C   UNL     1      29.381  30.544  19.686  1.00  0.00     0.007 A 
ATOM     42  C   UNL     1      30.666  32.486  19.006  1.00  0.00    -0.012 A 
ATOM     43  C   UNL     1      31.176  33.089  17.776  1.00  0.00    -0.012 A 
ATOM     44  C   UNL     1      31.183  32.689  15.427  1.00  0.00     0.007 A 
ATOM     45  C   UNL     1      29.487  30.942  20.995  1.00  0.00     0.000 A 
ATOM     46  C   UNL     1      30.750  32.857  20.348  1.00  0.00     0.009 A 
ATOM     47  C   UNL     1      31.925  34.261  17.622  1.00  0.00     0.009 A 
ATOM     48  C   UNL     1      31.916  33.833  15.252  1.00  0.00     0.000 A 
ATOM     49  C   UNL     1      30.168  32.093  21.335  1.00  0.00     0.001 A 
ATOM     50  C   UNL     1      32.281  34.609  16.339  1.00  0.00     0.001 A 
ENDBRANCH  36  38
ENDBRANCH  32  33
ENDBRANCH  31  32
ENDBRANCH  28  31
ENDBRANCH   1  27
TORSDOF 15
BEGIN_RES LYS A 131
REMARK  4 active torsions:
REMARK  status: ('A' for Active; 'I' for Inactive)
REMARK    1  A    between atoms: CA   and  CB  
REMARK    2  A    between atoms: CB   and  CG  
REMARK    3  A    between atoms: CG   and  CD  
REMARK    4  A    between atoms: CD   and  CE  
ROOT
ATOM      1  CA  LYS A 131      29.867  25.555  16.977  1.00 20.52     0.186 C 
ENDROOT
BRANCH   1   2
ATOM      2  CB  LYS A 131      28.345  25.722  17.026  1.00 20.94     0.034 C 
BRANCH   2   3
ATOM      3  CG  LYS A 131      27.602  24.400  16.916  1.00 22.96     0.005 C 
BRANCH   3   4
ATOM      4  CD  LYS A 131      26.412  24.341  17.834  1.00 24.33     0.041 C 
BRANCH   4   5
ATOM      5  CE  LYS A 131      26.319  25.638  18.630  1.00 26.91     0.338 C 
ATOM      6  NZ  LYS A 131      25.577  25.418  19.894  1.00 27.40     0.618 N 
ENDBRANCH   4   5
ENDBRANCH   3   4
ENDBRANCH   2   3
ENDBRANCH   1   2
END_RES LYS A 131
BEGIN_RES LYS A 135
REMARK  4 active torsions:
REMARK  status: ('A' for Active; 'I' for Inactive)
REMARK    5  A    between atoms: CA   and  CB  
REMARK    6  A    between atoms: CB   and  CG  
REMARK    7  A    between atoms: CG   and  CD  
REMARK    8  A    between atoms: CD   and  CE  
ROOT
ATOM      7  CA  LYS A 135      33.193  34.663   9.290  1.00 25.02     0.186 C 
ENDROOT
BRANCH   7   8
ATOM      8  CB  LYS A 135      32.060  35.360  10.034  1.00 26.63     0.034 C 
BRANCH   8   9
ATOM      9  CG  LYS A 135      32.528  36.200  11.195  1.00 29.45     0.005 C 
BRANCH   9  10
ATOM     10  CD  LYS A 135      31.713  35.893  12.442  1.00 32.00     0.041 C 
BRANCH  10  11
ATOM     11  CE  LYS A 135      30.476  35.091  12.086  1.00 34.25     0.338 C 
ATOM     12  NZ  LYS A 135      29.254  35.940  12.131  1.00 35.99     0.618 N 
ENDBRANCH  10  11
ENDBRANCH   9  10
ENDBRANCH   8   9
ENDBRANCH   7   8
END_RES LYS A 135
