REMARK VINA RESULT:    -4.031      7.472     13.999
REMARK INTER + INTRA:         -13.633
REMARK INTER:                  -7.353
REMARK INTRA:                  -6.279
REMARK UNBOUND:                -5.949
REMARK SMILES CCOC(=O)Cn1cc(COC(=O)NC[C@@H](O)C(O)[C@@H]2O[C@@](O)(C(=O)O)C[C@H](O)[C@H]2NC(C)=O)nn1
REMARK SMILES IDX 14 1 12 2 13 3 15 5 16 6 18 7 20 8 22 9 27 10 21 11 28 12
REMARK SMILES IDX 30 13 23 14 24 16 25 17 26 18 29 20 31 22 32 23 33 25 34 26
REMARK SMILES IDX 19 27 17 29 11 31 10 32 9 33 8 34 35 35 7 36 36 37 6 38 4 39
REMARK SMILES IDX 5 40 3 41 2 42 1 43
REMARK H PARENT 14 4 23 15 26 19 29 21 31 24 19 28 17 30
REMARK Flexibility Score: inf
ROOT
ATOM      1  N   UNL     1      28.422  39.976   5.435  1.00  0.00    -0.319 N 
ATOM      2  C   UNL     1      29.723  40.404   5.781  1.00  0.00     0.407 C 
ATOM      3  O   UNL     1      30.737  39.767   5.476  1.00  0.00    -0.225 OA
ATOM      4  H   UNL     1      27.649  40.643   5.767  1.00  0.00     0.167 HD
ENDROOT
BRANCH   1   5
ATOM      5  C   UNL     1      28.081  38.790   4.719  1.00  0.00     0.154 C 
BRANCH   5   6
ATOM      6  C   UNL     1      27.967  37.529   5.505  1.00  0.00     0.165 C 
BRANCH   6   7
ATOM      7  C   UNL     1      27.242  37.671   6.795  1.00  0.00     0.176 C 
BRANCH   7   8
ATOM      8  C   UNL     1      26.562  36.433   7.312  1.00  0.00     0.178 C 
ATOM      9  C   UNL     1      24.800  36.968   8.753  1.00  0.00     0.269 C 
ATOM     10  C   UNL     1      24.821  35.646   9.490  1.00  0.00     0.112 C 
ATOM     11  O   UNL     1      25.220  36.771   7.475  1.00  0.00    -0.332 OA
ATOM     12  C   UNL     1      26.135  34.986   9.286  1.00  0.00     0.145 C 
ATOM     13  C   UNL     1      27.161  35.884   8.576  1.00  0.00     0.142 C 
BRANCH   9  14
ATOM     14  O   UNL     1      25.532  37.862   9.512  1.00  0.00    -0.357 OA
ATOM     15  H   UNL     1      24.923  38.580   9.802  1.00  0.00     0.214 HD
ENDBRANCH   9  14
BRANCH   9  16
ATOM     16  C   UNL     1      23.385  37.404   8.717  1.00  0.00     0.364 C 
ATOM     17  O   UNL     1      22.811  37.483   7.611  1.00  0.00    -0.246 OA
BRANCH  16  18
ATOM     18  O   UNL     1      22.698  37.721   9.861  1.00  0.00    -0.477 OA
ATOM     19  H   UNL     1      21.680  37.688   9.911  1.00  0.00     0.296 HD
ENDBRANCH  16  18
ENDBRANCH   9  16
BRANCH  12  20
ATOM     20  O   UNL     1      26.708  34.505  10.460  1.00  0.00    -0.391 OA
ATOM     21  H   UNL     1      27.162  33.645  10.356  1.00  0.00     0.211 HD
ENDBRANCH  12  20
BRANCH  13  22
ATOM     22  N   UNL     1      28.269  34.993   8.300  1.00  0.00    -0.348 N 
ATOM     23  C   UNL     1      29.629  35.308   8.470  1.00  0.00     0.217 C 
ATOM     24  H   UNL     1      28.033  34.040   7.947  1.00  0.00     0.163 HD
ATOM     25  C   UNL     1      30.748  34.379   8.181  1.00  0.00     0.114 C 
ATOM     26  O   UNL     1      29.901  36.471   8.901  1.00  0.00    -0.275 OA
ENDBRANCH  13  22
ENDBRANCH   7   8
BRANCH   7  27
ATOM     27  O   UNL     1      28.018  38.290   7.745  1.00  0.00    -0.388 OA
ATOM     28  H   UNL     1      28.161  39.258   7.592  1.00  0.00     0.211 HD
ENDBRANCH   7  27
ENDBRANCH   6   7
BRANCH   6  29
ATOM     29  O   UNL     1      29.272  37.107   5.836  1.00  0.00    -0.388 OA
ATOM     30  H   UNL     1      29.929  37.843   5.657  1.00  0.00     0.211 HD
ENDBRANCH   6  29
ENDBRANCH   5   6
ENDBRANCH   1   5
BRANCH   2  31
ATOM     31  O   UNL     1      29.918  41.603   6.505  1.00  0.00    -0.443 OA
BRANCH  31  32
ATOM     32  C   UNL     1      30.278  41.577   7.873  1.00  0.00     0.294 C 
BRANCH  32  33
ATOM     33  C   UNL     1      29.025  41.355   8.642  1.00  0.00     0.120 A 
ATOM     34  C   UNL     1      27.880  42.117   8.637  1.00  0.00     0.139 A 
ATOM     35  N   UNL     1      28.761  40.342   9.512  1.00  0.00    -0.132 NA
ATOM     36  N   UNL     1      26.995  41.534   9.493  1.00  0.00    -0.241 N 
ATOM     37  N   UNL     1      27.563  40.457  10.007  1.00  0.00    -0.066 NA
BRANCH  36  38
ATOM     38  C   UNL     1      25.658  41.975   9.815  1.00  0.00     0.268 C 
BRANCH  38  39
ATOM     39  C   UNL     1      24.669  40.929   9.513  1.00  0.00     0.327 C 
ATOM     40  O   UNL     1      23.997  40.436  10.445  1.00  0.00    -0.250 OA
BRANCH  39  41
ATOM     41  O   UNL     1      24.517  40.522   8.187  1.00  0.00    -0.465 OA
BRANCH  41  42
ATOM     42  C   UNL     1      24.074  41.533   7.276  1.00  0.00     0.229 C 
ATOM     43  C   UNL     1      22.602  41.320   7.033  1.00  0.00     0.049 C 
ENDBRANCH  41  42
ENDBRANCH  39  41
ENDBRANCH  38  39
ENDBRANCH  36  38
ENDBRANCH  32  33
ENDBRANCH  31  32
ENDBRANCH   2  31
TORSDOF 18
BEGIN_RES LYS A 131
REMARK  4 active torsions:
REMARK  status: ('A' for Active; 'I' for Inactive)
REMARK    1  A    between atoms: CA   and  CB  
REMARK    2  A    between atoms: CB   and  CG  
REMARK    3  A    between atoms: CG   and  CD  
REMARK    4  A    between atoms: CD   and  CE  
ROOT
ATOM      1  CA  LYS A 131      29.867  25.555  16.977  1.00 20.52     0.186 C 
ENDROOT
BRANCH   1   2
ATOM      2  CB  LYS A 131      28.345  25.722  17.026  1.00 20.94     0.034 C 
BRANCH   2   3
ATOM      3  CG  LYS A 131      27.606  24.394  17.081  1.00 22.96     0.005 C 
BRANCH   3   4
ATOM      4  CD  LYS A 131      26.451  24.427  18.043  1.00 24.33     0.041 C 
BRANCH   4   5
ATOM      5  CE  LYS A 131      25.225  23.801  17.387  1.00 26.91     0.338 C 
ATOM      6  NZ  LYS A 131      25.290  22.323  17.471  1.00 27.40     0.618 N 
ENDBRANCH   4   5
ENDBRANCH   3   4
ENDBRANCH   2   3
ENDBRANCH   1   2
END_RES LYS A 131
BEGIN_RES LYS A 135
REMARK  4 active torsions:
REMARK  status: ('A' for Active; 'I' for Inactive)
REMARK    5  A    between atoms: CA   and  CB  
REMARK    6  A    between atoms: CB   and  CG  
REMARK    7  A    between atoms: CG   and  CD  
REMARK    8  A    between atoms: CD   and  CE  
ROOT
ATOM      7  CA  LYS A 135      33.193  34.663   9.290  1.00 25.02     0.186 C 
ENDROOT
BRANCH   7   8
ATOM      8  CB  LYS A 135      32.060  35.360  10.034  1.00 26.63     0.034 C 
BRANCH   8   9
ATOM      9  CG  LYS A 135      32.496  36.014  11.320  1.00 29.45     0.005 C 
BRANCH   9  10
ATOM     10  CD  LYS A 135      32.122  37.488  11.326  1.00 32.00     0.041 C 
BRANCH  10  11
ATOM     11  CE  LYS A 135      31.239  37.809  12.516  1.00 34.25     0.338 C 
ATOM     12  NZ  LYS A 135      29.848  37.322  12.300  1.00 35.99     0.618 N 
ENDBRANCH  10  11
ENDBRANCH   9  10
ENDBRANCH   8   9
ENDBRANCH   7   8
END_RES LYS A 135
