REMARK VINA RESULT:    -4.290      2.880      6.454
REMARK INTER + INTRA:         -13.212
REMARK INTER:                  -6.242
REMARK INTRA:                  -6.970
REMARK UNBOUND:                -5.786
REMARK SMILES CC(=O)N[C@@H]1[C@@H](O)C[C@](O)(C(=O)O)O[C@H]1C(O)[C@H](O)CNC(=O)OCc1cn(C2CCN(C)CC2)nn1
REMARK SMILES IDX 20 1 18 2 16 3 15 4 9 5 8 6 14 7 6 8 5 9 10 10 11 12 12 13
REMARK SMILES IDX 13 14 7 16 4 18 2 19 1 21 3 22 17 23 19 25 21 27 22 28 23 30
REMARK SMILES IDX 24 31 25 32 26 33 27 34 37 35 28 36 36 37 29 38 30 39 35 40
REMARK SMILES IDX 31 41 34 42 32 43 33 44
REMARK H PARENT 10 11 13 15 7 17 4 20 17 24 19 26 21 29
REMARK Flexibility Score: inf
ROOT
ATOM      1  C   UNL     1      27.629  29.532  16.213  1.00  0.00     0.154 C 
ENDROOT
BRANCH   1   2
ATOM      2  C   UNL     1      26.932  28.461  16.983  1.00  0.00     0.165 C 
BRANCH   2   3
ATOM      3  C   UNL     1      25.698  28.968  17.699  1.00  0.00     0.176 C 
BRANCH   3   4
ATOM      4  C   UNL     1      25.862  28.779  19.192  1.00  0.00     0.178 C 
ATOM      5  C   UNL     1      25.182  27.490  21.017  1.00  0.00     0.269 C 
ATOM      6  C   UNL     1      24.989  28.722  21.847  1.00  0.00     0.112 C 
ATOM      7  O   UNL     1      25.223  27.677  19.667  1.00  0.00    -0.332 OA
ATOM      8  C   UNL     1      25.845  29.858  21.356  1.00  0.00     0.145 C 
ATOM      9  C   UNL     1      25.507  30.059  19.881  1.00  0.00     0.142 C 
BRANCH   5  10
ATOM     10  O   UNL     1      24.153  26.573  21.371  1.00  0.00    -0.357 OA
ATOM     11  H   UNL     1      24.005  26.565  22.348  1.00  0.00     0.214 HD
ENDBRANCH   5  10
BRANCH   5  12
ATOM     12  C   UNL     1      26.468  26.860  21.415  1.00  0.00     0.364 C 
ATOM     13  O   UNL     1      26.706  26.636  22.628  1.00  0.00    -0.246 OA
BRANCH  12  14
ATOM     14  O   UNL     1      27.463  26.485  20.525  1.00  0.00    -0.477 OA
ATOM     15  H   UNL     1      27.772  27.085  19.760  1.00  0.00     0.296 HD
ENDBRANCH  12  14
ENDBRANCH   5  12
BRANCH   8  16
ATOM     16  O   UNL     1      25.585  31.040  22.055  1.00  0.00    -0.391 OA
ATOM     17  H   UNL     1      26.226  31.753  21.841  1.00  0.00     0.211 HD
ENDBRANCH   8  16
BRANCH   9  18
ATOM     18  N   UNL     1      26.409  31.130  19.436  1.00  0.00    -0.348 N 
ATOM     19  C   UNL     1      25.960  32.449  19.226  1.00  0.00     0.217 C 
ATOM     20  H   UNL     1      27.392  30.870  19.286  1.00  0.00     0.163 HD
ATOM     21  C   UNL     1      26.898  33.535  18.771  1.00  0.00     0.114 C 
ATOM     22  O   UNL     1      24.746  32.708  19.427  1.00  0.00    -0.275 OA
ENDBRANCH   9  18
ENDBRANCH   3   4
BRANCH   3  23
ATOM     23  O   UNL     1      24.595  28.315  17.198  1.00  0.00    -0.388 OA
ATOM     24  H   UNL     1      24.669  27.338  17.344  1.00  0.00     0.211 HD
ENDBRANCH   3  23
ENDBRANCH   2   3
BRANCH   2  25
ATOM     25  O   UNL     1      27.825  27.978  17.969  1.00  0.00    -0.388 OA
ATOM     26  H   UNL     1      27.579  28.324  18.867  1.00  0.00     0.211 HD
ENDBRANCH   2  25
ENDBRANCH   1   2
BRANCH   1  27
ATOM     27  N   UNL     1      28.771  29.984  16.978  1.00  0.00    -0.319 N 
ATOM     28  C   UNL     1      29.368  31.268  16.848  1.00  0.00     0.407 C 
ATOM     29  H   UNL     1      29.242  29.361  17.702  1.00  0.00     0.167 HD
ATOM     30  O   UNL     1      28.896  32.075  16.034  1.00  0.00    -0.225 OA
BRANCH  28  31
ATOM     31  O   UNL     1      30.466  31.656  17.605  1.00  0.00    -0.443 OA
BRANCH  31  32
ATOM     32  C   UNL     1      30.347  31.846  19.000  1.00  0.00     0.294 C 
BRANCH  32  33
ATOM     33  C   UNL     1      30.276  30.540  19.705  1.00  0.00     0.120 A 
ATOM     34  C   UNL     1      31.294  29.820  20.261  1.00  0.00     0.138 A 
ATOM     35  N   UNL     1      29.159  29.820  19.920  1.00  0.00    -0.132 NA
ATOM     36  N   UNL     1      30.792  28.694  20.796  1.00  0.00    -0.249 N 
ATOM     37  N   UNL     1      29.476  28.729  20.568  1.00  0.00    -0.067 NA
BRANCH  36  38
ATOM     38  C   UNL     1      31.545  27.666  21.479  1.00  0.00     0.111 C 
ATOM     39  C   UNL     1      30.631  26.654  22.134  1.00  0.00     0.043 C 
ATOM     40  C   UNL     1      32.533  28.254  22.441  1.00  0.00     0.043 C 
ATOM     41  C   UNL     1      30.151  27.103  23.494  1.00  0.00     0.086 C 
ATOM     42  C   UNL     1      31.933  28.694  23.740  1.00  0.00     0.086 C 
ATOM     43  N   UNL     1      31.209  27.604  24.321  1.00  0.00    -0.306 NA
ATOM     44  C   UNL     1      32.122  26.586  24.752  1.00  0.00     0.105 C 
ENDBRANCH  36  38
ENDBRANCH  32  33
ENDBRANCH  31  32
ENDBRANCH  28  31
ENDBRANCH   1  27
TORSDOF 15
BEGIN_RES LYS A 131
REMARK  4 active torsions:
REMARK  status: ('A' for Active; 'I' for Inactive)
REMARK    1  A    between atoms: CA   and  CB  
REMARK    2  A    between atoms: CB   and  CG  
REMARK    3  A    between atoms: CG   and  CD  
REMARK    4  A    between atoms: CD   and  CE  
ROOT
ATOM      1  CA  LYS A 131      29.867  25.555  16.977  1.00 20.52     0.186 C 
ENDROOT
BRANCH   1   2
ATOM      2  CB  LYS A 131      28.345  25.722  17.026  1.00 20.94     0.034 C 
BRANCH   2   3
ATOM      3  CG  LYS A 131      27.601  24.401  16.904  1.00 22.96     0.005 C 
BRANCH   3   4
ATOM      4  CD  LYS A 131      26.541  24.248  17.959  1.00 24.33     0.041 C 
BRANCH   4   5
ATOM      5  CE  LYS A 131      25.163  24.398  17.321  1.00 26.91     0.338 C 
ATOM      6  NZ  LYS A 131      24.506  23.076  17.191  1.00 27.40     0.618 N 
ENDBRANCH   4   5
ENDBRANCH   3   4
ENDBRANCH   2   3
ENDBRANCH   1   2
END_RES LYS A 131
BEGIN_RES LYS A 135
REMARK  4 active torsions:
REMARK  status: ('A' for Active; 'I' for Inactive)
REMARK    5  A    between atoms: CA   and  CB  
REMARK    6  A    between atoms: CB   and  CG  
REMARK    7  A    between atoms: CG   and  CD  
REMARK    8  A    between atoms: CD   and  CE  
ROOT
ATOM      7  CA  LYS A 135      33.193  34.663   9.290  1.00 25.02     0.186 C 
ENDROOT
BRANCH   7   8
ATOM      8  CB  LYS A 135      32.060  35.360  10.034  1.00 26.63     0.034 C 
BRANCH   8   9
ATOM      9  CG  LYS A 135      30.710  34.734   9.799  1.00 29.45     0.005 C 
BRANCH   9  10
ATOM     10  CD  LYS A 135      30.469  34.520   8.312  1.00 32.00     0.041 C 
BRANCH  10  11
ATOM     11  CE  LYS A 135      29.027  34.828   7.957  1.00 34.25     0.338 C 
ATOM     12  NZ  LYS A 135      28.936  35.540   6.652  1.00 35.99     0.618 N 
ENDBRANCH  10  11
ENDBRANCH   9  10
ENDBRANCH   8   9
ENDBRANCH   7   8
END_RES LYS A 135
