REMARK VINA RESULT:    -4.952      4.681      8.336
REMARK INTER + INTRA:         -14.968
REMARK INTER:                  -8.477
REMARK INTRA:                  -6.492
REMARK UNBOUND:                -5.964
REMARK SMILES CC(=O)N[C@@H]1[C@@H](O)C[C@](O)(C(=O)O)O[C@H]1C(O)[C@H](O)CNC(=O)OCc1cn(-c2ccc(S(N)(=O)=O)cc2)nn1
REMARK SMILES IDX 21 1 22 2 23 3 20 5 18 6 16 7 15 8 9 9 8 10 14 11 6 12 5 13
REMARK SMILES IDX 10 14 11 16 12 17 13 18 7 20 4 22 2 23 1 25 3 26 17 27 19 29
REMARK SMILES IDX 24 31 25 32 26 33 27 34 40 35 28 36 39 37 29 38 30 39 38 40
REMARK SMILES IDX 31 41 37 42 32 43 33 44 35 45 36 46 34 47
REMARK H PARENT 21 4 10 15 13 19 7 21 4 24 17 28 19 30 34 48 34 49
REMARK Flexibility Score: inf
ROOT
ATOM      1  N   UNL     1      31.495  35.336  15.983  1.00  0.00    -0.319 N 
ATOM      2  C   UNL     1      32.665  36.055  15.698  1.00  0.00     0.407 C 
ATOM      3  O   UNL     1      33.756  35.475  15.577  1.00  0.00    -0.225 OA
ATOM      4  H   UNL     1      30.598  35.888  16.070  1.00  0.00     0.167 HD
ENDROOT
BRANCH   1   5
ATOM      5  C   UNL     1      31.489  33.926  16.151  1.00  0.00     0.154 C 
BRANCH   5   6
ATOM      6  C   UNL     1      31.249  33.168  14.851  1.00  0.00     0.165 C 
BRANCH   6   7
ATOM      7  C   UNL     1      29.912  33.575  14.305  1.00  0.00     0.176 C 
BRANCH   7   8
ATOM      8  C   UNL     1      28.804  33.542  15.287  1.00  0.00     0.178 C 
ATOM      9  C   UNL     1      27.884  32.101  16.869  1.00  0.00     0.269 C 
ATOM     10  C   UNL     1      27.197  33.395  17.230  1.00  0.00     0.112 C 
ATOM     11  O   UNL     1      28.737  32.223  15.808  1.00  0.00    -0.332 OA
ATOM     12  C   UNL     1      26.581  34.086  16.053  1.00  0.00     0.145 C 
ATOM     13  C   UNL     1      27.431  33.859  14.826  1.00  0.00     0.142 C 
BRANCH   9  14
ATOM     14  O   UNL     1      26.941  31.063  16.674  1.00  0.00    -0.357 OA
ATOM     15  H   UNL     1      27.290  30.386  16.041  1.00  0.00     0.214 HD
ENDBRANCH   9  14
BRANCH   9  16
ATOM     16  C   UNL     1      28.683  31.690  18.054  1.00  0.00     0.364 C 
ATOM     17  O   UNL     1      28.716  30.468  18.350  1.00  0.00    -0.246 OA
BRANCH  16  18
ATOM     18  O   UNL     1      29.393  32.567  18.852  1.00  0.00    -0.477 OA
ATOM     19  H   UNL     1      29.004  33.472  19.108  1.00  0.00     0.296 HD
ENDBRANCH  16  18
ENDBRANCH   9  16
BRANCH  12  20
ATOM     20  O   UNL     1      25.281  33.622  15.904  1.00  0.00    -0.391 OA
ATOM     21  H   UNL     1      25.326  32.859  15.272  1.00  0.00     0.211 HD
ENDBRANCH  12  20
BRANCH  13  22
ATOM     22  N   UNL     1      27.267  34.844  13.826  1.00  0.00    -0.348 N 
ATOM     23  C   UNL     1      26.294  34.741  12.806  1.00  0.00     0.217 C 
ATOM     24  H   UNL     1      27.859  35.698  13.829  1.00  0.00     0.163 HD
ATOM     25  C   UNL     1      26.134  35.799  11.749  1.00  0.00     0.114 C 
ATOM     26  O   UNL     1      25.561  33.736  12.802  1.00  0.00    -0.275 OA
ENDBRANCH  13  22
ENDBRANCH   7   8
BRANCH   7  27
ATOM     27  O   UNL     1      29.922  34.599  13.395  1.00  0.00    -0.388 OA
ATOM     28  H   UNL     1      30.832  34.704  13.037  1.00  0.00     0.211 HD
ENDBRANCH   7  27
ENDBRANCH   6   7
BRANCH   6  29
ATOM     29  O   UNL     1      31.415  31.828  15.081  1.00  0.00    -0.388 OA
ATOM     30  H   UNL     1      31.155  31.603  16.017  1.00  0.00     0.211 HD
ENDBRANCH   6  29
ENDBRANCH   5   6
ENDBRANCH   1   5
BRANCH   2  31
ATOM     31  O   UNL     1      32.670  37.449  15.535  1.00  0.00    -0.443 OA
BRANCH  31  32
ATOM     32  C   UNL     1      31.484  38.180  15.548  1.00  0.00     0.294 C 
BRANCH  32  33
ATOM     33  C   UNL     1      30.678  37.959  14.328  1.00  0.00     0.121 A 
ATOM     34  C   UNL     1      30.925  38.320  13.025  1.00  0.00     0.144 A 
ATOM     35  N   UNL     1      29.483  37.316  14.304  1.00  0.00    -0.131 NA
ATOM     36  N   UNL     1      29.910  37.906  12.246  1.00  0.00    -0.220 N 
ATOM     37  N   UNL     1      29.058  37.305  13.053  1.00  0.00    -0.062 NA
BRANCH  36  38
ATOM     38  C   UNL     1      29.744  38.062  10.840  1.00  0.00     0.066 A 
ATOM     39  C   UNL     1      30.820  38.250   9.999  1.00  0.00     0.030 A 
ATOM     40  C   UNL     1      28.490  38.033  10.258  1.00  0.00     0.030 A 
ATOM     41  C   UNL     1      30.677  38.403   8.638  1.00  0.00     0.024 A 
ATOM     42  C   UNL     1      28.343  38.185   8.896  1.00  0.00     0.024 A 
ATOM     43  C   UNL     1      29.411  38.374   8.044  1.00  0.00     0.082 A 
BRANCH  43  44
ATOM     44  S   UNL     1      29.234  38.570   6.316  1.00  0.00     0.238 S 
ATOM     45  O   UNL     1      27.982  39.369   6.085  1.00  0.00    -0.207 OA
ATOM     46  O   UNL     1      30.383  39.410   5.808  1.00  0.00    -0.207 OA
BRANCH  44  47
ATOM     47  N   UNL     1      29.154  37.077   5.482  1.00  0.00    -0.225 NA
ATOM     48  H   UNL     1      28.275  36.559   5.596  1.00  0.00     0.137 HD
ATOM     49  H   UNL     1      29.438  37.166   4.481  1.00  0.00     0.137 HD
ENDBRANCH  44  47
ENDBRANCH  43  44
ENDBRANCH  36  38
ENDBRANCH  32  33
ENDBRANCH  31  32
ENDBRANCH   2  31
TORSDOF 17
BEGIN_RES LYS A 131
REMARK  4 active torsions:
REMARK  status: ('A' for Active; 'I' for Inactive)
REMARK    1  A    between atoms: CA   and  CB  
REMARK    2  A    between atoms: CB   and  CG  
REMARK    3  A    between atoms: CG   and  CD  
REMARK    4  A    between atoms: CD   and  CE  
ROOT
ATOM      1  CA  LYS A 131      29.867  25.555  16.977  1.00 20.52     0.186 C 
ENDROOT
BRANCH   1   2
ATOM      2  CB  LYS A 131      28.345  25.722  17.026  1.00 20.94     0.034 C 
BRANCH   2   3
ATOM      3  CG  LYS A 131      27.601  24.404  16.880  1.00 22.96     0.005 C 
BRANCH   3   4
ATOM      4  CD  LYS A 131      26.540  24.232  17.931  1.00 24.33     0.041 C 
BRANCH   4   5
ATOM      5  CE  LYS A 131      25.961  25.595  18.297  1.00 26.91     0.338 C 
ATOM      6  NZ  LYS A 131      25.885  25.749  19.769  1.00 27.40     0.618 N 
ENDBRANCH   4   5
ENDBRANCH   3   4
ENDBRANCH   2   3
ENDBRANCH   1   2
END_RES LYS A 131
BEGIN_RES LYS A 135
REMARK  4 active torsions:
REMARK  status: ('A' for Active; 'I' for Inactive)
REMARK    5  A    between atoms: CA   and  CB  
REMARK    6  A    between atoms: CB   and  CG  
REMARK    7  A    between atoms: CG   and  CD  
REMARK    8  A    between atoms: CD   and  CE  
ROOT
ATOM      7  CA  LYS A 135      33.193  34.663   9.290  1.00 25.02     0.186 C 
ENDROOT
BRANCH   7   8
ATOM      8  CB  LYS A 135      32.060  35.360  10.034  1.00 26.63     0.034 C 
BRANCH   8   9
ATOM      9  CG  LYS A 135      30.725  34.681   9.871  1.00 29.45     0.005 C 
BRANCH   9  10
ATOM     10  CD  LYS A 135      30.301  34.674   8.411  1.00 32.00     0.041 C 
BRANCH  10  11
ATOM     11  CE  LYS A 135      28.794  34.544   8.294  1.00 34.25     0.338 C 
ATOM     12  NZ  LYS A 135      28.222  33.851   9.481  1.00 35.99     0.618 N 
ENDBRANCH  10  11
ENDBRANCH   9  10
ENDBRANCH   8   9
ENDBRANCH   7   8
END_RES LYS A 135
