REMARK VINA RESULT:    -4.075      3.261      8.596
REMARK INTER + INTRA:         -13.717
REMARK INTER:                  -7.731
REMARK INTRA:                  -5.987
REMARK UNBOUND:                -5.949
REMARK SMILES CCOC(=O)Cn1cc(COC(=O)NC[C@@H](O)C(O)[C@@H]2O[C@@](O)(C(=O)O)C[C@H](O)[C@H]2NC(C)=O)nn1
REMARK SMILES IDX 14 1 12 2 13 3 15 5 16 6 18 7 20 8 22 9 27 10 21 11 28 12
REMARK SMILES IDX 30 13 23 14 24 16 25 17 26 18 29 20 31 22 32 23 33 25 34 26
REMARK SMILES IDX 19 27 17 29 11 31 10 32 9 33 8 34 35 35 7 36 36 37 6 38 4 39
REMARK SMILES IDX 5 40 3 41 2 42 1 43
REMARK H PARENT 14 4 23 15 26 19 29 21 31 24 19 28 17 30
REMARK Flexibility Score: inf
ROOT
ATOM      1  N   UNL     1      25.799  31.394  15.068  1.00  0.00    -0.319 N 
ATOM      2  C   UNL     1      24.740  32.278  15.374  1.00  0.00     0.407 C 
ATOM      3  O   UNL     1      24.157  32.266  16.463  1.00  0.00    -0.225 OA
ATOM      4  H   UNL     1      26.203  31.536  14.083  1.00  0.00     0.167 HD
ENDROOT
BRANCH   1   5
ATOM      5  C   UNL     1      26.337  30.385  15.921  1.00  0.00     0.154 C 
BRANCH   5   6
ATOM      6  C   UNL     1      27.561  30.731  16.697  1.00  0.00     0.165 C 
BRANCH   6   7
ATOM      7  C   UNL     1      28.650  31.341  15.888  1.00  0.00     0.176 C 
BRANCH   7   8
ATOM      8  C   UNL     1      28.995  32.769  16.213  1.00  0.00     0.178 C 
ATOM      9  C   UNL     1      30.316  33.728  14.539  1.00  0.00     0.269 C 
ATOM     10  C   UNL     1      30.935  34.776  15.438  1.00  0.00     0.112 C 
ATOM     11  O   UNL     1      29.068  33.434  14.991  1.00  0.00    -0.332 OA
ATOM     12  C   UNL     1      30.790  34.362  16.856  1.00  0.00     0.145 C 
ATOM     13  C   UNL     1      30.254  32.930  17.018  1.00  0.00     0.142 C 
BRANCH   9  14
ATOM     14  O   UNL     1      31.212  32.676  14.476  1.00  0.00    -0.357 OA
ATOM     15  H   UNL     1      31.673  32.621  15.344  1.00  0.00     0.214 HD
ENDBRANCH   9  14
BRANCH   9  16
ATOM     16  C   UNL     1      30.194  34.344  13.199  1.00  0.00     0.364 C 
ATOM     17  O   UNL     1      31.232  34.730  12.621  1.00  0.00    -0.246 OA
BRANCH  16  18
ATOM     18  O   UNL     1      28.979  34.499  12.583  1.00  0.00    -0.477 OA
ATOM     19  H   UNL     1      28.103  34.229  13.031  1.00  0.00     0.296 HD
ENDBRANCH  16  18
ENDBRANCH   9  16
BRANCH  12  20
ATOM     20  O   UNL     1      31.963  34.479  17.595  1.00  0.00    -0.391 OA
ATOM     21  H   UNL     1      32.507  35.255  17.355  1.00  0.00     0.211 HD
ENDBRANCH  12  20
BRANCH  13  22
ATOM     22  N   UNL     1      29.999  32.813  18.438  1.00  0.00    -0.348 N 
ATOM     23  C   UNL     1      30.179  31.647  19.204  1.00  0.00     0.217 C 
ATOM     24  H   UNL     1      29.656  33.667  18.930  1.00  0.00     0.163 HD
ATOM     25  C   UNL     1      29.913  31.550  20.660  1.00  0.00     0.114 C 
ATOM     26  O   UNL     1      30.598  30.616  18.594  1.00  0.00    -0.275 OA
ENDBRANCH  13  22
ENDBRANCH   7   8
BRANCH   7  27
ATOM     27  O   UNL     1      29.753  30.524  15.831  1.00  0.00    -0.388 OA
ATOM     28  H   UNL     1      29.899  30.092  14.952  1.00  0.00     0.211 HD
ENDBRANCH   7  27
ENDBRANCH   6   7
BRANCH   6  29
ATOM     29  O   UNL     1      28.090  29.535  17.224  1.00  0.00    -0.388 OA
ATOM     30  H   UNL     1      27.884  28.767  16.614  1.00  0.00     0.211 HD
ENDBRANCH   6  29
ENDBRANCH   5   6
ENDBRANCH   1   5
BRANCH   2  31
ATOM     31  O   UNL     1      24.298  33.229  14.426  1.00  0.00    -0.443 OA
BRANCH  31  32
ATOM     32  C   UNL     1      24.334  32.947  13.040  1.00  0.00     0.294 C 
BRANCH  32  33
ATOM     33  C   UNL     1      24.884  34.155  12.371  1.00  0.00     0.120 A 
ATOM     34  C   UNL     1      24.195  35.234  11.866  1.00  0.00     0.139 A 
ATOM     35  N   UNL     1      26.194  34.437  12.123  1.00  0.00    -0.132 NA
ATOM     36  N   UNL     1      25.110  36.099  11.346  1.00  0.00    -0.241 N 
ATOM     37  N   UNL     1      26.315  35.583  11.519  1.00  0.00    -0.066 NA
BRANCH  36  38
ATOM     38  C   UNL     1      24.859  37.370  10.707  1.00  0.00     0.268 C 
BRANCH  38  39
ATOM     39  C   UNL     1      25.362  37.375   9.325  1.00  0.00     0.327 C 
ATOM     40  O   UNL     1      24.991  36.479   8.536  1.00  0.00    -0.250 OA
BRANCH  39  41
ATOM     41  O   UNL     1      26.243  38.387   8.943  1.00  0.00    -0.465 OA
BRANCH  41  42
ATOM     42  C   UNL     1      27.593  37.976   8.704  1.00  0.00     0.229 C 
ATOM     43  C   UNL     1      28.397  38.293   9.939  1.00  0.00     0.049 C 
ENDBRANCH  41  42
ENDBRANCH  39  41
ENDBRANCH  38  39
ENDBRANCH  36  38
ENDBRANCH  32  33
ENDBRANCH  31  32
ENDBRANCH   2  31
TORSDOF 18
BEGIN_RES LYS A 131
REMARK  4 active torsions:
REMARK  status: ('A' for Active; 'I' for Inactive)
REMARK    1  A    between atoms: CA   and  CB  
REMARK    2  A    between atoms: CB   and  CG  
REMARK    3  A    between atoms: CG   and  CD  
REMARK    4  A    between atoms: CD   and  CE  
ROOT
ATOM      1  CA  LYS A 131      29.867  25.555  16.977  1.00 20.52     0.186 C 
ENDROOT
BRANCH   1   2
ATOM      2  CB  LYS A 131      28.345  25.722  17.026  1.00 20.94     0.034 C 
BRANCH   2   3
ATOM      3  CG  LYS A 131      27.602  24.400  16.916  1.00 22.96     0.005 C 
BRANCH   3   4
ATOM      4  CD  LYS A 131      26.552  24.249  17.982  1.00 24.33     0.041 C 
BRANCH   4   5
ATOM      5  CE  LYS A 131      25.169  24.428  17.364  1.00 26.91     0.338 C 
ATOM      6  NZ  LYS A 131      24.463  23.127  17.289  1.00 27.40     0.618 N 
ENDBRANCH   4   5
ENDBRANCH   3   4
ENDBRANCH   2   3
ENDBRANCH   1   2
END_RES LYS A 131
BEGIN_RES LYS A 135
REMARK  4 active torsions:
REMARK  status: ('A' for Active; 'I' for Inactive)
REMARK    5  A    between atoms: CA   and  CB  
REMARK    6  A    between atoms: CB   and  CG  
REMARK    7  A    between atoms: CG   and  CD  
REMARK    8  A    between atoms: CD   and  CE  
ROOT
ATOM      7  CA  LYS A 135      33.193  34.663   9.290  1.00 25.02     0.186 C 
ENDROOT
BRANCH   7   8
ATOM      8  CB  LYS A 135      32.060  35.360  10.034  1.00 26.63     0.034 C 
BRANCH   8   9
ATOM      9  CG  LYS A 135      30.881  35.697   9.158  1.00 29.45     0.005 C 
BRANCH   9  10
ATOM     10  CD  LYS A 135      30.295  34.438   8.539  1.00 32.00     0.041 C 
BRANCH  10  11
ATOM     11  CE  LYS A 135      29.006  34.051   9.238  1.00 34.25     0.338 C 
ATOM     12  NZ  LYS A 135      27.820  34.405   8.410  1.00 35.99     0.618 N 
ENDBRANCH  10  11
ENDBRANCH   9  10
ENDBRANCH   8   9
ENDBRANCH   7   8
END_RES LYS A 135
