REMARK VINA RESULT:    -4.376      2.971      6.950
REMARK INTER + INTRA:         -15.094
REMARK INTER:                  -8.105
REMARK INTRA:                  -6.989
REMARK UNBOUND:                -6.753
REMARK SMILES COCC(C(N)=O)n1cc(COC(=O)NC[C@@H](O)C(O)[C@@H]2O[C@@](O)(C(=O)O)C[C@H](O)[C@H]2NC(C)=O)nn1
REMARK SMILES IDX 15 1 13 2 14 3 16 5 17 6 19 7 21 8 23 9 28 10 22 11 29 12
REMARK SMILES IDX 31 13 24 14 25 16 26 17 27 18 30 20 32 22 33 23 34 25 35 26
REMARK SMILES IDX 20 27 18 29 12 31 11 32 10 33 9 34 36 35 8 36 37 37 4 38
REMARK SMILES IDX 3 39 2 40 1 41 5 42 7 43 6 44
REMARK H PARENT 15 4 24 15 27 19 30 21 32 24 20 28 18 30 6 45 6 46
REMARK Flexibility Score: inf
ROOT
ATOM      1  N   UNL     1      28.650  30.979  18.218  1.00  0.00    -0.319 N 
ATOM      2  C   UNL     1      28.428  29.939  19.143  1.00  0.00     0.407 C 
ATOM      3  O   UNL     1      29.326  29.533  19.915  1.00  0.00    -0.225 OA
ATOM      4  H   UNL     1      27.832  31.253  17.616  1.00  0.00     0.167 HD
ENDROOT
BRANCH   1   5
ATOM      5  C   UNL     1      29.869  31.686  18.024  1.00  0.00     0.154 C 
BRANCH   5   6
ATOM      6  C   UNL     1      30.650  31.389  16.798  1.00  0.00     0.165 C 
BRANCH   6   7
ATOM      7  C   UNL     1      31.213  32.629  16.137  1.00  0.00     0.176 C 
BRANCH   7   8
ATOM      8  C   UNL     1      30.233  33.743  15.949  1.00  0.00     0.178 C 
ATOM      9  C   UNL     1      28.293  34.207  14.776  1.00  0.00     0.269 C 
ATOM     10  C   UNL     1      28.374  35.386  15.710  1.00  0.00     0.112 C 
ATOM     11  O   UNL     1      29.307  33.289  14.986  1.00  0.00    -0.332 OA
ATOM     12  C   UNL     1      29.686  36.085  15.685  1.00  0.00     0.145 C 
ATOM     13  C   UNL     1      30.783  35.034  15.451  1.00  0.00     0.142 C 
BRANCH   9  14
ATOM     14  O   UNL     1      28.242  34.671  13.474  1.00  0.00    -0.357 OA
ATOM     15  H   UNL     1      29.075  35.116  13.180  1.00  0.00     0.214 HD
ENDBRANCH   9  14
BRANCH   9  16
ATOM     16  C   UNL     1      27.006  33.514  15.054  1.00  0.00     0.364 C 
ATOM     17  O   UNL     1      26.011  33.622  14.284  1.00  0.00    -0.246 OA
BRANCH  16  18
ATOM     18  O   UNL     1      26.827  32.705  16.182  1.00  0.00    -0.477 OA
ATOM     19  H   UNL     1      26.071  32.864  16.834  1.00  0.00     0.296 HD
ENDBRANCH  16  18
ENDBRANCH   9  16
BRANCH  12  20
ATOM     20  O   UNL     1      29.758  37.087  14.719  1.00  0.00    -0.391 OA
ATOM     21  H   UNL     1      30.349  36.740  13.995  1.00  0.00     0.211 HD
ENDBRANCH  12  20
BRANCH  13  22
ATOM     22  N   UNL     1      31.950  35.541  16.088  1.00  0.00    -0.348 N 
ATOM     23  C   UNL     1      33.274  35.388  15.528  1.00  0.00     0.217 C 
ATOM     24  H   UNL     1      31.924  36.064  16.989  1.00  0.00     0.163 HD
ATOM     25  C   UNL     1      34.461  35.933  16.228  1.00  0.00     0.114 C 
ATOM     26  O   UNL     1      33.420  34.795  14.453  1.00  0.00    -0.275 OA
ENDBRANCH  13  22
ENDBRANCH   7   8
BRANCH   7  27
ATOM     27  O   UNL     1      31.523  32.191  14.812  1.00  0.00    -0.388 OA
ATOM     28  H   UNL     1      32.241  31.537  14.820  1.00  0.00     0.211 HD
ENDBRANCH   7  27
ENDBRANCH   6   7
BRANCH   6  29
ATOM     29  O   UNL     1      29.836  30.782  15.845  1.00  0.00    -0.388 OA
ATOM     30  H   UNL     1      28.947  31.210  15.839  1.00  0.00     0.211 HD
ENDBRANCH   6  29
ENDBRANCH   5   6
ENDBRANCH   1   5
BRANCH   2  31
ATOM     31  O   UNL     1      27.188  29.315  19.236  1.00  0.00    -0.443 OA
BRANCH  31  32
ATOM     32  C   UNL     1      26.765  28.367  18.291  1.00  0.00     0.294 C 
BRANCH  32  33
ATOM     33  C   UNL     1      26.169  29.025  17.114  1.00  0.00     0.120 A 
ATOM     34  C   UNL     1      24.833  29.084  16.767  1.00  0.00     0.139 A 
ATOM     35  N   UNL     1      26.864  29.690  16.166  1.00  0.00    -0.132 NA
ATOM     36  N   UNL     1      24.765  29.776  15.636  1.00  0.00    -0.237 N 
ATOM     37  N   UNL     1      25.966  30.132  15.282  1.00  0.00    -0.066 NA
BRANCH  36  38
ATOM     38  C   UNL     1      23.546  30.093  14.895  1.00  0.00     0.223 C 
BRANCH  38  39
ATOM     39  C   UNL     1      22.976  31.372  15.439  1.00  0.00     0.197 C 
BRANCH  39  40
ATOM     40  O   UNL     1      21.767  31.147  16.057  1.00  0.00    -0.382 OA
ATOM     41  C   UNL     1      20.666  31.300  15.243  1.00  0.00     0.195 C 
ENDBRANCH  39  40
ENDBRANCH  38  39
BRANCH  38  42
ATOM     42  C   UNL     1      23.902  30.306  13.454  1.00  0.00     0.244 C 
ATOM     43  O   UNL     1      23.878  29.364  12.648  1.00  0.00    -0.273 OA
ATOM     44  N   UNL     1      24.265  31.619  13.052  1.00  0.00    -0.368 N 
ATOM     45  H   UNL     1      24.142  31.886  12.048  1.00  0.00     0.159 HD
ATOM     46  H   UNL     1      24.639  32.295  13.728  1.00  0.00     0.159 HD
ENDBRANCH  38  42
ENDBRANCH  36  38
ENDBRANCH  32  33
ENDBRANCH  31  32
ENDBRANCH   2  31
TORSDOF 18
BEGIN_RES LYS A 131
REMARK  4 active torsions:
REMARK  status: ('A' for Active; 'I' for Inactive)
REMARK    1  A    between atoms: CA   and  CB  
REMARK    2  A    between atoms: CB   and  CG  
REMARK    3  A    between atoms: CG   and  CD  
REMARK    4  A    between atoms: CD   and  CE  
ROOT
ATOM      1  CA  LYS A 131      29.867  25.555  16.977  1.00 20.52     0.186 C 
ENDROOT
BRANCH   1   2
ATOM      2  CB  LYS A 131      28.345  25.722  17.026  1.00 20.94     0.034 C 
BRANCH   2   3
ATOM      3  CG  LYS A 131      27.601  24.403  16.886  1.00 22.96     0.005 C 
BRANCH   3   4
ATOM      4  CD  LYS A 131      26.151  24.527  17.264  1.00 24.33     0.041 C 
BRANCH   4   5
ATOM      5  CE  LYS A 131      25.638  23.180  17.764  1.00 26.91     0.338 C 
ATOM      6  NZ  LYS A 131      25.527  23.183  19.242  1.00 27.40     0.618 N 
ENDBRANCH   4   5
ENDBRANCH   3   4
ENDBRANCH   2   3
ENDBRANCH   1   2
END_RES LYS A 131
BEGIN_RES LYS A 135
REMARK  4 active torsions:
REMARK  status: ('A' for Active; 'I' for Inactive)
REMARK    5  A    between atoms: CA   and  CB  
REMARK    6  A    between atoms: CB   and  CG  
REMARK    7  A    between atoms: CG   and  CD  
REMARK    8  A    between atoms: CD   and  CE  
ROOT
ATOM      7  CA  LYS A 135      33.193  34.663   9.290  1.00 25.02     0.186 C 
ENDROOT
BRANCH   7   8
ATOM      8  CB  LYS A 135      32.060  35.360  10.034  1.00 26.63     0.034 C 
BRANCH   8   9
ATOM      9  CG  LYS A 135      30.801  35.501   9.218  1.00 29.45     0.005 C 
BRANCH   9  10
ATOM     10  CD  LYS A 135      30.146  34.146   9.002  1.00 32.00     0.041 C 
BRANCH  10  11
ATOM     11  CE  LYS A 135      28.677  34.312   8.663  1.00 34.25     0.338 C 
ATOM     12  NZ  LYS A 135      27.813  33.670   9.693  1.00 35.99     0.618 N 
ENDBRANCH  10  11
ENDBRANCH   9  10
ENDBRANCH   8   9
ENDBRANCH   7   8
END_RES LYS A 135
