REMARK VINA RESULT:    -5.302      1.610      2.222
REMARK INTER + INTRA:         -16.479
REMARK INTER:                 -10.223
REMARK INTRA:                  -6.256
REMARK UNBOUND:                -6.527
REMARK SMILES CC(=O)N[C@@H]1[C@@H](O)C[C@](O)(C(=O)O)O[C@H]1C(O)[C@H](O)CNC(=O)OCc1cn(-c2ccc(S(=O)(=O)c3ccc(N)cc3)cc2)nn1
REMARK SMILES IDX 21 1 22 2 23 3 20 5 18 6 16 7 15 8 9 9 8 10 14 11 6 12 5 13
REMARK SMILES IDX 10 14 11 16 12 17 13 18 7 20 4 22 2 23 1 25 3 26 17 27 19 29
REMARK SMILES IDX 24 31 25 32 26 33 27 34 46 35 28 36 45 37 29 38 30 39 44 40
REMARK SMILES IDX 31 41 43 42 32 43 33 44 34 45 35 46 36 47 37 48 42 49 38 50
REMARK SMILES IDX 41 51 39 52 40 53
REMARK H PARENT 21 4 10 15 13 19 7 21 4 24 17 28 19 30 40 54 40 55
REMARK Flexibility Score: inf
ROOT
ATOM      1  N   UNL     1      27.202  27.955  20.644  1.00  0.00    -0.319 N 
ATOM      2  C   UNL     1      26.514  28.707  19.662  1.00  0.00     0.407 C 
ATOM      3  O   UNL     1      26.248  29.896  19.865  1.00  0.00    -0.225 OA
ATOM      4  H   UNL     1      27.390  26.938  20.381  1.00  0.00     0.167 HD
ENDROOT
BRANCH   1   5
ATOM      5  C   UNL     1      27.644  28.461  21.923  1.00  0.00     0.154 C 
BRANCH   5   6
ATOM      6  C   UNL     1      28.986  27.898  22.238  1.00  0.00     0.165 C 
BRANCH   6   7
ATOM      7  C   UNL     1      29.985  28.085  21.115  1.00  0.00     0.176 C 
BRANCH   7   8
ATOM      8  C   UNL     1      31.393  28.284  21.562  1.00  0.00     0.178 C 
ATOM      9  C   UNL     1      32.628  28.091  23.513  1.00  0.00     0.269 C 
ATOM     10  C   UNL     1      33.747  28.834  22.854  1.00  0.00     0.112 C 
ATOM     11  O   UNL     1      31.766  27.483  22.617  1.00  0.00    -0.332 OA
ATOM     12  C   UNL     1      33.331  29.719  21.734  1.00  0.00     0.145 C 
ATOM     13  C   UNL     1      31.793  29.732  21.697  1.00  0.00     0.142 C 
BRANCH   9  14
ATOM     14  O   UNL     1      31.930  28.913  24.427  1.00  0.00    -0.357 OA
ATOM     15  H   UNL     1      32.036  28.540  25.319  1.00  0.00     0.214 HD
ENDBRANCH   9  14
BRANCH   9  16
ATOM     16  C   UNL     1      33.235  27.004  24.337  1.00  0.00     0.364 C 
ATOM     17  O   UNL     1      34.191  26.331  23.843  1.00  0.00    -0.246 OA
BRANCH  16  18
ATOM     18  O   UNL     1      32.826  26.683  25.606  1.00  0.00    -0.477 OA
ATOM     19  H   UNL     1      31.838  26.701  25.851  1.00  0.00     0.296 HD
ENDBRANCH  16  18
ENDBRANCH   9  16
BRANCH  12  20
ATOM     20  O   UNL     1      33.829  31.009  21.824  1.00  0.00    -0.391 OA
ATOM     21  H   UNL     1      33.549  31.410  22.707  1.00  0.00     0.211 HD
ENDBRANCH  12  20
BRANCH  13  22
ATOM     22  N   UNL     1      31.373  30.421  20.483  1.00  0.00    -0.348 N 
ATOM     23  C   UNL     1      31.031  31.795  20.529  1.00  0.00     0.217 C 
ATOM     24  H   UNL     1      31.310  29.938  19.562  1.00  0.00     0.163 HD
ATOM     25  C   UNL     1      30.590  32.535  19.293  1.00  0.00     0.114 C 
ATOM     26  O   UNL     1      31.072  32.468  21.581  1.00  0.00    -0.275 OA
ENDBRANCH  13  22
ENDBRANCH   7   8
BRANCH   7  27
ATOM     27  O   UNL     1      29.844  26.960  20.294  1.00  0.00    -0.388 OA
ATOM     28  H   UNL     1      28.910  26.916  20.001  1.00  0.00     0.211 HD
ENDBRANCH   7  27
ENDBRANCH   6   7
BRANCH   6  29
ATOM     29  O   UNL     1      28.890  26.582  22.667  1.00  0.00    -0.388 OA
ATOM     30  H   UNL     1      28.681  26.010  21.885  1.00  0.00     0.211 HD
ENDBRANCH   6  29
ENDBRANCH   5   6
ENDBRANCH   1   5
BRANCH   2  31
ATOM     31  O   UNL     1      26.108  28.166  18.446  1.00  0.00    -0.443 OA
BRANCH  31  32
ATOM     32  C   UNL     1      26.989  28.058  17.339  1.00  0.00     0.294 C 
BRANCH  32  33
ATOM     33  C   UNL     1      27.201  29.372  16.669  1.00  0.00     0.121 A 
ATOM     34  C   UNL     1      28.398  30.035  16.639  1.00  0.00     0.144 A 
ATOM     35  N   UNL     1      26.314  30.124  16.002  1.00  0.00    -0.131 NA
ATOM     36  N   UNL     1      28.214  31.185  15.950  1.00  0.00    -0.220 N 
ATOM     37  N   UNL     1      26.961  31.195  15.590  1.00  0.00    -0.062 NA
BRANCH  36  38
ATOM     38  C   UNL     1      29.248  32.128  15.718  1.00  0.00     0.066 A 
ATOM     39  C   UNL     1      28.941  33.453  15.499  1.00  0.00     0.030 A 
ATOM     40  C   UNL     1      30.579  31.775  15.701  1.00  0.00     0.030 A 
ATOM     41  C   UNL     1      29.919  34.407  15.269  1.00  0.00     0.023 A 
ATOM     42  C   UNL     1      31.575  32.730  15.470  1.00  0.00     0.023 A 
ATOM     43  C   UNL     1      31.243  34.046  15.254  1.00  0.00     0.072 A 
BRANCH  43  44
ATOM     44  S   UNL     1      32.463  35.236  14.968  1.00  0.00     0.206 S 
ATOM     45  O   UNL     1      31.842  36.483  14.435  1.00  0.00    -0.219 OA
ATOM     46  O   UNL     1      33.497  34.778  13.982  1.00  0.00    -0.219 OA
BRANCH  44  47
ATOM     47  C   UNL     1      33.287  35.534  16.494  1.00  0.00     0.072 A 
ATOM     48  C   UNL     1      34.598  35.931  16.470  1.00  0.00     0.023 A 
ATOM     49  C   UNL     1      32.637  35.377  17.714  1.00  0.00     0.023 A 
ATOM     50  C   UNL     1      35.287  36.177  17.651  1.00  0.00     0.027 A 
ATOM     51  C   UNL     1      33.296  35.614  18.911  1.00  0.00     0.027 A 
ATOM     52  C   UNL     1      34.611  36.010  18.844  1.00  0.00     0.031 A 
BRANCH  52  53
ATOM     53  N   UNL     1      35.300  36.257  20.052  1.00  0.00    -0.399 N 
ATOM     54  H   UNL     1      36.265  36.629  20.038  1.00  0.00     0.156 HD
ATOM     55  H   UNL     1      34.832  36.062  20.953  1.00  0.00     0.156 HD
ENDBRANCH  52  53
ENDBRANCH  44  47
ENDBRANCH  43  44
ENDBRANCH  36  38
ENDBRANCH  32  33
ENDBRANCH  31  32
ENDBRANCH   2  31
TORSDOF 18
BEGIN_RES LYS A 131
REMARK  4 active torsions:
REMARK  status: ('A' for Active; 'I' for Inactive)
REMARK    1  A    between atoms: CA   and  CB  
REMARK    2  A    between atoms: CB   and  CG  
REMARK    3  A    between atoms: CG   and  CD  
REMARK    4  A    between atoms: CD   and  CE  
ROOT
ATOM      1  CA  LYS A 131      29.867  25.555  16.977  1.00 20.52     0.186 C 
ENDROOT
BRANCH   1   2
ATOM      2  CB  LYS A 131      28.345  25.722  17.026  1.00 20.94     0.034 C 
BRANCH   2   3
ATOM      3  CG  LYS A 131      27.602  24.398  16.933  1.00 22.96     0.005 C 
BRANCH   3   4
ATOM      4  CD  LYS A 131      26.530  24.276  17.980  1.00 24.33     0.041 C 
BRANCH   4   5
ATOM      5  CE  LYS A 131      25.179  24.067  17.303  1.00 26.91     0.338 C 
ATOM      6  NZ  LYS A 131      24.773  22.644  17.383  1.00 27.40     0.618 N 
ENDBRANCH   4   5
ENDBRANCH   3   4
ENDBRANCH   2   3
ENDBRANCH   1   2
END_RES LYS A 131
BEGIN_RES LYS A 135
REMARK  4 active torsions:
REMARK  status: ('A' for Active; 'I' for Inactive)
REMARK    5  A    between atoms: CA   and  CB  
REMARK    6  A    between atoms: CB   and  CG  
REMARK    7  A    between atoms: CG   and  CD  
REMARK    8  A    between atoms: CD   and  CE  
ROOT
ATOM      7  CA  LYS A 135      33.193  34.663   9.290  1.00 25.02     0.186 C 
ENDROOT
BRANCH   7   8
ATOM      8  CB  LYS A 135      32.060  35.360  10.034  1.00 26.63     0.034 C 
BRANCH   8   9
ATOM      9  CG  LYS A 135      30.721  34.693   9.853  1.00 29.45     0.005 C 
BRANCH   9  10
ATOM     10  CD  LYS A 135      30.276  34.766   8.401  1.00 32.00     0.041 C 
BRANCH  10  11
ATOM     11  CE  LYS A 135      28.780  34.542   8.290  1.00 34.25     0.338 C 
ATOM     12  NZ  LYS A 135      28.258  33.807   9.475  1.00 35.99     0.618 N 
ENDBRANCH  10  11
ENDBRANCH   9  10
ENDBRANCH   8   9
ENDBRANCH   7   8
END_RES LYS A 135
