REMARK VINA RESULT:    -4.221      3.938      7.216
REMARK INTER + INTRA:         -13.591
REMARK INTER:                  -7.721
REMARK INTRA:                  -5.871
REMARK UNBOUND:                -6.285
REMARK SMILES CC(=O)N[C@@H]1[C@@H](O)C[C@](O)(C(=O)O)O[C@H]1C(O)[C@H](O)CNC(=O)OCc1cn(-c2ccccc2I)nn1
REMARK SMILES IDX 20 1 18 2 16 3 15 4 9 5 8 6 14 7 6 8 5 9 10 10 11 12 12 13
REMARK SMILES IDX 13 14 7 16 4 18 2 19 1 21 3 22 17 23 19 25 21 27 22 28 23 30
REMARK SMILES IDX 24 31 25 32 26 33 27 34 37 35 28 36 36 37 29 38 30 39 34 40
REMARK SMILES IDX 31 41 33 42 35 43 32 44
REMARK H PARENT 10 11 13 15 7 17 4 20 17 24 19 26 21 29
REMARK Flexibility Score: inf
ROOT
ATOM      1  C   UNL     1      27.175  35.345  16.585  1.00  0.00     0.154 C 
ENDROOT
BRANCH   1   2
ATOM      2  C   UNL     1      27.471  34.747  15.228  1.00  0.00     0.165 C 
BRANCH   2   3
ATOM      3  C   UNL     1      28.757  34.000  15.248  1.00  0.00     0.176 C 
BRANCH   3   4
ATOM      4  C   UNL     1      29.972  34.791  15.657  1.00  0.00     0.178 C 
ATOM      5  C   UNL     1      31.502  35.016  13.878  1.00  0.00     0.269 C 
ATOM      6  C   UNL     1      32.620  34.457  14.733  1.00  0.00     0.112 C 
ATOM      7  O   UNL     1      30.419  35.445  14.558  1.00  0.00    -0.332 OA
ATOM      8  C   UNL     1      32.007  33.415  15.633  1.00  0.00     0.145 C 
ATOM      9  C   UNL     1      30.970  34.094  16.492  1.00  0.00     0.142 C 
BRANCH   5  10
ATOM     10  O   UNL     1      31.114  33.974  13.036  1.00  0.00    -0.357 OA
ATOM     11  H   UNL     1      30.188  34.196  12.718  1.00  0.00     0.214 HD
ENDBRANCH   5  10
BRANCH   5  12
ATOM     12  C   UNL     1      32.109  36.078  13.016  1.00  0.00     0.364 C 
ATOM     13  O   UNL     1      31.767  37.280  13.068  1.00  0.00    -0.246 OA
BRANCH  12  14
ATOM     14  O   UNL     1      33.090  35.710  12.120  1.00  0.00    -0.477 OA
ATOM     15  H   UNL     1      33.055  34.841  11.583  1.00  0.00     0.296 HD
ENDBRANCH  12  14
ENDBRANCH   5  12
BRANCH   8  16
ATOM     16  O   UNL     1      31.463  32.436  14.799  1.00  0.00    -0.391 OA
ATOM     17  H   UNL     1      30.775  32.802  14.191  1.00  0.00     0.211 HD
ENDBRANCH   8  16
BRANCH   9  18
ATOM     18  N   UNL     1      31.696  35.067  17.328  1.00  0.00    -0.348 N 
ATOM     19  C   UNL     1      32.023  34.795  18.679  1.00  0.00     0.217 C 
ATOM     20  H   UNL     1      31.981  35.983  16.929  1.00  0.00     0.163 HD
ATOM     21  C   UNL     1      32.754  35.824  19.453  1.00  0.00     0.114 C 
ATOM     22  O   UNL     1      31.701  33.698  19.224  1.00  0.00    -0.275 OA
ENDBRANCH   9  18
ENDBRANCH   3   4
BRANCH   3  23
ATOM     23  O   UNL     1      28.653  32.762  15.868  1.00  0.00    -0.388 OA
ATOM     24  H   UNL     1      27.704  32.463  15.936  1.00  0.00     0.211 HD
ENDBRANCH   3  23
ENDBRANCH   2   3
BRANCH   2  25
ATOM     25  O   UNL     1      27.529  35.851  14.338  1.00  0.00    -0.388 OA
ATOM     26  H   UNL     1      27.882  35.541  13.460  1.00  0.00     0.211 HD
ENDBRANCH   2  25
ENDBRANCH   1   2
BRANCH   1  27
ATOM     27  N   UNL     1      26.890  34.363  17.606  1.00  0.00    -0.319 N 
ATOM     28  C   UNL     1      27.658  34.379  18.813  1.00  0.00     0.407 C 
ATOM     29  H   UNL     1      26.133  33.678  17.439  1.00  0.00     0.167 HD
ATOM     30  O   UNL     1      28.546  35.240  18.937  1.00  0.00    -0.225 OA
BRANCH  28  31
ATOM     31  O   UNL     1      27.364  33.427  19.775  1.00  0.00    -0.443 OA
BRANCH  31  32
ATOM     32  C   UNL     1      27.112  32.107  19.368  1.00  0.00     0.294 C 
BRANCH  32  33
ATOM     33  C   UNL     1      28.385  31.350  19.445  1.00  0.00     0.121 A 
ATOM     34  C   UNL     1      28.715  30.474  20.486  1.00  0.00     0.144 A 
ATOM     35  N   UNL     1      29.428  31.330  18.607  1.00  0.00    -0.131 NA
ATOM     36  N   UNL     1      29.929  30.004  20.183  1.00  0.00    -0.219 N 
ATOM     37  N   UNL     1      30.369  30.514  19.050  1.00  0.00    -0.062 NA
BRANCH  36  38
ATOM     38  C   UNL     1      30.656  29.077  20.970  1.00  0.00     0.080 A 
ATOM     39  C   UNL     1      30.441  27.713  20.774  1.00  0.00     0.029 A 
ATOM     40  C   UNL     1      31.549  29.537  21.898  1.00  0.00     0.039 A 
ATOM     41  C   UNL     1      31.145  26.804  21.535  1.00  0.00     0.002 A 
ATOM     42  C   UNL     1      32.244  28.609  22.651  1.00  0.00     0.017 A 
ATOM     43  I   UNL     1      31.906  31.586  22.229  1.00  0.00    -0.042 I 
ATOM     44  C   UNL     1      32.048  27.251  22.475  1.00  0.00     0.001 A 
ENDBRANCH  36  38
ENDBRANCH  32  33
ENDBRANCH  31  32
ENDBRANCH  28  31
ENDBRANCH   1  27
TORSDOF 15
BEGIN_RES LYS A 131
REMARK  4 active torsions:
REMARK  status: ('A' for Active; 'I' for Inactive)
REMARK    1  A    between atoms: CA   and  CB  
REMARK    2  A    between atoms: CB   and  CG  
REMARK    3  A    between atoms: CG   and  CD  
REMARK    4  A    between atoms: CD   and  CE  
ROOT
ATOM      1  CA  LYS A 131      29.867  25.555  16.977  1.00 20.52     0.186 C 
ENDROOT
BRANCH   1   2
ATOM      2  CB  LYS A 131      28.345  25.722  17.026  1.00 20.94     0.034 C 
BRANCH   2   3
ATOM      3  CG  LYS A 131      27.601  24.402  16.893  1.00 22.96     0.005 C 
BRANCH   3   4
ATOM      4  CD  LYS A 131      26.500  24.267  17.908  1.00 24.33     0.041 C 
BRANCH   4   5
ATOM      5  CE  LYS A 131      26.383  25.562  18.706  1.00 26.91     0.338 C 
ATOM      6  NZ  LYS A 131      25.628  25.331  19.961  1.00 27.40     0.618 N 
ENDBRANCH   4   5
ENDBRANCH   3   4
ENDBRANCH   2   3
ENDBRANCH   1   2
END_RES LYS A 131
BEGIN_RES LYS A 135
REMARK  4 active torsions:
REMARK  status: ('A' for Active; 'I' for Inactive)
REMARK    5  A    between atoms: CA   and  CB  
REMARK    6  A    between atoms: CB   and  CG  
REMARK    7  A    between atoms: CG   and  CD  
REMARK    8  A    between atoms: CD   and  CE  
ROOT
ATOM      7  CA  LYS A 135      33.193  34.663   9.290  1.00 25.02     0.186 C 
ENDROOT
BRANCH   7   8
ATOM      8  CB  LYS A 135      32.060  35.360  10.034  1.00 26.63     0.034 C 
BRANCH   8   9
ATOM      9  CG  LYS A 135      30.788  35.464   9.233  1.00 29.45     0.005 C 
BRANCH   9  10
ATOM     10  CD  LYS A 135      30.224  34.083   8.939  1.00 32.00     0.041 C 
BRANCH  10  11
ATOM     11  CE  LYS A 135      28.712  34.089   9.053  1.00 34.25     0.338 C 
ATOM     12  NZ  LYS A 135      28.097  34.931   7.989  1.00 35.99     0.618 N 
ENDBRANCH  10  11
ENDBRANCH   9  10
ENDBRANCH   8   9
ENDBRANCH   7   8
END_RES LYS A 135
