REMARK VINA RESULT:    -4.150      3.617      6.824
REMARK INTER + INTRA:         -15.635
REMARK INTER:                 -10.327
REMARK INTRA:                  -5.308
REMARK UNBOUND:                -7.118
REMARK SMILES CC(=O)N[C@@H]1[C@@H](O)C[C@](O)(C(=O)O)O[C@H]1C(O)[C@H](O)CNC(=O)OCc1cn(C[C@H](CC(=O)O)CC(C)C)nn1
REMARK SMILES IDX 24 1 22 2 21 3 23 5 20 6 18 7 16 8 15 9 9 10 8 11 14 12 6 13
REMARK SMILES IDX 5 14 10 15 11 17 12 18 13 19 7 21 4 23 2 24 1 26 3 27 17 28
REMARK SMILES IDX 19 30 25 32 26 33 27 34 40 35 28 36 39 37 29 38 30 39 31 40
REMARK SMILES IDX 32 41 33 42 34 43 35 45 36 46 37 47 38 48
REMARK H PARENT 21 4 10 16 13 20 7 22 4 25 17 29 19 31 34 44
REMARK Flexibility Score: inf
ROOT
ATOM      1  O   UNL     1      32.186  35.562  16.553  1.00  0.00    -0.443 OA
ENDROOT
BRANCH   1   2
ATOM      2  C   UNL     1      31.812  34.413  15.834  1.00  0.00     0.407 C 
ATOM      3  N   UNL     1      31.369  33.243  16.496  1.00  0.00    -0.319 N 
ATOM      4  H   UNL     1      31.337  33.293  17.563  1.00  0.00     0.167 HD
ATOM      5  O   UNL     1      31.882  34.457  14.582  1.00  0.00    -0.225 OA
BRANCH   3   6
ATOM      6  C   UNL     1      30.977  32.033  15.809  1.00  0.00     0.154 C 
BRANCH   6   7
ATOM      7  C   UNL     1      30.240  31.143  16.748  1.00  0.00     0.165 C 
BRANCH   7   8
ATOM      8  C   UNL     1      28.854  30.754  16.261  1.00  0.00     0.176 C 
BRANCH   8   9
ATOM      9  C   UNL     1      27.872  30.685  17.388  1.00  0.00     0.178 C 
ATOM     10  C   UNL     1      27.360  28.685  18.453  1.00  0.00     0.269 C 
ATOM     11  C   UNL     1      25.905  29.036  18.654  1.00  0.00     0.112 C 
ATOM     12  O   UNL     1      28.175  29.804  18.384  1.00  0.00    -0.332 OA
ATOM     13  C   UNL     1      25.584  30.420  18.130  1.00  0.00     0.145 C 
ATOM     14  C   UNL     1      26.441  30.578  16.867  1.00  0.00     0.142 C 
BRANCH  10  15
ATOM     15  O   UNL     1      27.523  27.850  17.343  1.00  0.00    -0.357 OA
ATOM     16  H   UNL     1      27.892  26.975  17.567  1.00  0.00     0.214 HD
ENDBRANCH  10  15
BRANCH  10  17
ATOM     17  C   UNL     1      27.793  27.907  19.643  1.00  0.00     0.364 C 
ATOM     18  O   UNL     1      27.044  27.891  20.668  1.00  0.00    -0.246 OA
BRANCH  17  19
ATOM     19  O   UNL     1      28.971  27.193  19.702  1.00  0.00    -0.477 OA
ATOM     20  H   UNL     1      29.022  26.272  19.238  1.00  0.00     0.296 HD
ENDBRANCH  17  19
ENDBRANCH  10  17
BRANCH  13  21
ATOM     21  O   UNL     1      24.248  30.610  17.880  1.00  0.00    -0.391 OA
ATOM     22  H   UNL     1      24.185  31.301  17.151  1.00  0.00     0.211 HD
ENDBRANCH  13  21
BRANCH  14  23
ATOM     23  N   UNL     1      26.108  31.794  16.169  1.00  0.00    -0.348 N 
ATOM     24  C   UNL     1      25.440  31.751  14.906  1.00  0.00     0.217 C 
ATOM     25  H   UNL     1      26.330  32.751  16.539  1.00  0.00     0.163 HD
ATOM     26  C   UNL     1      25.085  32.976  14.166  1.00  0.00     0.114 C 
ATOM     27  O   UNL     1      25.145  30.638  14.404  1.00  0.00    -0.275 OA
ENDBRANCH  14  23
ENDBRANCH   8   9
BRANCH   8  28
ATOM     28  O   UNL     1      28.908  29.623  15.480  1.00  0.00    -0.388 OA
ATOM     29  H   UNL     1      29.703  29.667  14.909  1.00  0.00     0.211 HD
ENDBRANCH   8  28
ENDBRANCH   7   8
BRANCH   7  30
ATOM     30  O   UNL     1      30.064  31.837  17.969  1.00  0.00    -0.388 OA
ATOM     31  H   UNL     1      30.138  31.228  18.737  1.00  0.00     0.211 HD
ENDBRANCH   7  30
ENDBRANCH   6   7
ENDBRANCH   3   6
ENDBRANCH   1   2
BRANCH   1  32
ATOM     32  C   UNL     1      32.734  35.376  17.833  1.00  0.00     0.294 C 
BRANCH  32  33
ATOM     33  C   UNL     1      34.112  35.890  17.936  1.00  0.00     0.120 A 
ATOM     34  C   UNL     1      35.076  36.061  16.953  1.00  0.00     0.138 A 
ATOM     35  N   UNL     1      34.696  36.303  19.067  1.00  0.00    -0.132 NA
ATOM     36  N   UNL     1      36.189  36.564  17.515  1.00  0.00    -0.252 N 
ATOM     37  N   UNL     1      35.934  36.700  18.791  1.00  0.00    -0.067 NA
BRANCH  36  38
ATOM     38  C   UNL     1      37.443  36.885  16.779  1.00  0.00     0.150 C 
BRANCH  38  39
ATOM     39  C   UNL     1      38.061  35.629  16.273  1.00  0.00     0.022 C 
BRANCH  39  40
ATOM     40  C   UNL     1      39.055  35.148  17.315  1.00  0.00     0.128 C 
BRANCH  40  41
ATOM     41  C   UNL     1      38.584  33.859  17.883  1.00  0.00     0.303 C 
ATOM     42  O   UNL     1      37.848  33.831  18.885  1.00  0.00    -0.252 OA
BRANCH  41  43
ATOM     43  O   UNL     1      39.000  32.686  17.246  1.00  0.00    -0.481 OA
ATOM     44  H   UNL     1      38.319  32.009  16.965  1.00  0.00     0.296 HD
ENDBRANCH  41  43
ENDBRANCH  40  41
ENDBRANCH  39  40
BRANCH  39  45
ATOM     45  C   UNL     1      38.608  35.749  14.911  1.00  0.00     0.009 C 
BRANCH  45  46
ATOM     46  C   UNL     1      38.874  34.507  14.148  1.00  0.00    -0.017 C 
ATOM     47  C   UNL     1      37.483  33.842  13.942  1.00  0.00     0.007 C 
ATOM     48  C   UNL     1      39.487  34.652  12.797  1.00  0.00     0.007 C 
ENDBRANCH  45  46
ENDBRANCH  39  45
ENDBRANCH  38  39
ENDBRANCH  36  38
ENDBRANCH  32  33
ENDBRANCH   1  32
TORSDOF 21
BEGIN_RES LYS A 131
REMARK  4 active torsions:
REMARK  status: ('A' for Active; 'I' for Inactive)
REMARK    1  A    between atoms: CA   and  CB  
REMARK    2  A    between atoms: CB   and  CG  
REMARK    3  A    between atoms: CG   and  CD  
REMARK    4  A    between atoms: CD   and  CE  
ROOT
ATOM      1  CA  LYS A 131      29.867  25.555  16.977  1.00 20.52     0.186 C 
ENDROOT
BRANCH   1   2
ATOM      2  CB  LYS A 131      28.345  25.722  17.026  1.00 20.94     0.034 C 
BRANCH   2   3
ATOM      3  CG  LYS A 131      27.604  24.394  16.991  1.00 22.96     0.005 C 
BRANCH   3   4
ATOM      4  CD  LYS A 131      26.177  24.530  17.446  1.00 24.33     0.041 C 
BRANCH   4   5
ATOM      5  CE  LYS A 131      25.522  23.153  17.485  1.00 26.91     0.338 C 
ATOM      6  NZ  LYS A 131      24.101  23.243  17.075  1.00 27.40     0.618 N 
ENDBRANCH   4   5
ENDBRANCH   3   4
ENDBRANCH   2   3
ENDBRANCH   1   2
END_RES LYS A 131
BEGIN_RES LYS A 135
REMARK  4 active torsions:
REMARK  status: ('A' for Active; 'I' for Inactive)
REMARK    5  A    between atoms: CA   and  CB  
REMARK    6  A    between atoms: CB   and  CG  
REMARK    7  A    between atoms: CG   and  CD  
REMARK    8  A    between atoms: CD   and  CE  
ROOT
ATOM      7  CA  LYS A 135      33.193  34.663   9.290  1.00 25.02     0.186 C 
ENDROOT
BRANCH   7   8
ATOM      8  CB  LYS A 135      32.060  35.360  10.034  1.00 26.63     0.034 C 
BRANCH   8   9
ATOM      9  CG  LYS A 135      30.786  35.459   9.235  1.00 29.45     0.005 C 
BRANCH   9  10
ATOM     10  CD  LYS A 135      30.159  34.086   9.051  1.00 32.00     0.041 C 
BRANCH  10  11
ATOM     11  CE  LYS A 135      28.705  34.102   9.481  1.00 34.25     0.338 C 
ATOM     12  NZ  LYS A 135      27.822  34.546   8.367  1.00 35.99     0.618 N 
ENDBRANCH  10  11
ENDBRANCH   9  10
ENDBRANCH   8   9
ENDBRANCH   7   8
END_RES LYS A 135
