REMARK VINA RESULT:    -4.030      4.008      7.353
REMARK INTER + INTRA:         -14.028
REMARK INTER:                  -8.178
REMARK INTRA:                  -5.850
REMARK UNBOUND:                -5.875
REMARK SMILES CC[N+](C)(CC)CCCn1cc(COC(=O)NC[C@@H](O)C(O)[C@@H]2O[C@@](O)(C(=O)O)C[C@H](O)[C@H]2NC(C)=O)nn1
REMARK SMILES IDX 14 1 15 2 17 3 16 5 18 6 19 7 21 8 23 9 25 10 30 11 24 12
REMARK SMILES IDX 31 13 33 14 26 15 27 17 28 18 29 19 32 21 34 23 35 24 36 26
REMARK SMILES IDX 37 27 22 28 20 30 13 32 12 33 11 34 38 35 10 36 39 37 9 38
REMARK SMILES IDX 8 39 7 40 3 41 4 42 2 43 1 44 5 45 6 46
REMARK H PARENT 17 4 26 16 29 20 32 22 34 25 22 29 20 31
REMARK Flexibility Score: inf
ROOT
ATOM      1  O   UNL     1      27.901  30.827  19.982  1.00  0.00    -0.443 OA
ENDROOT
BRANCH   1   2
ATOM      2  C   UNL     1      28.295  32.137  20.163  1.00  0.00     0.407 C 
ATOM      3  N   UNL     1      28.991  32.871  19.151  1.00  0.00    -0.319 N 
ATOM      4  H   UNL     1      29.173  32.368  18.276  1.00  0.00     0.167 HD
ATOM      5  O   UNL     1      28.034  32.699  21.252  1.00  0.00    -0.225 OA
BRANCH   3   6
ATOM      6  C   UNL     1      29.363  34.213  19.412  1.00  0.00     0.154 C 
BRANCH   6   7
ATOM      7  C   UNL     1      30.801  34.563  19.219  1.00  0.00     0.165 C 
BRANCH   7   8
ATOM      8  C   UNL     1      31.146  35.190  17.905  1.00  0.00     0.176 C 
BRANCH   8   9
ATOM      9  C   UNL     1      30.606  34.479  16.701  1.00  0.00     0.178 C 
ATOM     10  C   UNL     1      30.488  32.405  15.717  1.00  0.00     0.269 C 
ATOM     11  C   UNL     1      29.473  33.169  14.888  1.00  0.00     0.112 C 
ATOM     12  O   UNL     1      30.975  33.157  16.758  1.00  0.00    -0.332 OA
ATOM     13  C   UNL     1      30.084  34.411  14.316  1.00  0.00     0.145 C 
ATOM     14  C   UNL     1      30.964  35.070  15.381  1.00  0.00     0.142 C 
BRANCH  10  15
ATOM     15  O   UNL     1      31.559  32.086  14.863  1.00  0.00    -0.357 OA
ATOM     16  H   UNL     1      32.190  32.850  14.926  1.00  0.00     0.214 HD
ENDBRANCH  10  15
BRANCH  10  17
ATOM     17  C   UNL     1      29.890  31.153  16.207  1.00  0.00     0.364 C 
ATOM     18  O   UNL     1      30.027  30.810  17.414  1.00  0.00    -0.246 OA
BRANCH  17  19
ATOM     19  O   UNL     1      29.167  30.322  15.375  1.00  0.00    -0.477 OA
ATOM     20  H   UNL     1      28.181  30.191  15.499  1.00  0.00     0.296 HD
ENDBRANCH  17  19
ENDBRANCH  10  17
BRANCH  13  21
ATOM     21  O   UNL     1      30.854  34.058  13.199  1.00  0.00    -0.391 OA
ATOM     22  H   UNL     1      31.724  34.510  13.245  1.00  0.00     0.211 HD
ENDBRANCH  13  21
BRANCH  14  23
ATOM     23  N   UNL     1      30.612  36.491  15.308  1.00  0.00    -0.348 N 
ATOM     24  C   UNL     1      31.246  37.339  14.368  1.00  0.00     0.217 C 
ATOM     25  H   UNL     1      29.887  36.869  15.960  1.00  0.00     0.163 HD
ATOM     26  C   UNL     1      30.879  38.790  14.307  1.00  0.00     0.114 C 
ATOM     27  O   UNL     1      32.129  36.934  13.552  1.00  0.00    -0.275 OA
ENDBRANCH  14  23
ENDBRANCH   8   9
BRANCH   8  28
ATOM     28  O   UNL     1      30.720  36.527  17.915  1.00  0.00    -0.388 OA
ATOM     29  H   UNL     1      31.200  36.993  17.176  1.00  0.00     0.211 HD
ENDBRANCH   8  28
ENDBRANCH   7   8
BRANCH   7  30
ATOM     30  O   UNL     1      31.533  33.368  19.389  1.00  0.00    -0.388 OA
ATOM     31  H   UNL     1      31.009  32.573  19.163  1.00  0.00     0.211 HD
ENDBRANCH   7  30
ENDBRANCH   6   7
ENDBRANCH   3   6
ENDBRANCH   1   2
BRANCH   1  32
ATOM     32  C   UNL     1      26.554  30.558  19.618  1.00  0.00     0.294 C 
BRANCH  32  33
ATOM     33  C   UNL     1      26.410  30.606  18.146  1.00  0.00     0.120 A 
ATOM     34  C   UNL     1      26.007  31.641  17.330  1.00  0.00     0.138 A 
ATOM     35  N   UNL     1      26.662  29.585  17.299  1.00  0.00    -0.132 NA
ATOM     36  N   UNL     1      26.019  31.244  16.042  1.00  0.00    -0.252 N 
ATOM     37  N   UNL     1      26.422  29.991  16.069  1.00  0.00    -0.067 NA
BRANCH  36  38
ATOM     38  C   UNL     1      25.675  31.977  14.868  1.00  0.00     0.152 C 
BRANCH  38  39
ATOM     39  C   UNL     1      24.234  31.941  14.528  1.00  0.00     0.085 C 
BRANCH  39  40
ATOM     40  C   UNL     1      23.816  31.270  13.286  1.00  0.00     0.265 C 
BRANCH  40  41
ATOM     41  N   UNL     1      22.951  30.163  13.317  1.00  0.00    -0.326 N 
ATOM     42  C   UNL     1      23.454  28.925  12.785  1.00  0.00     0.334 C 
BRANCH  41  43
ATOM     43  C   UNL     1      22.711  29.880  14.746  1.00  0.00     0.260 C 
ATOM     44  C   UNL     1      22.990  28.484  15.149  1.00  0.00     0.071 C 
ENDBRANCH  41  43
BRANCH  41  45
ATOM     45  C   UNL     1      21.660  30.412  12.740  1.00  0.00     0.260 C 
ATOM     46  C   UNL     1      21.035  29.246  12.064  1.00  0.00     0.071 C 
ENDBRANCH  41  45
ENDBRANCH  40  41
ENDBRANCH  39  40
ENDBRANCH  38  39
ENDBRANCH  36  38
ENDBRANCH  32  33
ENDBRANCH   1  32
TORSDOF 20
BEGIN_RES LYS A 131
REMARK  4 active torsions:
REMARK  status: ('A' for Active; 'I' for Inactive)
REMARK    1  A    between atoms: CA   and  CB  
REMARK    2  A    between atoms: CB   and  CG  
REMARK    3  A    between atoms: CG   and  CD  
REMARK    4  A    between atoms: CD   and  CE  
ROOT
ATOM      1  CA  LYS A 131      29.867  25.555  16.977  1.00 20.52     0.186 C 
ENDROOT
BRANCH   1   2
ATOM      2  CB  LYS A 131      28.345  25.722  17.026  1.00 20.94     0.034 C 
BRANCH   2   3
ATOM      3  CG  LYS A 131      27.602  24.399  16.920  1.00 22.96     0.005 C 
BRANCH   3   4
ATOM      4  CD  LYS A 131      26.628  24.204  18.049  1.00 24.33     0.041 C 
BRANCH   4   5
ATOM      5  CE  LYS A 131      25.435  25.135  17.859  1.00 26.91     0.338 C 
ATOM      6  NZ  LYS A 131      25.204  25.939  19.082  1.00 27.40     0.618 N 
ENDBRANCH   4   5
ENDBRANCH   3   4
ENDBRANCH   2   3
ENDBRANCH   1   2
END_RES LYS A 131
BEGIN_RES LYS A 135
REMARK  4 active torsions:
REMARK  status: ('A' for Active; 'I' for Inactive)
REMARK    5  A    between atoms: CA   and  CB  
REMARK    6  A    between atoms: CB   and  CG  
REMARK    7  A    between atoms: CG   and  CD  
REMARK    8  A    between atoms: CD   and  CE  
ROOT
ATOM      7  CA  LYS A 135      33.193  34.663   9.290  1.00 25.02     0.186 C 
ENDROOT
BRANCH   7   8
ATOM      8  CB  LYS A 135      32.060  35.360  10.034  1.00 26.63     0.034 C 
BRANCH   8   9
ATOM      9  CG  LYS A 135      30.701  34.778   9.744  1.00 29.45     0.005 C 
BRANCH   9  10
ATOM     10  CD  LYS A 135      29.917  35.686   8.809  1.00 32.00     0.041 C 
BRANCH  10  11
ATOM     11  CE  LYS A 135      29.516  34.937   7.552  1.00 34.25     0.338 C 
ATOM     12  NZ  LYS A 135      28.521  35.713   6.760  1.00 35.99     0.618 N 
ENDBRANCH  10  11
ENDBRANCH   9  10
ENDBRANCH   8   9
ENDBRANCH   7   8
END_RES LYS A 135
