REMARK VINA RESULT:    -4.022      3.257      6.828
REMARK INTER + INTRA:         -17.727
REMARK INTER:                 -11.804
REMARK INTRA:                  -5.923
REMARK UNBOUND:                -8.298
REMARK SMILES CC(=O)N[C@@H]1[C@@H](O)C[C@](O)(C(=O)O)O[C@H]1C(O)[C@H](O)CNC(=O)OCc1cn(CCCCCCCCCCC(=O)O)nn1
REMARK SMILES IDX 29 1 28 2 26 3 27 4 43 5 42 6 25 7 24 8 22 9 21 10 23 12
REMARK SMILES IDX 20 13 18 14 16 15 15 16 9 17 8 18 14 19 6 20 5 21 10 22
REMARK SMILES IDX 11 24 12 25 13 26 7 28 4 30 2 31 1 33 3 34 17 35 19 37 30 39
REMARK SMILES IDX 31 40 32 41 33 42 34 43 35 44 36 45 37 46 38 47 39 48 40 49
REMARK SMILES IDX 41 50
REMARK H PARENT 21 11 10 23 13 27 7 29 4 32 17 36 19 38 41 51
REMARK Flexibility Score: inf
ROOT
ATOM      1  C   UNL     1      28.052  36.879  13.228  1.00  0.00     0.146 C 
ENDROOT
BRANCH   1   2
ATOM      2  N   UNL     1      29.288  36.148  13.152  1.00  0.00    -0.252 N 
ATOM      3  C   UNL     1      31.368  35.465  13.294  1.00  0.00     0.120 A 
ATOM      4  C   UNL     1      30.524  36.496  13.609  1.00  0.00     0.138 A 
ATOM      5  N   UNL     1      30.636  34.523  12.661  1.00  0.00    -0.132 NA
ATOM      6  N   UNL     1      29.407  34.960  12.595  1.00  0.00    -0.067 NA
BRANCH   3   7
ATOM      7  C   UNL     1      32.812  35.423  13.604  1.00  0.00     0.294 C 
BRANCH   7   8
ATOM      8  O   UNL     1      33.139  34.239  14.297  1.00  0.00    -0.443 OA
BRANCH   8   9
ATOM      9  C   UNL     1      32.324  33.766  15.317  1.00  0.00     0.407 C 
ATOM     10  N   UNL     1      31.534  32.596  15.159  1.00  0.00    -0.319 N 
ATOM     11  H   UNL     1      31.550  32.066  14.261  1.00  0.00     0.167 HD
ATOM     12  O   UNL     1      32.301  34.415  16.419  1.00  0.00    -0.225 OA
BRANCH  10  13
ATOM     13  C   UNL     1      30.710  32.144  16.235  1.00  0.00     0.154 C 
BRANCH  13  14
ATOM     14  C   UNL     1      29.232  32.295  15.941  1.00  0.00     0.165 C 
BRANCH  14  15
ATOM     15  C   UNL     1      28.681  31.008  15.405  1.00  0.00     0.176 C 
BRANCH  15  16
ATOM     16  C   UNL     1      27.229  30.863  15.803  1.00  0.00     0.178 C 
ATOM     17  C   UNL     1      25.117  31.619  15.222  1.00  0.00     0.269 C 
ATOM     18  C   UNL     1      24.784  31.234  16.646  1.00  0.00     0.112 C 
ATOM     19  O   UNL     1      26.483  31.678  14.996  1.00  0.00    -0.332 OA
ATOM     20  C   UNL     1      25.793  31.878  17.556  1.00  0.00     0.145 C 
ATOM     21  C   UNL     1      27.130  31.179  17.274  1.00  0.00     0.142 C 
BRANCH  17  22
ATOM     22  O   UNL     1      24.616  32.903  15.029  1.00  0.00    -0.357 OA
ATOM     23  H   UNL     1      23.769  33.034  15.514  1.00  0.00     0.214 HD
ENDBRANCH  17  22
BRANCH  17  24
ATOM     24  C   UNL     1      24.417  30.692  14.332  1.00  0.00     0.364 C 
ATOM     25  O   UNL     1      24.160  29.531  14.731  1.00  0.00    -0.246 OA
BRANCH  24  26
ATOM     26  O   UNL     1      24.006  31.011  13.044  1.00  0.00    -0.477 OA
ATOM     27  H   UNL     1      23.717  31.982  12.848  1.00  0.00     0.296 HD
ENDBRANCH  24  26
ENDBRANCH  17  24
BRANCH  20  28
ATOM     28  O   UNL     1      25.865  33.238  17.339  1.00  0.00    -0.391 OA
ATOM     29  H   UNL     1      26.805  33.465  17.128  1.00  0.00     0.211 HD
ENDBRANCH  20  28
BRANCH  21  30
ATOM     30  N   UNL     1      27.112  29.971  18.071  1.00  0.00    -0.348 N 
ATOM     31  C   UNL     1      28.198  29.722  18.943  1.00  0.00     0.217 C 
ATOM     32  H   UNL     1      26.322  29.281  18.020  1.00  0.00     0.163 HD
ATOM     33  C   UNL     1      28.217  28.484  19.783  1.00  0.00     0.114 C 
ATOM     34  O   UNL     1      29.142  30.531  19.015  1.00  0.00    -0.275 OA
ENDBRANCH  21  30
ENDBRANCH  15  16
BRANCH  15  35
ATOM     35  O   UNL     1      29.469  29.963  15.899  1.00  0.00    -0.388 OA
ATOM     36  H   UNL     1      29.100  29.081  15.719  1.00  0.00     0.211 HD
ENDBRANCH  15  35
ENDBRANCH  14  15
BRANCH  14  37
ATOM     37  O   UNL     1      28.999  33.293  14.995  1.00  0.00    -0.388 OA
ATOM     38  H   UNL     1      28.879  32.918  14.102  1.00  0.00     0.211 HD
ENDBRANCH  14  37
ENDBRANCH  13  14
ENDBRANCH  10  13
ENDBRANCH   8   9
ENDBRANCH   7   8
ENDBRANCH   3   7
ENDBRANCH   1   2
BRANCH   1  39
ATOM     39  C   UNL     1      26.945  35.933  13.609  1.00  0.00     0.024 C 
BRANCH  39  40
ATOM     40  C   UNL     1      25.769  36.004  12.677  1.00  0.00     0.002 C 
BRANCH  40  41
ATOM     41  C   UNL     1      26.178  35.946  11.226  1.00  0.00     0.000 C 
BRANCH  41  42
ATOM     42  C   UNL     1      26.190  34.494  10.757  1.00  0.00     0.000 C 
BRANCH  42  43
ATOM     43  C   UNL     1      27.263  34.331   9.713  1.00  0.00     0.000 C 
BRANCH  43  44
ATOM     44  C   UNL     1      26.736  34.589   8.331  1.00  0.00     0.000 C 
BRANCH  44  45
ATOM     45  C   UNL     1      27.821  35.092   7.439  1.00  0.00     0.001 C 
BRANCH  45  46
ATOM     46  C   UNL     1      27.336  36.267   6.594  1.00  0.00     0.012 C 
BRANCH  46  47
ATOM     47  C   UNL     1      28.410  36.789   5.678  1.00  0.00     0.122 C 
BRANCH  47  48
ATOM     48  C   UNL     1      28.907  38.061   6.288  1.00  0.00     0.303 C 
ATOM     49  O   UNL     1      28.331  38.643   7.230  1.00  0.00    -0.252 OA
BRANCH  48  50
ATOM     50  O   UNL     1      30.076  38.640   5.791  1.00  0.00    -0.481 OA
ATOM     51  H   UNL     1      30.212  39.630   5.894  1.00  0.00     0.296 HD
ENDBRANCH  48  50
ENDBRANCH  47  48
ENDBRANCH  46  47
ENDBRANCH  45  46
ENDBRANCH  44  45
ENDBRANCH  43  44
ENDBRANCH  42  43
ENDBRANCH  41  42
ENDBRANCH  40  41
ENDBRANCH  39  40
ENDBRANCH   1  39
TORSDOF 26
BEGIN_RES LYS A 131
REMARK  4 active torsions:
REMARK  status: ('A' for Active; 'I' for Inactive)
REMARK    1  A    between atoms: CA   and  CB  
REMARK    2  A    between atoms: CB   and  CG  
REMARK    3  A    between atoms: CG   and  CD  
REMARK    4  A    between atoms: CD   and  CE  
ROOT
ATOM      1  CA  LYS A 131      29.867  25.555  16.977  1.00 20.52     0.186 C 
ENDROOT
BRANCH   1   2
ATOM      2  CB  LYS A 131      28.345  25.722  17.026  1.00 20.94     0.034 C 
BRANCH   2   3
ATOM      3  CG  LYS A 131      27.601  24.403  16.887  1.00 22.96     0.005 C 
BRANCH   3   4
ATOM      4  CD  LYS A 131      26.495  24.267  17.897  1.00 24.33     0.041 C 
BRANCH   4   5
ATOM      5  CE  LYS A 131      26.287  25.602  18.606  1.00 26.91     0.338 C 
ATOM      6  NZ  LYS A 131      24.961  26.169  18.265  1.00 27.40     0.618 N 
ENDBRANCH   4   5
ENDBRANCH   3   4
ENDBRANCH   2   3
ENDBRANCH   1   2
END_RES LYS A 131
BEGIN_RES LYS A 135
REMARK  4 active torsions:
REMARK  status: ('A' for Active; 'I' for Inactive)
REMARK    5  A    between atoms: CA   and  CB  
REMARK    6  A    between atoms: CB   and  CG  
REMARK    7  A    between atoms: CG   and  CD  
REMARK    8  A    between atoms: CD   and  CE  
ROOT
ATOM      7  CA  LYS A 135      33.193  34.663   9.290  1.00 25.02     0.186 C 
ENDROOT
BRANCH   7   8
ATOM      8  CB  LYS A 135      32.060  35.360  10.034  1.00 26.63     0.034 C 
BRANCH   8   9
ATOM      9  CG  LYS A 135      30.865  35.662   9.166  1.00 29.45     0.005 C 
BRANCH   9  10
ATOM     10  CD  LYS A 135      30.105  36.866   9.700  1.00 32.00     0.041 C 
BRANCH  10  11
ATOM     11  CE  LYS A 135      31.067  37.959  10.123  1.00 34.25     0.338 C 
ATOM     12  NZ  LYS A 135      31.505  38.770   8.953  1.00 35.99     0.618 N 
ENDBRANCH  10  11
ENDBRANCH   9  10
ENDBRANCH   8   9
ENDBRANCH   7   8
END_RES LYS A 135
