REMARK VINA RESULT:    -4.538      3.621      7.090
REMARK INTER + INTRA:         -14.862
REMARK INTER:                  -8.409
REMARK INTRA:                  -6.453
REMARK UNBOUND:                -7.007
REMARK SMILES CC(=O)N[C@@H]1[C@@H](O)C[C@](O)(C(=O)O)O[C@H]1C(O)[C@H](O)CNC(=O)OCc1cn(-c2ccc(Cl)cc2)nn1
REMARK SMILES IDX 20 1 18 2 16 3 15 4 9 5 8 6 14 7 6 8 5 9 10 10 11 12 12 13
REMARK SMILES IDX 13 14 7 16 4 18 2 19 1 21 3 22 17 23 19 25 21 27 22 28 23 30
REMARK SMILES IDX 24 31 25 32 26 33 27 34 37 35 28 36 36 37 29 38 30 39 35 40
REMARK SMILES IDX 31 41 34 42 32 43 33 44
REMARK H PARENT 10 11 13 15 7 17 4 20 17 24 19 26 21 29
REMARK Flexibility Score: inf
ROOT
ATOM      1  C   UNL     1      28.356  29.004  20.293  1.00  0.00     0.154 C 
ENDROOT
BRANCH   1   2
ATOM      2  C   UNL     1      28.021  27.925  19.312  1.00  0.00     0.165 C 
BRANCH   2   3
ATOM      3  C   UNL     1      26.498  27.932  19.105  1.00  0.00     0.176 C 
BRANCH   3   4
ATOM      4  C   UNL     1      26.147  28.101  17.629  1.00  0.00     0.178 C 
ATOM      5  C   UNL     1      26.790  30.188  16.768  1.00  0.00     0.269 C 
ATOM      6  C   UNL     1      25.615  30.335  15.826  1.00  0.00     0.112 C 
ATOM      7  O   UNL     1      27.121  28.918  17.092  1.00  0.00    -0.332 OA
ATOM      8  C   UNL     1      24.716  29.162  15.986  1.00  0.00     0.145 C 
ATOM      9  C   UNL     1      24.807  28.675  17.419  1.00  0.00     0.142 C 
BRANCH   5  10
ATOM     10  O   UNL     1      26.521  31.015  17.857  1.00  0.00    -0.357 OA
ATOM     11  H   UNL     1      26.389  31.924  17.486  1.00  0.00     0.214 HD
ENDBRANCH   5  10
BRANCH   5  12
ATOM     12  C   UNL     1      27.951  30.780  16.054  1.00  0.00     0.364 C 
ATOM     13  O   UNL     1      28.708  30.009  15.423  1.00  0.00    -0.246 OA
BRANCH  12  14
ATOM     14  O   UNL     1      28.208  32.123  16.072  1.00  0.00    -0.477 OA
ATOM     15  H   UNL     1      28.261  32.616  16.967  1.00  0.00     0.296 HD
ENDBRANCH  12  14
ENDBRANCH   5  12
BRANCH   8  16
ATOM     16  O   UNL     1      23.405  29.410  15.600  1.00  0.00    -0.391 OA
ATOM     17  H   UNL     1      22.898  29.821  16.330  1.00  0.00     0.211 HD
ENDBRANCH   8  16
BRANCH   9  18
ATOM     18  N   UNL     1      23.680  27.841  17.660  1.00  0.00    -0.348 N 
ATOM     19  C   UNL     1      22.772  28.048  18.726  1.00  0.00     0.217 C 
ATOM     20  H   UNL     1      23.553  27.040  16.987  1.00  0.00     0.163 HD
ATOM     21  C   UNL     1      21.612  27.161  18.946  1.00  0.00     0.114 C 
ATOM     22  O   UNL     1      23.038  29.041  19.458  1.00  0.00    -0.275 OA
ENDBRANCH   9  18
ENDBRANCH   3   4
BRANCH   3  23
ATOM     23  O   UNL     1      25.927  28.968  19.851  1.00  0.00    -0.388 OA
ATOM     24  H   UNL     1      26.170  28.901  20.817  1.00  0.00     0.211 HD
ENDBRANCH   3  23
ENDBRANCH   2   3
BRANCH   2  25
ATOM     25  O   UNL     1      28.464  26.681  19.699  1.00  0.00    -0.388 OA
ATOM     26  H   UNL     1      28.987  26.180  19.050  1.00  0.00     0.211 HD
ENDBRANCH   2  25
ENDBRANCH   1   2
BRANCH   1  27
ATOM     27  N   UNL     1      28.464  30.325  19.770  1.00  0.00    -0.319 N 
ATOM     28  C   UNL     1      29.676  30.954  19.392  1.00  0.00     0.407 C 
ATOM     29  H   UNL     1      27.584  30.899  19.646  1.00  0.00     0.167 HD
ATOM     30  O   UNL     1      30.771  30.375  19.485  1.00  0.00    -0.225 OA
BRANCH  28  31
ATOM     31  O   UNL     1      29.661  32.272  18.894  1.00  0.00    -0.443 OA
BRANCH  31  32
ATOM     32  C   UNL     1      30.877  32.995  18.717  1.00  0.00     0.294 C 
BRANCH  32  33
ATOM     33  C   UNL     1      31.060  33.172  17.256  1.00  0.00     0.121 A 
ATOM     34  C   UNL     1      31.142  34.363  16.596  1.00  0.00     0.144 A 
ATOM     35  N   UNL     1      31.173  32.213  16.349  1.00  0.00    -0.131 NA
ATOM     36  N   UNL     1      31.306  34.080  15.287  1.00  0.00    -0.220 N 
ATOM     37  N   UNL     1      31.322  32.766  15.153  1.00  0.00    -0.062 NA
BRANCH  36  38
ATOM     38  C   UNL     1      31.431  35.086  14.279  1.00  0.00     0.066 A 
ATOM     39  C   UNL     1      30.413  35.991  14.097  1.00  0.00     0.030 A 
ATOM     40  C   UNL     1      32.580  35.103  13.530  1.00  0.00     0.030 A 
ATOM     41  C   UNL     1      30.575  36.947  13.112  1.00  0.00     0.023 A 
ATOM     42  C   UNL     1      32.711  36.071  12.554  1.00  0.00     0.023 A 
ATOM     43  C   UNL     1      31.722  36.997  12.333  1.00  0.00     0.041 A 
ATOM     44  Cl  UNL     1      31.948  38.193  11.086  1.00  0.00    -0.084 Cl
ENDBRANCH  36  38
ENDBRANCH  32  33
ENDBRANCH  31  32
ENDBRANCH  28  31
ENDBRANCH   1  27
TORSDOF 15
BEGIN_RES LYS A 131
REMARK  4 active torsions:
REMARK  status: ('A' for Active; 'I' for Inactive)
REMARK    1  A    between atoms: CA   and  CB  
REMARK    2  A    between atoms: CB   and  CG  
REMARK    3  A    between atoms: CG   and  CD  
REMARK    4  A    between atoms: CD   and  CE  
ROOT
ATOM      1  CA  LYS A 131      29.867  25.555  16.977  1.00 20.52     0.186 C 
ENDROOT
BRANCH   1   2
ATOM      2  CB  LYS A 131      28.345  25.722  17.026  1.00 20.94     0.034 C 
BRANCH   2   3
ATOM      3  CG  LYS A 131      27.601  24.402  16.892  1.00 22.96     0.005 C 
BRANCH   3   4
ATOM      4  CD  LYS A 131      26.688  24.145  18.059  1.00 24.33     0.041 C 
BRANCH   4   5
ATOM      5  CE  LYS A 131      25.258  24.513  17.677  1.00 26.91     0.338 C 
ATOM      6  NZ  LYS A 131      24.410  24.622  18.887  1.00 27.40     0.618 N 
ENDBRANCH   4   5
ENDBRANCH   3   4
ENDBRANCH   2   3
ENDBRANCH   1   2
END_RES LYS A 131
BEGIN_RES LYS A 135
REMARK  4 active torsions:
REMARK  status: ('A' for Active; 'I' for Inactive)
REMARK    5  A    between atoms: CA   and  CB  
REMARK    6  A    between atoms: CB   and  CG  
REMARK    7  A    between atoms: CG   and  CD  
REMARK    8  A    between atoms: CD   and  CE  
ROOT
ATOM      7  CA  LYS A 135      33.193  34.663   9.290  1.00 25.02     0.186 C 
ENDROOT
BRANCH   7   8
ATOM      8  CB  LYS A 135      32.060  35.360  10.034  1.00 26.63     0.034 C 
BRANCH   8   9
ATOM      9  CG  LYS A 135      30.709  34.739   9.792  1.00 29.45     0.005 C 
BRANCH   9  10
ATOM     10  CD  LYS A 135      30.506  34.453   8.312  1.00 32.00     0.041 C 
BRANCH  10  11
ATOM     11  CE  LYS A 135      29.409  35.333   7.745  1.00 34.25     0.338 C 
ATOM     12  NZ  LYS A 135      28.064  34.752   8.011  1.00 35.99     0.618 N 
ENDBRANCH  10  11
ENDBRANCH   9  10
ENDBRANCH   8   9
ENDBRANCH   7   8
END_RES LYS A 135
