REMARK VINA RESULT:    -4.752      4.955      9.214
REMARK INTER + INTRA:         -16.245
REMARK INTER:                  -8.926
REMARK INTRA:                  -7.320
REMARK UNBOUND:                -6.771
REMARK SMILES CC(=O)N[C@@H]1[C@@H](O)C[C@](O)(C(=O)O)O[C@H]1C(O)[C@H](O)CNC(=O)OCc1cn(CC(O)CCc2ccccc2)nn1
REMARK SMILES IDX 24 1 22 2 21 3 23 5 20 6 18 7 16 8 15 9 9 10 8 11 14 12 6 13
REMARK SMILES IDX 5 14 10 15 11 17 12 18 13 19 7 21 4 23 2 24 1 26 3 27 17 28
REMARK SMILES IDX 19 30 25 32 26 33 27 34 41 35 28 36 40 37 29 38 30 39 31 40
REMARK SMILES IDX 32 42 33 43 34 44 35 45 39 46 36 47 38 48 37 49
REMARK H PARENT 21 4 10 16 13 20 7 22 4 25 17 29 19 31 31 41
REMARK Flexibility Score: inf
ROOT
ATOM      1  O   UNL     1      30.506  32.371  19.480  1.00  0.00    -0.443 OA
ENDROOT
BRANCH   1   2
ATOM      2  C   UNL     1      30.611  33.152  18.343  1.00  0.00     0.407 C 
ATOM      3  N   UNL     1      31.178  32.633  17.161  1.00  0.00    -0.319 N 
ATOM      4  H   UNL     1      31.519  31.654  17.151  1.00  0.00     0.167 HD
ATOM      5  O   UNL     1      30.200  34.335  18.357  1.00  0.00    -0.225 OA
BRANCH   3   6
ATOM      6  C   UNL     1      31.306  33.421  15.943  1.00  0.00     0.154 C 
BRANCH   6   7
ATOM      7  C   UNL     1      30.524  32.789  14.806  1.00  0.00     0.165 C 
BRANCH   7   8
ATOM      8  C   UNL     1      30.142  33.887  13.828  1.00  0.00     0.176 C 
BRANCH   8   9
ATOM      9  C   UNL     1      29.473  35.047  14.571  1.00  0.00     0.178 C 
ATOM     10  C   UNL     1      27.253  35.285  13.889  1.00  0.00     0.269 C 
ATOM     11  C   UNL     1      27.786  35.996  12.695  1.00  0.00     0.112 C 
ATOM     12  O   UNL     1      28.156  34.864  14.799  1.00  0.00    -0.332 OA
ATOM     13  C   UNL     1      28.901  36.933  12.994  1.00  0.00     0.145 C 
ATOM     14  C   UNL     1      29.898  36.345  13.956  1.00  0.00     0.142 C 
BRANCH  10  15
ATOM     15  O   UNL     1      26.550  34.151  13.415  1.00  0.00    -0.357 OA
ATOM     16  H   UNL     1      25.630  34.158  13.784  1.00  0.00     0.214 HD
ENDBRANCH  10  15
BRANCH  10  17
ATOM     17  C   UNL     1      26.208  36.171  14.518  1.00  0.00     0.364 C 
ATOM     18  O   UNL     1      25.031  36.240  14.094  1.00  0.00    -0.246 OA
BRANCH  17  19
ATOM     19  O   UNL     1      26.512  36.970  15.624  1.00  0.00    -0.477 OA
ATOM     20  H   UNL     1      27.431  37.429  15.693  1.00  0.00     0.296 HD
ENDBRANCH  17  19
ENDBRANCH  10  17
BRANCH  13  21
ATOM     21  O   UNL     1      29.511  37.305  11.774  1.00  0.00    -0.391 OA
ATOM     22  H   UNL     1      29.093  38.145  11.418  1.00  0.00     0.211 HD
ENDBRANCH  13  21
BRANCH  14  23
ATOM     23  N   UNL     1      30.268  37.308  14.996  1.00  0.00    -0.348 N 
ATOM     24  C   UNL     1      31.594  37.459  15.425  1.00  0.00     0.217 C 
ATOM     25  H   UNL     1      29.473  37.883  15.405  1.00  0.00     0.163 HD
ATOM     26  C   UNL     1      31.917  38.440  16.476  1.00  0.00     0.114 C 
ATOM     27  O   UNL     1      32.504  36.769  14.927  1.00  0.00    -0.275 OA
ENDBRANCH  14  23
ENDBRANCH   8   9
BRANCH   8  28
ATOM     28  O   UNL     1      31.361  34.413  13.366  1.00  0.00    -0.388 OA
ATOM     29  H   UNL     1      32.145  33.967  13.806  1.00  0.00     0.211 HD
ENDBRANCH   8  28
ENDBRANCH   7   8
BRANCH   7  30
ATOM     30  O   UNL     1      29.383  32.168  15.299  1.00  0.00    -0.388 OA
ATOM     31  H   UNL     1      28.703  32.871  15.436  1.00  0.00     0.211 HD
ENDBRANCH   7  30
ENDBRANCH   6   7
ENDBRANCH   3   6
ENDBRANCH   1   2
BRANCH   1  32
ATOM     32  C   UNL     1      29.171  32.024  19.886  1.00  0.00     0.294 C 
BRANCH  32  33
ATOM     33  C   UNL     1      28.467  31.335  18.783  1.00  0.00     0.120 A 
ATOM     34  C   UNL     1      27.144  31.402  18.415  1.00  0.00     0.138 A 
ATOM     35  N   UNL     1      29.055  30.488  17.919  1.00  0.00    -0.132 NA
ATOM     36  N   UNL     1      26.963  30.605  17.352  1.00  0.00    -0.250 N 
ATOM     37  N   UNL     1      28.108  30.070  17.069  1.00  0.00    -0.067 NA
BRANCH  36  38
ATOM     38  C   UNL     1      25.706  30.356  16.612  1.00  0.00     0.177 C 
BRANCH  38  39
ATOM     39  C   UNL     1      25.772  31.099  15.314  1.00  0.00     0.136 C 
BRANCH  39  40
ATOM     40  O   UNL     1      26.654  32.187  15.379  1.00  0.00    -0.391 OA
ATOM     41  H   UNL     1      27.236  32.141  14.567  1.00  0.00     0.211 HD
ENDBRANCH  39  40
BRANCH  39  42
ATOM     42  C   UNL     1      24.542  31.273  14.575  1.00  0.00     0.038 C 
BRANCH  42  43
ATOM     43  C   UNL     1      24.406  30.677  13.241  1.00  0.00     0.038 C 
BRANCH  43  44
ATOM     44  C   UNL     1      23.044  30.393  12.819  1.00  0.00    -0.048 A 
ATOM     45  C   UNL     1      22.134  31.456  12.768  1.00  0.00     0.004 A 
ATOM     46  C   UNL     1      22.542  29.162  12.529  1.00  0.00     0.004 A 
ATOM     47  C   UNL     1      20.814  31.247  12.443  1.00  0.00     0.000 A 
ATOM     48  C   UNL     1      21.219  28.932  12.199  1.00  0.00     0.000 A 
ATOM     49  C   UNL     1      20.335  29.990  12.155  1.00  0.00     0.000 A 
ENDBRANCH  43  44
ENDBRANCH  42  43
ENDBRANCH  39  42
ENDBRANCH  38  39
ENDBRANCH  36  38
ENDBRANCH  32  33
ENDBRANCH   1  32
TORSDOF 20
BEGIN_RES LYS A 131
REMARK  4 active torsions:
REMARK  status: ('A' for Active; 'I' for Inactive)
REMARK    1  A    between atoms: CA   and  CB  
REMARK    2  A    between atoms: CB   and  CG  
REMARK    3  A    between atoms: CG   and  CD  
REMARK    4  A    between atoms: CD   and  CE  
ROOT
ATOM      1  CA  LYS A 131      29.867  25.555  16.977  1.00 20.52     0.186 C 
ENDROOT
BRANCH   1   2
ATOM      2  CB  LYS A 131      28.345  25.722  17.026  1.00 20.94     0.034 C 
BRANCH   2   3
ATOM      3  CG  LYS A 131      27.602  24.400  16.916  1.00 22.96     0.005 C 
BRANCH   3   4
ATOM      4  CD  LYS A 131      26.165  24.520  17.343  1.00 24.33     0.041 C 
BRANCH   4   5
ATOM      5  CE  LYS A 131      25.890  23.546  18.484  1.00 26.91     0.338 C 
ATOM      6  NZ  LYS A 131      25.463  24.278  19.700  1.00 27.40     0.618 N 
ENDBRANCH   4   5
ENDBRANCH   3   4
ENDBRANCH   2   3
ENDBRANCH   1   2
END_RES LYS A 131
BEGIN_RES LYS A 135
REMARK  4 active torsions:
REMARK  status: ('A' for Active; 'I' for Inactive)
REMARK    5  A    between atoms: CA   and  CB  
REMARK    6  A    between atoms: CB   and  CG  
REMARK    7  A    between atoms: CG   and  CD  
REMARK    8  A    between atoms: CD   and  CE  
ROOT
ATOM      7  CA  LYS A 135      33.193  34.663   9.290  1.00 25.02     0.186 C 
ENDROOT
BRANCH   7   8
ATOM      8  CB  LYS A 135      32.060  35.360  10.034  1.00 26.63     0.034 C 
BRANCH   8   9
ATOM      9  CG  LYS A 135      30.731  34.662   9.898  1.00 29.45     0.005 C 
BRANCH   9  10
ATOM     10  CD  LYS A 135      30.336  34.540   8.435  1.00 32.00     0.041 C 
BRANCH  10  11
ATOM     11  CE  LYS A 135      28.827  34.581   8.285  1.00 34.25     0.338 C 
ATOM     12  NZ  LYS A 135      28.157  33.867   9.407  1.00 35.99     0.618 N 
ENDBRANCH  10  11
ENDBRANCH   9  10
ENDBRANCH   8   9
ENDBRANCH   7   8
END_RES LYS A 135
