REMARK VINA RESULT:    -3.691      3.117      6.573
REMARK INTER + INTRA:         -16.952
REMARK INTER:                 -11.487
REMARK INTRA:                  -5.465
REMARK UNBOUND:                -8.298
REMARK SMILES CC(=O)N[C@@H]1[C@@H](O)C[C@](O)(C(=O)O)O[C@H]1C(O)[C@H](O)CNC(=O)OCc1cn(CCCCCCCCCCC(=O)O)nn1
REMARK SMILES IDX 29 1 28 2 26 3 27 4 43 5 42 6 25 7 24 8 22 9 21 10 23 12
REMARK SMILES IDX 20 13 18 14 16 15 15 16 9 17 8 18 14 19 6 20 5 21 10 22
REMARK SMILES IDX 11 24 12 25 13 26 7 28 4 30 2 31 1 33 3 34 17 35 19 37 30 39
REMARK SMILES IDX 31 40 32 41 33 42 34 43 35 44 36 45 37 46 38 47 39 48 40 49
REMARK SMILES IDX 41 50
REMARK H PARENT 21 11 10 23 13 27 7 29 4 32 17 36 19 38 41 51
REMARK Flexibility Score: inf
ROOT
ATOM      1  C   UNL     1      27.549  37.244  14.546  1.00  0.00     0.146 C 
ENDROOT
BRANCH   1   2
ATOM      2  N   UNL     1      28.383  36.658  15.559  1.00  0.00    -0.252 N 
ATOM      3  C   UNL     1      30.046  36.037  16.849  1.00  0.00     0.120 A 
ATOM      4  C   UNL     1      29.726  36.793  15.754  1.00  0.00     0.138 A 
ATOM      5  N   UNL     1      28.905  35.466  17.293  1.00  0.00    -0.132 NA
ATOM      6  N   UNL     1      27.939  35.856  16.506  1.00  0.00    -0.067 NA
BRANCH   3   7
ATOM      7  C   UNL     1      31.403  35.893  17.417  1.00  0.00     0.294 C 
BRANCH   7   8
ATOM      8  O   UNL     1      32.165  34.976  16.661  1.00  0.00    -0.443 OA
BRANCH   8   9
ATOM      9  C   UNL     1      31.610  33.779  16.230  1.00  0.00     0.407 C 
ATOM     10  N   UNL     1      30.767  33.002  17.069  1.00  0.00    -0.319 N 
ATOM     11  H   UNL     1      30.549  33.321  18.038  1.00  0.00     0.167 HD
ATOM     12  O   UNL     1      31.876  33.384  15.043  1.00  0.00    -0.225 OA
BRANCH  10  13
ATOM     13  C   UNL     1      30.216  31.776  16.585  1.00  0.00     0.154 C 
BRANCH  13  14
ATOM     14  C   UNL     1      28.732  31.874  16.304  1.00  0.00     0.165 C 
BRANCH  14  15
ATOM     15  C   UNL     1      28.275  30.676  15.530  1.00  0.00     0.176 C 
BRANCH  15  16
ATOM     16  C   UNL     1      26.823  30.382  15.841  1.00  0.00     0.178 C 
ATOM     17  C   UNL     1      24.684  31.051  15.252  1.00  0.00     0.269 C 
ATOM     18  C   UNL     1      24.327  30.479  16.606  1.00  0.00     0.112 C 
ATOM     19  O   UNL     1      26.049  31.233  15.098  1.00  0.00    -0.332 OA
ATOM     20  C   UNL     1      25.249  31.082  17.629  1.00  0.00     0.145 C 
ATOM     21  C   UNL     1      26.645  30.516  17.332  1.00  0.00     0.142 C 
BRANCH  17  22
ATOM     22  O   UNL     1      24.095  32.310  15.183  1.00  0.00    -0.357 OA
ATOM     23  H   UNL     1      23.787  32.610  16.068  1.00  0.00     0.214 HD
ENDBRANCH  17  22
BRANCH  17  24
ATOM     24  C   UNL     1      24.091  30.188  14.230  1.00  0.00     0.364 C 
ATOM     25  O   UNL     1      23.544  29.113  14.574  1.00  0.00    -0.246 OA
BRANCH  24  26
ATOM     26  O   UNL     1      24.088  30.479  12.872  1.00  0.00    -0.477 OA
ATOM     27  H   UNL     1      23.244  30.251  12.323  1.00  0.00     0.296 HD
ENDBRANCH  24  26
ENDBRANCH  17  24
BRANCH  20  28
ATOM     28  O   UNL     1      25.227  32.459  17.572  1.00  0.00    -0.391 OA
ATOM     29  H   UNL     1      25.096  32.725  16.628  1.00  0.00     0.211 HD
ENDBRANCH  20  28
BRANCH  21  30
ATOM     30  N   UNL     1      26.687  29.225  17.984  1.00  0.00    -0.348 N 
ATOM     31  C   UNL     1      27.756  28.952  18.871  1.00  0.00     0.217 C 
ATOM     32  H   UNL     1      25.954  28.492  17.819  1.00  0.00     0.163 HD
ATOM     33  C   UNL     1      27.836  27.629  19.564  1.00  0.00     0.114 C 
ATOM     34  O   UNL     1      28.633  29.812  19.078  1.00  0.00    -0.275 OA
ENDBRANCH  21  30
ENDBRANCH  15  16
BRANCH  15  35
ATOM     35  O   UNL     1      29.111  29.605  15.862  1.00  0.00    -0.388 OA
ATOM     36  H   UNL     1      29.692  29.326  15.133  1.00  0.00     0.211 HD
ENDBRANCH  15  35
ENDBRANCH  14  15
BRANCH  14  37
ATOM     37  O   UNL     1      28.428  33.013  15.558  1.00  0.00    -0.388 OA
ATOM     38  H   UNL     1      29.141  33.227  14.928  1.00  0.00     0.211 HD
ENDBRANCH  14  37
ENDBRANCH  13  14
ENDBRANCH  10  13
ENDBRANCH   8   9
ENDBRANCH   7   8
ENDBRANCH   3   7
ENDBRANCH   1   2
BRANCH   1  39
ATOM     39  C   UNL     1      28.082  36.864  13.191  1.00  0.00     0.024 C 
BRANCH  39  40
ATOM     40  C   UNL     1      27.764  35.445  12.814  1.00  0.00     0.002 C 
BRANCH  40  41
ATOM     41  C   UNL     1      28.413  35.033  11.516  1.00  0.00     0.000 C 
BRANCH  41  42
ATOM     42  C   UNL     1      27.379  34.361  10.618  1.00  0.00     0.000 C 
BRANCH  42  43
ATOM     43  C   UNL     1      28.081  33.785   9.416  1.00  0.00     0.000 C 
BRANCH  43  44
ATOM     44  C   UNL     1      29.523  34.199   9.366  1.00  0.00     0.000 C 
BRANCH  44  45
ATOM     45  C   UNL     1      29.866  34.753   8.024  1.00  0.00     0.001 C 
BRANCH  45  46
ATOM     46  C   UNL     1      28.915  35.883   7.637  1.00  0.00     0.012 C 
BRANCH  46  47
ATOM     47  C   UNL     1      28.308  35.672   6.276  1.00  0.00     0.122 C 
BRANCH  47  48
ATOM     48  C   UNL     1      28.241  37.019   5.628  1.00  0.00     0.303 C 
ATOM     49  O   UNL     1      29.242  37.740   5.436  1.00  0.00    -0.252 OA
BRANCH  48  50
ATOM     50  O   UNL     1      27.002  37.509   5.210  1.00  0.00    -0.481 OA
ATOM     51  H   UNL     1      26.970  38.365   4.683  1.00  0.00     0.296 HD
ENDBRANCH  48  50
ENDBRANCH  47  48
ENDBRANCH  46  47
ENDBRANCH  45  46
ENDBRANCH  44  45
ENDBRANCH  43  44
ENDBRANCH  42  43
ENDBRANCH  41  42
ENDBRANCH  40  41
ENDBRANCH  39  40
ENDBRANCH   1  39
TORSDOF 26
BEGIN_RES LYS A 131
REMARK  4 active torsions:
REMARK  status: ('A' for Active; 'I' for Inactive)
REMARK    1  A    between atoms: CA   and  CB  
REMARK    2  A    between atoms: CB   and  CG  
REMARK    3  A    between atoms: CG   and  CD  
REMARK    4  A    between atoms: CD   and  CE  
ROOT
ATOM      1  CA  LYS A 131      29.867  25.555  16.977  1.00 20.52     0.186 C 
ENDROOT
BRANCH   1   2
ATOM      2  CB  LYS A 131      28.345  25.722  17.026  1.00 20.94     0.034 C 
BRANCH   2   3
ATOM      3  CG  LYS A 131      27.601  24.402  16.895  1.00 22.96     0.005 C 
BRANCH   3   4
ATOM      4  CD  LYS A 131      26.629  24.185  18.021  1.00 24.33     0.041 C 
BRANCH   4   5
ATOM      5  CE  LYS A 131      25.359  23.538  17.480  1.00 26.91     0.338 C 
ATOM      6  NZ  LYS A 131      24.472  24.560  16.876  1.00 27.40     0.618 N 
ENDBRANCH   4   5
ENDBRANCH   3   4
ENDBRANCH   2   3
ENDBRANCH   1   2
END_RES LYS A 131
BEGIN_RES LYS A 135
REMARK  4 active torsions:
REMARK  status: ('A' for Active; 'I' for Inactive)
REMARK    5  A    between atoms: CA   and  CB  
REMARK    6  A    between atoms: CB   and  CG  
REMARK    7  A    between atoms: CG   and  CD  
REMARK    8  A    between atoms: CD   and  CE  
ROOT
ATOM      7  CA  LYS A 135      33.193  34.663   9.290  1.00 25.02     0.186 C 
ENDROOT
BRANCH   7   8
ATOM      8  CB  LYS A 135      32.060  35.360  10.034  1.00 26.63     0.034 C 
BRANCH   8   9
ATOM      9  CG  LYS A 135      32.248  35.388  11.529  1.00 29.45     0.005 C 
BRANCH   9  10
ATOM     10  CD  LYS A 135      32.267  36.819  12.041  1.00 32.00     0.041 C 
BRANCH  10  11
ATOM     11  CE  LYS A 135      31.888  37.786  10.935  1.00 34.25     0.338 C 
ATOM     12  NZ  LYS A 135      30.617  38.494  11.254  1.00 35.99     0.618 N 
ENDBRANCH  10  11
ENDBRANCH   9  10
ENDBRANCH   8   9
ENDBRANCH   7   8
END_RES LYS A 135
