REMARK VINA RESULT:    -4.737      2.088      3.361
REMARK INTER + INTRA:         -14.688
REMARK INTER:                  -8.455
REMARK INTRA:                  -6.233
REMARK UNBOUND:                -6.490
REMARK SMILES CC(=O)N[C@@H]1[C@@H](O)C[C@](O)(C(=O)O)O[C@H]1C(O)[C@H](O)CNC(=O)OCc1cn(-c2ccc3[nH]ncc3c2)nn1
REMARK SMILES IDX 20 1 18 2 16 3 15 4 9 5 8 6 14 7 6 8 5 9 10 10 11 12 12 13
REMARK SMILES IDX 13 14 7 16 4 18 2 19 1 21 3 22 17 23 19 25 21 27 22 28 23 30
REMARK SMILES IDX 24 31 25 32 26 33 27 34 39 35 28 36 38 37 29 38 30 39 37 40
REMARK SMILES IDX 31 41 36 42 32 43 35 44 33 45 34 46
REMARK H PARENT 10 11 13 15 7 17 4 20 17 24 19 26 21 29 33 47
REMARK Flexibility Score: inf
ROOT
ATOM      1  C   UNL     1      30.253  31.490  16.915  1.00  0.00     0.154 C 
ENDROOT
BRANCH   1   2
ATOM      2  C   UNL     1      31.154  31.895  15.832  1.00  0.00     0.165 C 
BRANCH   2   3
ATOM      3  C   UNL     1      31.709  33.315  16.081  1.00  0.00     0.176 C 
BRANCH   3   4
ATOM      4  C   UNL     1      30.973  34.368  15.376  1.00  0.00     0.178 C 
ATOM      5  C   UNL     1      32.472  35.333  13.861  1.00  0.00     0.269 C 
ATOM      6  C   UNL     1      32.953  36.165  15.015  1.00  0.00     0.112 C 
ATOM      7  O   UNL     1      31.312  34.650  14.086  1.00  0.00    -0.332 OA
ATOM      8  C   UNL     1      31.861  36.675  15.888  1.00  0.00     0.145 C 
ATOM      9  C   UNL     1      30.837  35.638  16.225  1.00  0.00     0.142 C 
BRANCH   5  10
ATOM     10  O   UNL     1      33.478  34.444  13.485  1.00  0.00    -0.357 OA
ATOM     11  H   UNL     1      34.326  34.616  13.961  1.00  0.00     0.214 HD
ENDBRANCH   5  10
BRANCH   5  12
ATOM     12  C   UNL     1      32.236  36.259  12.730  1.00  0.00     0.364 C 
ATOM     13  O   UNL     1      31.226  36.981  12.716  1.00  0.00    -0.246 OA
BRANCH  12  14
ATOM     14  O   UNL     1      33.141  36.318  11.691  1.00  0.00    -0.477 OA
ATOM     15  H   UNL     1      33.598  37.191  11.391  1.00  0.00     0.296 HD
ENDBRANCH  12  14
ENDBRANCH   5  12
BRANCH   8  16
ATOM     16  O   UNL     1      32.450  37.209  17.050  1.00  0.00    -0.391 OA
ATOM     17  H   UNL     1      31.932  38.025  17.254  1.00  0.00     0.211 HD
ENDBRANCH   8  16
BRANCH   9  18
ATOM     18  N   UNL     1      29.491  36.148  16.220  1.00  0.00    -0.348 N 
ATOM     19  C   UNL     1      28.482  35.645  17.085  1.00  0.00     0.217 C 
ATOM     20  H   UNL     1      29.224  36.931  15.549  1.00  0.00     0.163 HD
ATOM     21  C   UNL     1      27.117  36.202  17.040  1.00  0.00     0.114 C 
ATOM     22  O   UNL     1      28.780  34.721  17.883  1.00  0.00    -0.275 OA
ENDBRANCH   9  18
ENDBRANCH   3   4
BRANCH   3  23
ATOM     23  O   UNL     1      31.386  33.477  17.477  1.00  0.00    -0.388 OA
ATOM     24  H   UNL     1      31.036  34.384  17.639  1.00  0.00     0.211 HD
ENDBRANCH   3  23
ENDBRANCH   2   3
BRANCH   2  25
ATOM     25  O   UNL     1      30.299  32.068  14.677  1.00  0.00    -0.388 OA
ATOM     26  H   UNL     1      30.292  31.219  14.155  1.00  0.00     0.211 HD
ENDBRANCH   2  25
ENDBRANCH   1   2
BRANCH   1  27
ATOM     27  N   UNL     1      28.871  31.856  16.773  1.00  0.00    -0.319 N 
ATOM     28  C   UNL     1      27.919  30.988  16.178  1.00  0.00     0.407 C 
ATOM     29  H   UNL     1      28.524  32.752  17.152  1.00  0.00     0.167 HD
ATOM     30  O   UNL     1      28.313  29.866  15.766  1.00  0.00    -0.225 OA
BRANCH  28  31
ATOM     31  O   UNL     1      26.589  31.304  16.023  1.00  0.00    -0.443 OA
BRANCH  31  32
ATOM     32  C   UNL     1      26.051  32.607  16.148  1.00  0.00     0.294 C 
BRANCH  32  33
ATOM     33  C   UNL     1      25.824  33.139  14.761  1.00  0.00     0.121 A 
ATOM     34  C   UNL     1      26.481  34.168  14.123  1.00  0.00     0.144 A 
ATOM     35  N   UNL     1      24.906  32.695  13.858  1.00  0.00    -0.131 NA
ATOM     36  N   UNL     1      25.928  34.286  12.881  1.00  0.00    -0.220 N 
ATOM     37  N   UNL     1      24.976  33.380  12.749  1.00  0.00    -0.062 NA
BRANCH  36  38
ATOM     38  C   UNL     1      26.330  35.238  11.909  1.00  0.00     0.067 A 
ATOM     39  C   UNL     1      27.499  35.950  12.100  1.00  0.00     0.030 A 
ATOM     40  C   UNL     1      25.611  35.501  10.762  1.00  0.00     0.040 A 
ATOM     41  C   UNL     1      27.940  36.888  11.190  1.00  0.00     0.030 A 
ATOM     42  C   UNL     1      26.029  36.424   9.848  1.00  0.00     0.022 A 
ATOM     43  C   UNL     1      27.209  37.141  10.042  1.00  0.00     0.065 A 
ATOM     44  C   UNL     1      25.526  36.877   8.651  1.00  0.00     0.143 A 
ATOM     45  N   UNL     1      27.376  37.972   9.001  1.00  0.00    -0.278 N 
ATOM     46  N   UNL     1      26.378  37.824   8.161  1.00  0.00    -0.183 NA
ATOM     47  H   UNL     1      28.174  38.624   8.886  1.00  0.00     0.190 HD
ENDBRANCH  36  38
ENDBRANCH  32  33
ENDBRANCH  31  32
ENDBRANCH  28  31
ENDBRANCH   1  27
TORSDOF 15
BEGIN_RES LYS A 131
REMARK  4 active torsions:
REMARK  status: ('A' for Active; 'I' for Inactive)
REMARK    1  A    between atoms: CA   and  CB  
REMARK    2  A    between atoms: CB   and  CG  
REMARK    3  A    between atoms: CG   and  CD  
REMARK    4  A    between atoms: CD   and  CE  
ROOT
ATOM      1  CA  LYS A 131      29.867  25.555  16.977  1.00 20.52     0.186 C 
ENDROOT
BRANCH   1   2
ATOM      2  CB  LYS A 131      28.345  25.722  17.026  1.00 20.94     0.034 C 
BRANCH   2   3
ATOM      3  CG  LYS A 131      27.600  24.416  16.797  1.00 22.96     0.005 C 
BRANCH   3   4
ATOM      4  CD  LYS A 131      26.826  23.985  18.012  1.00 24.33     0.041 C 
BRANCH   4   5
ATOM      5  CE  LYS A 131      25.535  23.299  17.576  1.00 26.91     0.338 C 
ATOM      6  NZ  LYS A 131      24.643  24.262  16.887  1.00 27.40     0.618 N 
ENDBRANCH   4   5
ENDBRANCH   3   4
ENDBRANCH   2   3
ENDBRANCH   1   2
END_RES LYS A 131
BEGIN_RES LYS A 135
REMARK  4 active torsions:
REMARK  status: ('A' for Active; 'I' for Inactive)
REMARK    5  A    between atoms: CA   and  CB  
REMARK    6  A    between atoms: CB   and  CG  
REMARK    7  A    between atoms: CG   and  CD  
REMARK    8  A    between atoms: CD   and  CE  
ROOT
ATOM      7  CA  LYS A 135      33.193  34.663   9.290  1.00 25.02     0.186 C 
ENDROOT
BRANCH   7   8
ATOM      8  CB  LYS A 135      32.060  35.360  10.034  1.00 26.63     0.034 C 
BRANCH   8   9
ATOM      9  CG  LYS A 135      30.729  34.668   9.890  1.00 29.45     0.005 C 
BRANCH   9  10
ATOM     10  CD  LYS A 135      30.362  34.511   8.422  1.00 32.00     0.041 C 
BRANCH  10  11
ATOM     11  CE  LYS A 135      28.855  34.517   8.247  1.00 34.25     0.338 C 
ATOM     12  NZ  LYS A 135      28.461  35.259   7.018  1.00 35.99     0.618 N 
ENDBRANCH  10  11
ENDBRANCH   9  10
ENDBRANCH   8   9
ENDBRANCH   7   8
END_RES LYS A 135
