REMARK VINA RESULT:    -3.087      6.580     11.052
REMARK INTER + INTRA:         -13.185
REMARK INTER:                  -5.613
REMARK INTRA:                  -7.572
REMARK UNBOUND:                -7.572
REMARK SMILES CC(=O)N[C@@H]1[C@@H](O)C[C@](O)(C(=O)O)O[C@H]1C(O)[C@H](O)CNC(=O)OCc1cn(CCO)nn1
REMARK SMILES IDX 21 1 22 2 23 3 20 5 18 6 16 7 15 8 9 9 8 10 14 11 6 12 5 13
REMARK SMILES IDX 10 14 11 16 12 17 13 18 7 20 4 22 2 23 1 25 3 26 17 27 19 29
REMARK SMILES IDX 24 31 25 32 26 33 27 34 33 35 28 36 32 37 29 38 30 39 31 40
REMARK H PARENT 21 4 10 15 13 19 7 21 4 24 17 28 19 30 31 41
REMARK Flexibility Score: inf
ROOT
ATOM      1  N   UNL     1      31.242  35.092  15.405  1.00  0.00    -0.319 N 
ATOM      2  C   UNL     1      30.206  35.297  14.488  1.00  0.00     0.407 C 
ATOM      3  O   UNL     1      29.745  34.351  13.856  1.00  0.00    -0.225 OA
ATOM      4  H   UNL     1      31.578  35.983  15.904  1.00  0.00     0.167 HD
ENDROOT
BRANCH   1   5
ATOM      5  C   UNL     1      31.907  33.900  15.767  1.00  0.00     0.154 C 
BRANCH   5   6
ATOM      6  C   UNL     1      31.302  33.066  16.852  1.00  0.00     0.165 C 
BRANCH   6   7
ATOM      7  C   UNL     1      30.739  31.777  16.335  1.00  0.00     0.176 C 
BRANCH   7   8
ATOM      8  C   UNL     1      29.325  31.464  16.583  1.00  0.00     0.178 C 
ATOM      9  C   UNL     1      27.134  32.140  16.345  1.00  0.00     0.269 C 
ATOM     10  C   UNL     1      26.880  30.661  16.544  1.00  0.00     0.112 C 
ATOM     11  O   UNL     1      28.478  32.447  16.136  1.00  0.00    -0.332 OA
ATOM     12  C   UNL     1      27.652  30.149  17.752  1.00  0.00     0.145 C 
ATOM     13  C   UNL     1      28.914  31.014  17.943  1.00  0.00     0.142 C 
BRANCH   9  14
ATOM     14  O   UNL     1      26.733  32.860  17.466  1.00  0.00    -0.357 OA
ATOM     15  H   UNL     1      25.943  33.422  17.297  1.00  0.00     0.214 HD
ENDBRANCH   9  14
BRANCH   9  16
ATOM     16  C   UNL     1      26.406  32.652  15.162  1.00  0.00     0.364 C 
ATOM     17  O   UNL     1      25.380  32.094  14.697  1.00  0.00    -0.246 OA
BRANCH  16  18
ATOM     18  O   UNL     1      26.865  33.795  14.533  1.00  0.00    -0.477 OA
ATOM     19  H   UNL     1      26.999  34.659  15.079  1.00  0.00     0.296 HD
ENDBRANCH  16  18
ENDBRANCH   9  16
BRANCH  12  20
ATOM     20  O   UNL     1      26.838  30.217  18.874  1.00  0.00    -0.391 OA
ATOM     21  H   UNL     1      27.132  29.494  19.488  1.00  0.00     0.211 HD
ENDBRANCH  12  20
BRANCH  13  22
ATOM     22  N   UNL     1      29.909  30.225  18.640  1.00  0.00    -0.348 N 
ATOM     23  C   UNL     1      30.532  30.776  19.790  1.00  0.00     0.217 C 
ATOM     24  H   UNL     1      30.179  29.263  18.320  1.00  0.00     0.163 HD
ATOM     25  C   UNL     1      31.565  30.040  20.568  1.00  0.00     0.114 C 
ATOM     26  O   UNL     1      30.210  31.923  20.174  1.00  0.00    -0.275 OA
ENDBRANCH  13  22
ENDBRANCH   7   8
BRANCH   7  27
ATOM     27  O   UNL     1      30.976  31.862  14.912  1.00  0.00    -0.388 OA
ATOM     28  H   UNL     1      31.315  32.751  14.713  1.00  0.00     0.211 HD
ENDBRANCH   7  27
ENDBRANCH   6   7
BRANCH   6  29
ATOM     29  O   UNL     1      30.434  33.775  17.614  1.00  0.00    -0.388 OA
ATOM     30  H   UNL     1      29.940  33.272  18.290  1.00  0.00     0.211 HD
ENDBRANCH   6  29
ENDBRANCH   5   6
ENDBRANCH   1   5
BRANCH   2  31
ATOM     31  O   UNL     1      29.670  36.564  14.264  1.00  0.00    -0.443 OA
BRANCH  31  32
ATOM     32  C   UNL     1      28.441  36.963  14.832  1.00  0.00     0.294 C 
BRANCH  32  33
ATOM     33  C   UNL     1      28.434  36.635  16.278  1.00  0.00     0.120 A 
ATOM     34  C   UNL     1      29.047  37.326  17.293  1.00  0.00     0.138 A 
ATOM     35  N   UNL     1      27.823  35.601  16.838  1.00  0.00    -0.132 NA
ATOM     36  N   UNL     1      28.763  36.655  18.423  1.00  0.00    -0.250 N 
ATOM     37  N   UNL     1      28.015  35.598  18.154  1.00  0.00    -0.067 NA
BRANCH  36  38
ATOM     38  C   UNL     1      29.222  37.049  19.740  1.00  0.00     0.174 C 
BRANCH  38  39
ATOM     39  C   UNL     1      29.163  35.832  20.660  1.00  0.00     0.179 C 
BRANCH  39  40
ATOM     40  O   UNL     1      30.115  34.890  20.218  1.00  0.00    -0.394 OA
ATOM     41  H   UNL     1      30.761  34.688  20.961  1.00  0.00     0.210 HD
ENDBRANCH  39  40
ENDBRANCH  38  39
ENDBRANCH  36  38
ENDBRANCH  32  33
ENDBRANCH  31  32
ENDBRANCH   2  31
TORSDOF 17
BEGIN_RES LYS A 131
REMARK  4 active torsions:
REMARK  status: ('A' for Active; 'I' for Inactive)
REMARK    1  A    between atoms: CA   and  CB  
REMARK    2  A    between atoms: CB   and  CG  
REMARK    3  A    between atoms: CG   and  CD  
REMARK    4  A    between atoms: CD   and  CE  
ROOT
ATOM      1  CA  LYS A 131      29.867  25.555  16.977  1.00 20.52     0.186 C 
ENDROOT
BRANCH   1   2
ATOM      2  CB  LYS A 131      28.345  25.722  17.026  1.00 20.94     0.034 C 
BRANCH   2   3
ATOM      3  CG  LYS A 131      27.601  24.401  16.907  1.00 22.96     0.005 C 
BRANCH   3   4
ATOM      4  CD  LYS A 131      26.648  24.182  18.049  1.00 24.33     0.041 C 
BRANCH   4   5
ATOM      5  CE  LYS A 131      26.386  25.508  18.754  1.00 26.91     0.338 C 
ATOM      6  NZ  LYS A 131      25.556  25.298  19.963  1.00 27.40     0.618 N 
ENDBRANCH   4   5
ENDBRANCH   3   4
ENDBRANCH   2   3
ENDBRANCH   1   2
END_RES LYS A 131
BEGIN_RES LYS A 135
REMARK  4 active torsions:
REMARK  status: ('A' for Active; 'I' for Inactive)
REMARK    5  A    between atoms: CA   and  CB  
REMARK    6  A    between atoms: CB   and  CG  
REMARK    7  A    between atoms: CG   and  CD  
REMARK    8  A    between atoms: CD   and  CE  
ROOT
ATOM      7  CA  LYS A 135      33.193  34.663   9.290  1.00 25.02     0.186 C 
ENDROOT
BRANCH   7   8
ATOM      8  CB  LYS A 135      32.060  35.360  10.034  1.00 26.63     0.034 C 
BRANCH   8   9
ATOM      9  CG  LYS A 135      30.698  34.794   9.724  1.00 29.45     0.005 C 
BRANCH   9  10
ATOM     10  CD  LYS A 135      30.172  35.351   8.411  1.00 32.00     0.041 C 
BRANCH  10  11
ATOM     11  CE  LYS A 135      28.820  34.747   8.080  1.00 34.25     0.338 C 
ATOM     12  NZ  LYS A 135      28.221  35.397   6.882  1.00 35.99     0.618 N 
ENDBRANCH  10  11
ENDBRANCH   9  10
ENDBRANCH   8   9
ENDBRANCH   7   8
END_RES LYS A 135
