REMARK VINA RESULT:    -5.118      2.027      3.026
REMARK INTER + INTRA:         -14.617
REMARK INTER:                  -8.008
REMARK INTRA:                  -6.609
REMARK UNBOUND:                -5.012
REMARK SMILES CC(=O)N[C@@H]1[C@@H](O)C[C@](O)(C(=O)O)O[C@H]1C(O)[C@H](O)CNC(=O)OCc1cn(CC(O)c2ccccc2)nn1
REMARK SMILES IDX 21 1 22 2 23 3 20 5 18 6 16 7 15 8 9 9 8 10 14 11 6 12 5 13
REMARK SMILES IDX 10 14 11 16 12 17 13 18 7 20 4 22 2 23 1 25 3 26 17 27 19 29
REMARK SMILES IDX 24 31 25 32 26 33 27 34 39 35 28 36 38 37 29 38 30 39 31 40
REMARK SMILES IDX 32 42 33 43 37 44 34 45 36 46 35 47
REMARK H PARENT 21 4 10 15 13 19 7 21 4 24 17 28 19 30 31 41
REMARK Flexibility Score: inf
ROOT
ATOM      1  N   UNL     1      25.749  27.437  23.411  1.00  0.00    -0.319 N 
ATOM      2  C   UNL     1      25.789  26.338  22.518  1.00  0.00     0.407 C 
ATOM      3  O   UNL     1      26.220  25.239  22.933  1.00  0.00    -0.225 OA
ATOM      4  H   UNL     1      25.366  28.335  22.979  1.00  0.00     0.167 HD
ENDROOT
BRANCH   1   5
ATOM      5  C   UNL     1      26.177  27.398  24.791  1.00  0.00     0.154 C 
BRANCH   5   6
ATOM      6  C   UNL     1      27.261  28.414  25.082  1.00  0.00     0.165 C 
BRANCH   6   7
ATOM      7  C   UNL     1      28.318  28.391  23.977  1.00  0.00     0.176 C 
BRANCH   7   8
ATOM      8  C   UNL     1      29.732  28.341  24.489  1.00  0.00     0.178 C 
ATOM      9  C   UNL     1      30.726  28.095  22.384  1.00  0.00     0.269 C 
ATOM     10  C   UNL     1      30.364  26.665  22.423  1.00  0.00     0.112 C 
ATOM     11  O   UNL     1      30.566  28.854  23.493  1.00  0.00    -0.332 OA
ATOM     12  C   UNL     1      30.246  26.019  23.768  1.00  0.00     0.145 C 
ATOM     13  C   UNL     1      30.137  26.995  24.915  1.00  0.00     0.142 C 
BRANCH   9  14
ATOM     14  O   UNL     1      29.889  28.686  21.390  1.00  0.00    -0.357 OA
ATOM     15  H   UNL     1      29.011  28.263  21.509  1.00  0.00     0.214 HD
ENDBRANCH   9  14
BRANCH   9  16
ATOM     16  C   UNL     1      32.116  28.221  21.805  1.00  0.00     0.364 C 
ATOM     17  O   UNL     1      33.123  28.420  22.525  1.00  0.00    -0.246 OA
BRANCH  16  18
ATOM     18  O   UNL     1      32.303  28.115  20.430  1.00  0.00    -0.477 OA
ATOM     19  H   UNL     1      32.124  28.868  19.784  1.00  0.00     0.296 HD
ENDBRANCH  16  18
ENDBRANCH   9  16
BRANCH  12  20
ATOM     20  O   UNL     1      29.133  25.132  23.771  1.00  0.00    -0.391 OA
ATOM     21  H   UNL     1      29.476  24.259  24.041  1.00  0.00     0.211 HD
ENDBRANCH  12  20
BRANCH  13  22
ATOM     22  N   UNL     1      31.420  26.949  25.598  1.00  0.00    -0.348 N 
ATOM     23  C   UNL     1      31.679  26.162  26.746  1.00  0.00     0.217 C 
ATOM     24  H   UNL     1      32.167  27.548  25.184  1.00  0.00     0.163 HD
ATOM     25  C   UNL     1      33.001  26.138  27.419  1.00  0.00     0.114 C 
ATOM     26  O   UNL     1      30.714  25.474  27.169  1.00  0.00    -0.275 OA
ENDBRANCH  13  22
ENDBRANCH   7   8
BRANCH   7  27
ATOM     27  O   UNL     1      28.158  29.709  23.399  1.00  0.00    -0.388 OA
ATOM     28  H   UNL     1      28.987  30.210  23.438  1.00  0.00     0.211 HD
ENDBRANCH   7  27
ENDBRANCH   6   7
BRANCH   6  29
ATOM     29  O   UNL     1      27.778  28.169  26.333  1.00  0.00    -0.388 OA
ATOM     30  H   UNL     1      28.571  28.743  26.450  1.00  0.00     0.211 HD
ENDBRANCH   6  29
ENDBRANCH   5   6
ENDBRANCH   1   5
BRANCH   2  31
ATOM     31  O   UNL     1      25.371  26.421  21.198  1.00  0.00    -0.443 OA
BRANCH  31  32
ATOM     32  C   UNL     1      26.273  26.389  20.110  1.00  0.00     0.294 C 
BRANCH  32  33
ATOM     33  C   UNL     1      26.824  27.745  19.909  1.00  0.00     0.120 A 
ATOM     34  C   UNL     1      27.413  28.230  18.753  1.00  0.00     0.138 A 
ATOM     35  N   UNL     1      26.877  28.784  20.775  1.00  0.00    -0.132 NA
ATOM     36  N   UNL     1      27.794  29.506  18.944  1.00  0.00    -0.249 N 
ATOM     37  N   UNL     1      27.457  29.811  20.173  1.00  0.00    -0.067 NA
BRANCH  36  38
ATOM     38  C   UNL     1      28.453  30.354  17.942  1.00  0.00     0.182 C 
BRANCH  38  39
ATOM     39  C   UNL     1      29.599  31.084  18.600  1.00  0.00     0.166 C 
BRANCH  39  40
ATOM     40  O   UNL     1      30.478  30.098  19.103  1.00  0.00    -0.386 OA
ATOM     41  H   UNL     1      31.406  30.314  18.812  1.00  0.00     0.211 HD
ENDBRANCH  39  40
BRANCH  39  42
ATOM     42  C   UNL     1      30.336  31.871  17.591  1.00  0.00    -0.018 A 
ATOM     43  C   UNL     1      30.485  31.453  16.285  1.00  0.00     0.006 A 
ATOM     44  C   UNL     1      30.907  33.092  17.973  1.00  0.00     0.006 A 
ATOM     45  C   UNL     1      31.174  32.200  15.362  1.00  0.00     0.000 A 
ATOM     46  C   UNL     1      31.592  33.837  17.056  1.00  0.00     0.000 A 
ATOM     47  C   UNL     1      31.725  33.395  15.760  1.00  0.00     0.000 A 
ENDBRANCH  39  42
ENDBRANCH  38  39
ENDBRANCH  36  38
ENDBRANCH  32  33
ENDBRANCH  31  32
ENDBRANCH   2  31
TORSDOF 18
BEGIN_RES LYS A 131
REMARK  4 active torsions:
REMARK  status: ('A' for Active; 'I' for Inactive)
REMARK    1  A    between atoms: CA   and  CB  
REMARK    2  A    between atoms: CB   and  CG  
REMARK    3  A    between atoms: CG   and  CD  
REMARK    4  A    between atoms: CD   and  CE  
ROOT
ATOM      1  CA  LYS A 131      29.867  25.555  16.977  1.00 20.52     0.186 C 
ENDROOT
BRANCH   1   2
ATOM      2  CB  LYS A 131      28.345  25.722  17.026  1.00 20.94     0.034 C 
BRANCH   2   3
ATOM      3  CG  LYS A 131      27.599  24.481  16.559  1.00 22.96     0.005 C 
BRANCH   3   4
ATOM      4  CD  LYS A 131      27.012  23.708  17.707  1.00 24.33     0.041 C 
BRANCH   4   5
ATOM      5  CE  LYS A 131      25.492  23.683  17.581  1.00 26.91     0.338 C 
ATOM      6  NZ  LYS A 131      24.988  22.292  17.650  1.00 27.40     0.618 N 
ENDBRANCH   4   5
ENDBRANCH   3   4
ENDBRANCH   2   3
ENDBRANCH   1   2
END_RES LYS A 131
BEGIN_RES LYS A 135
REMARK  4 active torsions:
REMARK  status: ('A' for Active; 'I' for Inactive)
REMARK    5  A    between atoms: CA   and  CB  
REMARK    6  A    between atoms: CB   and  CG  
REMARK    7  A    between atoms: CG   and  CD  
REMARK    8  A    between atoms: CD   and  CE  
ROOT
ATOM      7  CA  LYS A 135      33.193  34.663   9.290  1.00 25.02     0.186 C 
ENDROOT
BRANCH   7   8
ATOM      8  CB  LYS A 135      32.060  35.360  10.034  1.00 26.63     0.034 C 
BRANCH   8   9
ATOM      9  CG  LYS A 135      30.716  34.710   9.830  1.00 29.45     0.005 C 
BRANCH   9  10
ATOM     10  CD  LYS A 135      30.172  35.025   8.445  1.00 32.00     0.041 C 
BRANCH  10  11
ATOM     11  CE  LYS A 135      28.661  34.895   8.424  1.00 34.25     0.338 C 
ATOM     12  NZ  LYS A 135      28.107  35.292   7.100  1.00 35.99     0.618 N 
ENDBRANCH  10  11
ENDBRANCH   9  10
ENDBRANCH   8   9
ENDBRANCH   7   8
END_RES LYS A 135
