REMARK VINA RESULT:    -4.485      8.007     12.546
REMARK INTER + INTRA:         -15.262
REMARK INTER:                  -9.188
REMARK INTRA:                  -6.073
REMARK UNBOUND:                -7.237
REMARK SMILES CC(=O)N[C@@H]1[C@@H](O)C[C@](O)(C(=O)O)O[C@H]1C(O)[C@H](O)CNC(=O)OCc1cn(-c2ccccc2C(C)C)nn1
REMARK SMILES IDX 21 1 22 2 23 3 20 5 18 6 16 7 15 8 9 9 8 10 14 11 6 12 5 13
REMARK SMILES IDX 10 14 11 16 12 17 13 18 7 20 4 22 2 23 1 25 3 26 17 27 19 29
REMARK SMILES IDX 24 31 25 32 26 33 27 34 39 35 28 36 38 37 29 38 34 39 30 40
REMARK SMILES IDX 33 41 31 42 32 43 35 44 36 45 37 46
REMARK H PARENT 21 4 10 15 13 19 7 21 4 24 17 28 19 30
REMARK Flexibility Score: inf
ROOT
ATOM      1  N   UNL     1      29.522  26.996  20.307  1.00  0.00    -0.319 N 
ATOM      2  C   UNL     1      28.322  27.732  20.344  1.00  0.00     0.407 C 
ATOM      3  O   UNL     1      28.027  28.441  21.328  1.00  0.00    -0.225 OA
ATOM      4  H   UNL     1      29.724  26.423  19.443  1.00  0.00     0.167 HD
ENDROOT
BRANCH   1   5
ATOM      5  C   UNL     1      30.456  27.005  21.378  1.00  0.00     0.154 C 
BRANCH   5   6
ATOM      6  C   UNL     1      31.847  27.512  21.002  1.00  0.00     0.165 C 
BRANCH   6   7
ATOM      7  C   UNL     1      31.732  29.025  21.200  1.00  0.00     0.176 C 
BRANCH   7   8
ATOM      8  C   UNL     1      33.048  29.681  21.473  1.00  0.00     0.178 C 
ATOM      9  C   UNL     1      34.226  29.855  23.463  1.00  0.00     0.269 C 
ATOM     10  C   UNL     1      34.754  31.194  23.088  1.00  0.00     0.112 C 
ATOM     11  O   UNL     1      33.707  29.064  22.482  1.00  0.00    -0.332 OA
ATOM     12  C   UNL     1      33.987  31.921  22.004  1.00  0.00     0.145 C 
ATOM     13  C   UNL     1      32.728  31.137  21.779  1.00  0.00     0.142 C 
BRANCH   9  14
ATOM     14  O   UNL     1      33.329  29.987  24.554  1.00  0.00    -0.357 OA
ATOM     15  H   UNL     1      32.519  29.454  24.457  1.00  0.00     0.214 HD
ENDBRANCH   9  14
BRANCH   9  16
ATOM     16  C   UNL     1      35.398  29.081  24.014  1.00  0.00     0.364 C 
ATOM     17  O   UNL     1      35.943  28.231  23.278  1.00  0.00    -0.246 OA
BRANCH  16  18
ATOM     18  O   UNL     1      35.899  29.277  25.294  1.00  0.00    -0.477 OA
ATOM     19  H   UNL     1      36.781  29.738  25.501  1.00  0.00     0.296 HD
ENDBRANCH  16  18
ENDBRANCH   9  16
BRANCH  12  20
ATOM     20  O   UNL     1      33.644  33.215  22.503  1.00  0.00    -0.391 OA
ATOM     21  H   UNL     1      32.665  33.312  22.583  1.00  0.00     0.211 HD
ENDBRANCH  12  20
BRANCH  13  22
ATOM     22  N   UNL     1      31.769  31.640  20.876  1.00  0.00    -0.348 N 
ATOM     23  C   UNL     1      30.701  32.507  21.215  1.00  0.00     0.217 C 
ATOM     24  H   UNL     1      31.829  31.355  19.839  1.00  0.00     0.163 HD
ATOM     25  C   UNL     1      29.713  33.018  20.259  1.00  0.00     0.114 C 
ATOM     26  O   UNL     1      30.632  32.836  22.475  1.00  0.00    -0.275 OA
ENDBRANCH  13  22
ENDBRANCH   7   8
BRANCH   7  27
ATOM     27  O   UNL     1      30.810  29.180  22.239  1.00  0.00    -0.388 OA
ATOM     28  H   UNL     1      31.331  29.365  23.065  1.00  0.00     0.211 HD
ENDBRANCH   7  27
ENDBRANCH   6   7
BRANCH   6  29
ATOM     29  O   UNL     1      32.215  27.236  19.726  1.00  0.00    -0.388 OA
ATOM     30  H   UNL     1      31.543  27.422  19.074  1.00  0.00     0.211 HD
ENDBRANCH   6  29
ENDBRANCH   5   6
ENDBRANCH   1   5
BRANCH   2  31
ATOM     31  O   UNL     1      27.424  27.689  19.276  1.00  0.00    -0.443 OA
BRANCH  31  32
ATOM     32  C   UNL     1      26.674  28.863  19.000  1.00  0.00     0.294 C 
BRANCH  32  33
ATOM     33  C   UNL     1      27.276  29.437  17.770  1.00  0.00     0.121 A 
ATOM     34  C   UNL     1      27.936  30.672  17.732  1.00  0.00     0.144 A 
ATOM     35  N   UNL     1      27.407  28.884  16.555  1.00  0.00    -0.131 NA
ATOM     36  N   UNL     1      28.431  30.773  16.484  1.00  0.00    -0.220 N 
ATOM     37  N   UNL     1      28.107  29.725  15.842  1.00  0.00    -0.062 NA
BRANCH  36  38
ATOM     38  C   UNL     1      29.285  31.819  16.061  1.00  0.00     0.070 A 
ATOM     39  C   UNL     1      28.787  32.894  15.431  1.00  0.00    -0.020 A 
ATOM     40  C   UNL     1      30.672  31.634  16.155  1.00  0.00     0.029 A 
ATOM     41  C   UNL     1      29.666  33.822  14.874  1.00  0.00     0.006 A 
ATOM     42  C   UNL     1      31.535  32.519  15.623  1.00  0.00     0.002 A 
ATOM     43  C   UNL     1      31.052  33.641  14.965  1.00  0.00     0.000 A 
BRANCH  39  44
ATOM     44  C   UNL     1      27.366  33.180  15.437  1.00  0.00     0.015 C 
ATOM     45  C   UNL     1      26.951  34.113  14.310  1.00  0.00     0.012 C 
ATOM     46  C   UNL     1      27.151  34.161  16.674  1.00  0.00     0.012 C 
ENDBRANCH  39  44
ENDBRANCH  36  38
ENDBRANCH  32  33
ENDBRANCH  31  32
ENDBRANCH   2  31
TORSDOF 16
BEGIN_RES LYS A 131
REMARK  4 active torsions:
REMARK  status: ('A' for Active; 'I' for Inactive)
REMARK    1  A    between atoms: CA   and  CB  
REMARK    2  A    between atoms: CB   and  CG  
REMARK    3  A    between atoms: CG   and  CD  
REMARK    4  A    between atoms: CD   and  CE  
ROOT
ATOM      1  CA  LYS A 131      29.867  25.555  16.977  1.00 20.52     0.186 C 
ENDROOT
BRANCH   1   2
ATOM      2  CB  LYS A 131      28.345  25.722  17.026  1.00 20.94     0.034 C 
BRANCH   2   3
ATOM      3  CG  LYS A 131      27.601  24.403  16.887  1.00 22.96     0.005 C 
BRANCH   3   4
ATOM      4  CD  LYS A 131      26.609  24.192  17.997  1.00 24.33     0.041 C 
BRANCH   4   5
ATOM      5  CE  LYS A 131      25.606  23.119  17.587  1.00 26.91     0.338 C 
ATOM      6  NZ  LYS A 131      24.219  23.605  17.777  1.00 27.40     0.618 N 
ENDBRANCH   4   5
ENDBRANCH   3   4
ENDBRANCH   2   3
ENDBRANCH   1   2
END_RES LYS A 131
BEGIN_RES LYS A 135
REMARK  4 active torsions:
REMARK  status: ('A' for Active; 'I' for Inactive)
REMARK    5  A    between atoms: CA   and  CB  
REMARK    6  A    between atoms: CB   and  CG  
REMARK    7  A    between atoms: CG   and  CD  
REMARK    8  A    between atoms: CD   and  CE  
ROOT
ATOM      7  CA  LYS A 135      33.193  34.663   9.290  1.00 25.02     0.186 C 
ENDROOT
BRANCH   7   8
ATOM      8  CB  LYS A 135      32.060  35.360  10.034  1.00 26.63     0.034 C 
BRANCH   8   9
ATOM      9  CG  LYS A 135      30.808  35.521   9.211  1.00 29.45     0.005 C 
BRANCH   9  10
ATOM     10  CD  LYS A 135      30.145  34.174   8.972  1.00 32.00     0.041 C 
BRANCH  10  11
ATOM     11  CE  LYS A 135      28.678  34.354   8.632  1.00 34.25     0.338 C 
ATOM     12  NZ  LYS A 135      27.808  33.668   9.627  1.00 35.99     0.618 N 
ENDBRANCH  10  11
ENDBRANCH   9  10
ENDBRANCH   8   9
ENDBRANCH   7   8
END_RES LYS A 135
