REMARK VINA RESULT:    -5.912      3.618      8.965
REMARK INTER + INTRA:         -15.700
REMARK INTER:                  -8.589
REMARK INTRA:                  -7.111
REMARK UNBOUND:                -4.777
REMARK SMILES CC(=O)N[C@@H]1[C@@H](O)C[C@](O)(C(=O)O)O[C@H]1C(O)[C@H](O)CNC(=O)OCc1cn(C(C)(C)C(=O)c2c[nH]c3ccccc23)nn1
REMARK SMILES IDX 21 1 22 2 23 3 20 5 18 6 16 7 15 8 9 9 8 10 14 11 6 12 5 13
REMARK SMILES IDX 10 14 11 16 12 17 13 18 7 20 4 22 2 23 1 25 3 26 17 27 19 29
REMARK SMILES IDX 24 31 25 32 26 33 27 34 44 35 28 36 43 37 29 38 30 39 31 40
REMARK SMILES IDX 32 41 33 42 34 43 35 44 42 45 36 46 37 47 41 48 38 50 40 51
REMARK SMILES IDX 39 52
REMARK H PARENT 21 4 10 15 13 19 7 21 4 24 17 28 19 30 36 49
REMARK Flexibility Score: inf
ROOT
ATOM      1  N   UNL     1      32.385  34.596  19.281  1.00  0.00    -0.319 N 
ATOM      2  C   UNL     1      32.338  36.010  19.288  1.00  0.00     0.407 C 
ATOM      3  O   UNL     1      31.401  36.616  19.812  1.00  0.00    -0.225 OA
ATOM      4  H   UNL     1      33.251  34.172  18.804  1.00  0.00     0.167 HD
ENDROOT
BRANCH   1   5
ATOM      5  C   UNL     1      31.398  33.714  19.842  1.00  0.00     0.154 C 
BRANCH   5   6
ATOM      6  C   UNL     1      30.219  33.431  18.987  1.00  0.00     0.165 C 
BRANCH   6   7
ATOM      7  C   UNL     1      30.562  33.250  17.517  1.00  0.00     0.176 C 
BRANCH   7   8
ATOM      8  C   UNL     1      29.821  32.085  16.912  1.00  0.00     0.178 C 
ATOM      9  C   UNL     1      27.578  32.445  16.456  1.00  0.00     0.269 C 
ATOM     10  C   UNL     1      27.141  31.072  16.916  1.00  0.00     0.112 C 
ATOM     11  O   UNL     1      28.885  32.443  15.985  1.00  0.00    -0.332 OA
ATOM     12  C   UNL     1      28.328  30.200  17.271  1.00  0.00     0.145 C 
ATOM     13  C   UNL     1      29.321  31.128  17.973  1.00  0.00     0.142 C 
BRANCH   9  14
ATOM     14  O   UNL     1      27.405  33.419  17.438  1.00  0.00    -0.357 OA
ATOM     15  H   UNL     1      27.124  33.004  18.304  1.00  0.00     0.214 HD
ENDBRANCH   9  14
BRANCH   9  16
ATOM     16  C   UNL     1      26.702  32.821  15.314  1.00  0.00     0.364 C 
ATOM     17  O   UNL     1      25.642  32.155  15.096  1.00  0.00    -0.246 OA
BRANCH  16  18
ATOM     18  O   UNL     1      26.974  33.867  14.463  1.00  0.00    -0.477 OA
ATOM     19  H   UNL     1      27.865  33.990  14.000  1.00  0.00     0.296 HD
ENDBRANCH  16  18
ENDBRANCH   9  16
BRANCH  12  20
ATOM     20  O   UNL     1      27.981  29.135  18.068  1.00  0.00    -0.391 OA
ATOM     21  H   UNL     1      27.008  28.928  17.900  1.00  0.00     0.211 HD
ENDBRANCH  12  20
BRANCH  13  22
ATOM     22  N   UNL     1      30.427  30.395  18.527  1.00  0.00    -0.348 N 
ATOM     23  C   UNL     1      30.462  29.999  19.911  1.00  0.00     0.217 C 
ATOM     24  H   UNL     1      31.267  30.106  17.969  1.00  0.00     0.163 HD
ATOM     25  C   UNL     1      31.567  29.254  20.515  1.00  0.00     0.114 C 
ATOM     26  O   UNL     1      29.455  30.337  20.613  1.00  0.00    -0.275 OA
ENDBRANCH  13  22
ENDBRANCH   7   8
BRANCH   7  27
ATOM     27  O   UNL     1      30.161  34.435  16.892  1.00  0.00    -0.388 OA
ATOM     28  H   UNL     1      30.180  35.206  17.491  1.00  0.00     0.211 HD
ENDBRANCH   7  27
ENDBRANCH   6   7
BRANCH   6  29
ATOM     29  O   UNL     1      29.303  34.464  19.052  1.00  0.00    -0.388 OA
ATOM     30  H   UNL     1      29.745  35.231  19.499  1.00  0.00     0.211 HD
ENDBRANCH   6  29
ENDBRANCH   5   6
ENDBRANCH   1   5
BRANCH   2  31
ATOM     31  O   UNL     1      33.345  36.785  18.706  1.00  0.00    -0.443 OA
BRANCH  31  32
ATOM     32  C   UNL     1      33.077  37.598  17.602  1.00  0.00     0.294 C 
BRANCH  32  33
ATOM     33  C   UNL     1      32.716  36.771  16.422  1.00  0.00     0.120 A 
ATOM     34  C   UNL     1      32.000  37.196  15.314  1.00  0.00     0.139 A 
ATOM     35  N   UNL     1      32.994  35.475  16.171  1.00  0.00    -0.132 NA
ATOM     36  N   UNL     1      31.868  36.172  14.449  1.00  0.00    -0.239 N 
ATOM     37  N   UNL     1      32.483  35.139  15.000  1.00  0.00    -0.066 NA
BRANCH  36  38
ATOM     38  C   UNL     1      31.171  36.217  13.149  1.00  0.00     0.122 C 
ATOM     39  C   UNL     1      31.667  37.385  12.369  1.00  0.00     0.046 C 
ATOM     40  C   UNL     1      31.585  34.895  12.474  1.00  0.00     0.046 C 
BRANCH  38  41
ATOM     41  C   UNL     1      29.737  36.169  13.422  1.00  0.00     0.192 C 
ATOM     42  O   UNL     1      29.290  35.666  14.512  1.00  0.00    -0.291 OA
BRANCH  41  43
ATOM     43  C   UNL     1      28.695  36.659  12.526  1.00  0.00     0.045 A 
ATOM     44  C   UNL     1      28.205  37.964  12.513  1.00  0.00     0.095 A 
ATOM     45  C   UNL     1      28.032  35.907  11.592  1.00  0.00     0.010 A 
ATOM     46  N   UNL     1      27.256  37.995  11.580  1.00  0.00    -0.360 N 
ATOM     47  C   UNL     1      27.117  36.784  11.000  1.00  0.00     0.046 A 
ATOM     48  C   UNL     1      28.101  34.584  11.165  1.00  0.00     0.011 A 
ATOM     49  H   UNL     1      26.695  38.821  11.323  1.00  0.00     0.166 HD
ATOM     50  C   UNL     1      26.300  36.295  10.000  1.00  0.00     0.027 A 
ATOM     51  C   UNL     1      27.278  34.135  10.174  1.00  0.00     0.001 A 
ATOM     52  C   UNL     1      26.382  34.985   9.594  1.00  0.00     0.002 A 
ENDBRANCH  41  43
ENDBRANCH  38  41
ENDBRANCH  36  38
ENDBRANCH  32  33
ENDBRANCH  31  32
ENDBRANCH   2  31
TORSDOF 17
BEGIN_RES LYS A 131
REMARK  4 active torsions:
REMARK  status: ('A' for Active; 'I' for Inactive)
REMARK    1  A    between atoms: CA   and  CB  
REMARK    2  A    between atoms: CB   and  CG  
REMARK    3  A    between atoms: CG   and  CD  
REMARK    4  A    between atoms: CD   and  CE  
ROOT
ATOM      1  CA  LYS A 131      29.867  25.555  16.977  1.00 20.52     0.186 C 
ENDROOT
BRANCH   1   2
ATOM      2  CB  LYS A 131      28.345  25.722  17.026  1.00 20.94     0.034 C 
BRANCH   2   3
ATOM      3  CG  LYS A 131      27.599  24.451  16.650  1.00 22.96     0.005 C 
BRANCH   3   4
ATOM      4  CD  LYS A 131      26.764  23.927  17.785  1.00 24.33     0.041 C 
BRANCH   4   5
ATOM      5  CE  LYS A 131      25.311  23.810  17.336  1.00 26.91     0.338 C 
ATOM      6  NZ  LYS A 131      24.666  25.144  17.308  1.00 27.40     0.618 N 
ENDBRANCH   4   5
ENDBRANCH   3   4
ENDBRANCH   2   3
ENDBRANCH   1   2
END_RES LYS A 131
BEGIN_RES LYS A 135
REMARK  4 active torsions:
REMARK  status: ('A' for Active; 'I' for Inactive)
REMARK    5  A    between atoms: CA   and  CB  
REMARK    6  A    between atoms: CB   and  CG  
REMARK    7  A    between atoms: CG   and  CD  
REMARK    8  A    between atoms: CD   and  CE  
ROOT
ATOM      7  CA  LYS A 135      33.193  34.663   9.290  1.00 25.02     0.186 C 
ENDROOT
BRANCH   7   8
ATOM      8  CB  LYS A 135      32.060  35.360  10.034  1.00 26.63     0.034 C 
BRANCH   8   9
ATOM      9  CG  LYS A 135      30.904  35.745   9.147  1.00 29.45     0.005 C 
BRANCH   9  10
ATOM     10  CD  LYS A 135      30.484  34.574   8.273  1.00 32.00     0.041 C 
BRANCH  10  11
ATOM     11  CE  LYS A 135      29.354  34.978   7.347  1.00 34.25     0.338 C 
ATOM     12  NZ  LYS A 135      29.025  36.423   7.501  1.00 35.99     0.618 N 
ENDBRANCH  10  11
ENDBRANCH   9  10
ENDBRANCH   8   9
ENDBRANCH   7   8
END_RES LYS A 135
