REMARK VINA RESULT:    -5.152      1.609      3.261
REMARK INTER + INTRA:         -15.163
REMARK INTER:                  -8.346
REMARK INTRA:                  -6.817
REMARK UNBOUND:                -5.794
REMARK SMILES CC(=O)N[C@@H]1[C@@H](O)C[C@](O)(C(=O)O)O[C@H]1C(O)[C@H](O)CNC(=O)OCc1cn(Cc2cc(Br)cc(Br)c2O)nn1
REMARK SMILES IDX 21 1 22 2 23 3 20 5 18 6 16 7 15 8 9 9 8 10 14 11 6 12 5 13
REMARK SMILES IDX 10 14 11 16 12 17 13 18 7 20 4 22 2 23 1 25 3 26 17 27 19 29
REMARK SMILES IDX 24 31 25 32 26 33 27 34 40 35 28 36 39 37 29 38 30 39 31 40
REMARK SMILES IDX 37 41 32 42 35 43 33 44 34 45 36 46 38 47
REMARK H PARENT 21 4 10 15 13 19 7 21 4 24 17 28 19 30 38 48
REMARK Flexibility Score: inf
ROOT
ATOM      1  N   UNL     1      26.732  29.524  17.791  1.00  0.00    -0.319 N 
ATOM      2  C   UNL     1      25.877  30.626  17.504  1.00  0.00     0.407 C 
ATOM      3  O   UNL     1      24.641  30.489  17.651  1.00  0.00    -0.225 OA
ATOM      4  H   UNL     1      27.749  29.663  17.661  1.00  0.00     0.167 HD
ENDROOT
BRANCH   1   5
ATOM      5  C   UNL     1      26.221  28.258  18.242  1.00  0.00     0.154 C 
BRANCH   5   6
ATOM      6  C   UNL     1      26.737  27.923  19.612  1.00  0.00     0.165 C 
BRANCH   6   7
ATOM      7  C   UNL     1      28.246  28.006  19.690  1.00  0.00     0.176 C 
BRANCH   7   8
ATOM      8  C   UNL     1      28.644  29.089  20.710  1.00  0.00     0.178 C 
ATOM      9  C   UNL     1      28.299  31.399  20.420  1.00  0.00     0.269 C 
ATOM     10  C   UNL     1      29.576  31.577  21.256  1.00  0.00     0.112 C 
ATOM     11  O   UNL     1      27.829  30.132  20.518  1.00  0.00    -0.332 OA
ATOM     12  C   UNL     1      30.586  30.690  20.546  1.00  0.00     0.145 C 
ATOM     13  C   UNL     1      30.101  29.278  20.706  1.00  0.00     0.142 C 
BRANCH   9  14
ATOM     14  O   UNL     1      28.632  31.803  19.143  1.00  0.00    -0.357 OA
ATOM     15  H   UNL     1      28.650  31.067  18.483  1.00  0.00     0.214 HD
ENDBRANCH   9  14
BRANCH   9  16
ATOM     16  C   UNL     1      27.253  32.313  20.943  1.00  0.00     0.364 C 
ATOM     17  O   UNL     1      27.476  33.550  20.941  1.00  0.00    -0.246 OA
BRANCH  16  18
ATOM     18  O   UNL     1      26.035  31.850  21.432  1.00  0.00    -0.477 OA
ATOM     19  H   UNL     1      25.772  30.901  21.130  1.00  0.00     0.296 HD
ENDBRANCH  16  18
ENDBRANCH   9  16
BRANCH  12  20
ATOM     20  O   UNL     1      30.713  31.058  19.208  1.00  0.00    -0.391 OA
ATOM     21  H   UNL     1      30.164  31.857  19.068  1.00  0.00     0.211 HD
ENDBRANCH  12  20
BRANCH  13  22
ATOM     22  N   UNL     1      30.755  28.741  21.899  1.00  0.00    -0.348 N 
ATOM     23  C   UNL     1      31.558  27.574  21.886  1.00  0.00     0.217 C 
ATOM     24  H   UNL     1      30.648  29.217  22.838  1.00  0.00     0.163 HD
ATOM     25  C   UNL     1      32.207  27.060  23.130  1.00  0.00     0.114 C 
ATOM     26  O   UNL     1      31.732  26.953  20.806  1.00  0.00    -0.275 OA
ENDBRANCH  13  22
ENDBRANCH   7   8
BRANCH   7  27
ATOM     27  O   UNL     1      28.862  26.804  19.936  1.00  0.00    -0.388 OA
ATOM     28  H   UNL     1      28.730  26.491  20.855  1.00  0.00     0.211 HD
ENDBRANCH   7  27
ENDBRANCH   6   7
BRANCH   6  29
ATOM     29  O   UNL     1      26.217  26.721  20.039  1.00  0.00    -0.388 OA
ATOM     30  H   UNL     1      25.777  26.756  20.909  1.00  0.00     0.211 HD
ENDBRANCH   6  29
ENDBRANCH   5   6
ENDBRANCH   1   5
BRANCH   2  31
ATOM     31  O   UNL     1      26.394  31.822  17.074  1.00  0.00    -0.443 OA
BRANCH  31  32
ATOM     32  C   UNL     1      26.927  31.984  15.772  1.00  0.00     0.294 C 
BRANCH  32  33
ATOM     33  C   UNL     1      28.408  31.865  15.845  1.00  0.00     0.120 A 
ATOM     34  C   UNL     1      29.342  32.671  15.207  1.00  0.00     0.138 A 
ATOM     35  N   UNL     1      29.156  30.977  16.526  1.00  0.00    -0.132 NA
ATOM     36  N   UNL     1      30.577  32.251  15.518  1.00  0.00    -0.248 N 
ATOM     37  N   UNL     1      30.438  31.197  16.339  1.00  0.00    -0.067 NA
BRANCH  36  38
ATOM     38  C   UNL     1      31.832  32.796  15.081  1.00  0.00     0.185 C 
BRANCH  38  39
ATOM     39  C   UNL     1      31.866  34.280  15.119  1.00  0.00     0.018 A 
ATOM     40  C   UNL     1      32.085  34.896  16.335  1.00  0.00     0.025 A 
ATOM     41  C   UNL     1      31.690  35.068  14.006  1.00  0.00     0.134 A 
ATOM     42  C   UNL     1      32.135  36.265  16.486  1.00  0.00     0.019 A 
ATOM     43  C   UNL     1      31.735  36.460  14.131  1.00  0.00     0.061 A 
ATOM     44  Br  UNL     1      32.440  37.085  18.172  1.00  0.00    -0.051 Br
ATOM     45  C   UNL     1      31.954  37.048  15.353  1.00  0.00     0.035 A 
ATOM     46  Br  UNL     1      31.478  37.484  12.528  1.00  0.00    -0.047 Br
BRANCH  41  47
ATOM     47  O   UNL     1      31.469  34.482  12.774  1.00  0.00    -0.506 OA
ATOM     48  H   UNL     1      30.533  34.476  12.391  1.00  0.00     0.293 HD
ENDBRANCH  41  47
ENDBRANCH  38  39
ENDBRANCH  36  38
ENDBRANCH  32  33
ENDBRANCH  31  32
ENDBRANCH   2  31
TORSDOF 17
BEGIN_RES LYS A 131
REMARK  4 active torsions:
REMARK  status: ('A' for Active; 'I' for Inactive)
REMARK    1  A    between atoms: CA   and  CB  
REMARK    2  A    between atoms: CB   and  CG  
REMARK    3  A    between atoms: CG   and  CD  
REMARK    4  A    between atoms: CD   and  CE  
ROOT
ATOM      1  CA  LYS A 131      29.867  25.555  16.977  1.00 20.52     0.186 C 
ENDROOT
BRANCH   1   2
ATOM      2  CB  LYS A 131      28.345  25.722  17.026  1.00 20.94     0.034 C 
BRANCH   2   3
ATOM      3  CG  LYS A 131      27.602  24.399  16.920  1.00 22.96     0.005 C 
BRANCH   3   4
ATOM      4  CD  LYS A 131      26.157  24.528  17.317  1.00 24.33     0.041 C 
BRANCH   4   5
ATOM      5  CE  LYS A 131      25.610  23.157  17.701  1.00 26.91     0.338 C 
ATOM      6  NZ  LYS A 131      25.293  23.112  19.148  1.00 27.40     0.618 N 
ENDBRANCH   4   5
ENDBRANCH   3   4
ENDBRANCH   2   3
ENDBRANCH   1   2
END_RES LYS A 131
BEGIN_RES LYS A 135
REMARK  4 active torsions:
REMARK  status: ('A' for Active; 'I' for Inactive)
REMARK    5  A    between atoms: CA   and  CB  
REMARK    6  A    between atoms: CB   and  CG  
REMARK    7  A    between atoms: CG   and  CD  
REMARK    8  A    between atoms: CD   and  CE  
ROOT
ATOM      7  CA  LYS A 135      33.193  34.663   9.290  1.00 25.02     0.186 C 
ENDROOT
BRANCH   7   8
ATOM      8  CB  LYS A 135      32.060  35.360  10.034  1.00 26.63     0.034 C 
BRANCH   8   9
ATOM      9  CG  LYS A 135      30.782  35.448   9.240  1.00 29.45     0.005 C 
BRANCH   9  10
ATOM     10  CD  LYS A 135      30.201  34.062   9.004  1.00 32.00     0.041 C 
BRANCH  10  11
ATOM     11  CE  LYS A 135      28.693  34.082   9.170  1.00 34.25     0.338 C 
ATOM     12  NZ  LYS A 135      28.312  34.411  10.572  1.00 35.99     0.618 N 
ENDBRANCH  10  11
ENDBRANCH   9  10
ENDBRANCH   8   9
ENDBRANCH   7   8
END_RES LYS A 135
