REMARK VINA RESULT:    -4.022      3.613      6.175
REMARK INTER + INTRA:         -13.517
REMARK INTER:                  -6.962
REMARK INTRA:                  -6.555
REMARK UNBOUND:                -6.555
REMARK SMILES CC(=O)N[C@@H]1[C@@H](O)C[C@](O)(C(=O)O)O[C@H]1C(O)[C@H](O)CNC(=O)OCc1cn([C@H]2C[C@H]3CC[C@@H](C2)N3C)nn1
REMARK SMILES IDX 20 1 18 2 16 3 15 4 9 5 8 6 14 7 6 8 5 9 10 10 11 12 12 13
REMARK SMILES IDX 13 14 7 16 4 18 2 19 1 21 3 22 17 23 19 25 21 27 22 28 23 30
REMARK SMILES IDX 24 31 25 32 26 33 27 34 39 35 28 36 38 37 29 38 35 39 30 40
REMARK SMILES IDX 34 41 31 42 36 43 33 44 32 45 37 46
REMARK H PARENT 10 11 13 15 7 17 4 20 17 24 19 26 21 29
REMARK Flexibility Score: inf
ROOT
ATOM      1  C   UNL     1      31.744  36.602  19.253  1.00  0.00     0.154 C 
ENDROOT
BRANCH   1   2
ATOM      2  C   UNL     1      32.291  35.229  19.067  1.00  0.00     0.165 C 
BRANCH   2   3
ATOM      3  C   UNL     1      31.254  34.198  18.751  1.00  0.00     0.176 C 
BRANCH   3   4
ATOM      4  C   UNL     1      31.452  33.565  17.393  1.00  0.00     0.178 C 
ATOM      5  C   UNL     1      31.382  34.060  15.135  1.00  0.00     0.269 C 
ATOM      6  C   UNL     1      31.609  32.573  15.075  1.00  0.00     0.112 C 
ATOM      7  O   UNL     1      31.413  34.561  16.427  1.00  0.00    -0.332 OA
ATOM      8  C   UNL     1      30.671  31.788  15.940  1.00  0.00     0.145 C 
ATOM      9  C   UNL     1      30.286  32.636  17.121  1.00  0.00     0.142 C 
BRANCH   5  10
ATOM     10  O   UNL     1      30.214  34.449  14.481  1.00  0.00    -0.357 OA
ATOM     11  H   UNL     1      30.332  34.395  13.504  1.00  0.00     0.214 HD
ENDBRANCH   5  10
BRANCH   5  12
ATOM     12  C   UNL     1      32.516  34.704  14.400  1.00  0.00     0.364 C 
ATOM     13  O   UNL     1      33.470  35.265  15.037  1.00  0.00    -0.246 OA
BRANCH  12  14
ATOM     14  O   UNL     1      32.600  34.729  13.027  1.00  0.00    -0.477 OA
ATOM     15  H   UNL     1      33.536  34.797  12.607  1.00  0.00     0.296 HD
ENDBRANCH  12  14
ENDBRANCH   5  12
BRANCH   8  16
ATOM     16  O   UNL     1      29.600  31.256  15.261  1.00  0.00    -0.391 OA
ATOM     17  H   UNL     1      29.938  30.510  14.699  1.00  0.00     0.211 HD
ENDBRANCH   8  16
BRANCH   9  18
ATOM     18  N   UNL     1      29.915  31.866  18.281  1.00  0.00    -0.348 N 
ATOM     19  C   UNL     1      28.574  31.440  18.520  1.00  0.00     0.217 C 
ATOM     20  H   UNL     1      30.629  31.592  18.993  1.00  0.00     0.163 HD
ATOM     21  C   UNL     1      28.258  30.652  19.728  1.00  0.00     0.114 C 
ATOM     22  O   UNL     1      27.702  31.758  17.678  1.00  0.00    -0.275 OA
ENDBRANCH   9  18
ENDBRANCH   3   4
BRANCH   3  23
ATOM     23  O   UNL     1      29.996  34.799  18.764  1.00  0.00    -0.388 OA
ATOM     24  H   UNL     1      29.545  34.694  19.620  1.00  0.00     0.211 HD
ENDBRANCH   3  23
ENDBRANCH   2   3
BRANCH   2  25
ATOM     25  O   UNL     1      32.991  34.802  20.219  1.00  0.00    -0.388 OA
ATOM     26  H   UNL     1      33.738  34.237  19.873  1.00  0.00     0.211 HD
ENDBRANCH   2  25
ENDBRANCH   1   2
BRANCH   1  27
ATOM     27  N   UNL     1      31.711  37.354  18.022  1.00  0.00    -0.319 N 
ATOM     28  C   UNL     1      30.475  37.856  17.535  1.00  0.00     0.407 C 
ATOM     29  H   UNL     1      32.568  37.555  17.454  1.00  0.00     0.167 HD
ATOM     30  O   UNL     1      29.377  37.677  18.130  1.00  0.00    -0.225 OA
BRANCH  28  31
ATOM     31  O   UNL     1      30.385  38.589  16.352  1.00  0.00    -0.443 OA
BRANCH  31  32
ATOM     32  C   UNL     1      31.166  38.294  15.211  1.00  0.00     0.294 C 
BRANCH  32  33
ATOM     33  C   UNL     1      30.296  37.780  14.119  1.00  0.00     0.120 A 
ATOM     34  C   UNL     1      28.929  37.946  14.050  1.00  0.00     0.138 A 
ATOM     35  N   UNL     1      30.625  37.083  13.017  1.00  0.00    -0.132 NA
ATOM     36  N   UNL     1      28.463  37.350  12.917  1.00  0.00    -0.249 N 
ATOM     37  N   UNL     1      29.533  36.842  12.330  1.00  0.00    -0.067 NA
BRANCH  36  38
ATOM     38  C   UNL     1      27.078  37.288  12.459  1.00  0.00     0.112 C 
ATOM     39  C   UNL     1      26.365  36.280  13.281  1.00  0.00     0.046 C 
ATOM     40  C   UNL     1      27.096  37.026  10.995  1.00  0.00     0.046 C 
ATOM     41  C   UNL     1      25.286  35.530  12.585  1.00  0.00     0.058 C 
ATOM     42  C   UNL     1      26.117  35.973  10.545  1.00  0.00     0.058 C 
ATOM     43  N   UNL     1      24.909  36.145  11.333  1.00  0.00    -0.300 NA
ATOM     44  C   UNL     1      25.860  34.199  12.125  1.00  0.00     0.021 C 
ATOM     45  C   UNL     1      26.675  34.623  10.920  1.00  0.00     0.021 C 
ATOM     46  C   UNL     1      23.782  35.454  10.759  1.00  0.00     0.105 C 
ENDBRANCH  36  38
ENDBRANCH  32  33
ENDBRANCH  31  32
ENDBRANCH  28  31
ENDBRANCH   1  27
TORSDOF 15
BEGIN_RES LYS A 131
REMARK  4 active torsions:
REMARK  status: ('A' for Active; 'I' for Inactive)
REMARK    1  A    between atoms: CA   and  CB  
REMARK    2  A    between atoms: CB   and  CG  
REMARK    3  A    between atoms: CG   and  CD  
REMARK    4  A    between atoms: CD   and  CE  
ROOT
ATOM      1  CA  LYS A 131      29.867  25.555  16.977  1.00 20.52     0.186 C 
ENDROOT
BRANCH   1   2
ATOM      2  CB  LYS A 131      28.345  25.722  17.026  1.00 20.94     0.034 C 
BRANCH   2   3
ATOM      3  CG  LYS A 131      27.601  24.400  16.907  1.00 22.96     0.005 C 
BRANCH   3   4
ATOM      4  CD  LYS A 131      26.370  24.364  17.768  1.00 24.33     0.041 C 
BRANCH   4   5
ATOM      5  CE  LYS A 131      25.680  23.013  17.613  1.00 26.91     0.338 C 
ATOM      6  NZ  LYS A 131      24.324  23.185  17.039  1.00 27.40     0.618 N 
ENDBRANCH   4   5
ENDBRANCH   3   4
ENDBRANCH   2   3
ENDBRANCH   1   2
END_RES LYS A 131
BEGIN_RES LYS A 135
REMARK  4 active torsions:
REMARK  status: ('A' for Active; 'I' for Inactive)
REMARK    5  A    between atoms: CA   and  CB  
REMARK    6  A    between atoms: CB   and  CG  
REMARK    7  A    between atoms: CG   and  CD  
REMARK    8  A    between atoms: CD   and  CE  
ROOT
ATOM      7  CA  LYS A 135      33.193  34.663   9.290  1.00 25.02     0.186 C 
ENDROOT
BRANCH   7   8
ATOM      8  CB  LYS A 135      32.060  35.360  10.034  1.00 26.63     0.034 C 
BRANCH   8   9
ATOM      9  CG  LYS A 135      30.706  34.751   9.777  1.00 29.45     0.005 C 
BRANCH   9  10
ATOM     10  CD  LYS A 135      29.864  35.665   8.900  1.00 32.00     0.041 C 
BRANCH  10  11
ATOM     11  CE  LYS A 135      29.038  34.852   7.921  1.00 34.25     0.338 C 
ATOM     12  NZ  LYS A 135      28.885  35.568   6.624  1.00 35.99     0.618 N 
ENDBRANCH  10  11
ENDBRANCH   9  10
ENDBRANCH   8   9
ENDBRANCH   7   8
END_RES LYS A 135
