REMARK VINA RESULT:    -5.563      6.882     12.176
REMARK INTER + INTRA:         -15.291
REMARK INTER:                  -9.679
REMARK INTRA:                  -5.612
REMARK UNBOUND:                -5.011
REMARK SMILES CC(=O)N[C@@H]1[C@@H](O)C[C@](O)(C(=O)O)O[C@H]1C(O)[C@H](O)CNC(=O)OCc1cn(CS(=O)(=O)c2ccccc2)nn1
REMARK SMILES IDX 21 1 22 2 23 3 20 5 18 6 16 7 15 8 9 9 8 10 14 11 6 12 5 13
REMARK SMILES IDX 10 14 11 16 12 17 13 18 7 20 4 22 2 23 1 25 3 26 17 27 19 29
REMARK SMILES IDX 24 31 25 32 26 33 27 34 40 35 28 36 39 37 29 38 30 39 31 40
REMARK SMILES IDX 32 41 33 42 34 43 38 44 35 45 37 46 36 47
REMARK H PARENT 21 4 10 15 13 19 7 21 4 24 17 28 19 30
REMARK Flexibility Score: inf
ROOT
ATOM      1  N   UNL     1      20.640  37.124   7.972  1.00  0.00    -0.319 N 
ATOM      2  C   UNL     1      19.947  35.869   7.826  1.00  0.00     0.407 C 
ATOM      3  O   UNL     1      20.602  34.851   7.559  1.00  0.00    -0.225 OA
ATOM      4  H   UNL     1      20.021  37.925   8.201  1.00  0.00     0.167 HD
ENDROOT
BRANCH   1   5
ATOM      5  C   UNL     1      22.081  37.193   7.806  1.00  0.00     0.154 C 
BRANCH   5   6
ATOM      6  C   UNL     1      22.797  37.434   9.092  1.00  0.00     0.165 C 
BRANCH   6   7
ATOM      7  C   UNL     1      23.717  36.335   9.502  1.00  0.00     0.176 C 
BRANCH   7   8
ATOM      8  C   UNL     1      24.959  36.162   8.704  1.00  0.00     0.178 C 
ATOM      9  C   UNL     1      26.206  35.260  10.465  1.00  0.00     0.269 C 
ATOM     10  C   UNL     1      26.591  36.644  10.872  1.00  0.00     0.112 C 
ATOM     11  O   UNL     1      25.715  35.100   9.194  1.00  0.00    -0.332 OA
ATOM     12  C   UNL     1      26.603  37.676   9.814  1.00  0.00     0.145 C 
ATOM     13  C   UNL     1      25.891  37.296   8.545  1.00  0.00     0.142 C 
BRANCH   9  14
ATOM     14  O   UNL     1      25.257  34.719  11.334  1.00  0.00    -0.357 OA
ATOM     15  H   UNL     1      24.642  35.370  11.708  1.00  0.00     0.214 HD
ENDBRANCH   9  14
BRANCH   9  16
ATOM     16  C   UNL     1      27.407  34.388  10.553  1.00  0.00     0.364 C 
ATOM     17  O   UNL     1      27.637  33.571   9.636  1.00  0.00    -0.246 OA
BRANCH  16  18
ATOM     18  O   UNL     1      28.300  34.431  11.617  1.00  0.00    -0.477 OA
ATOM     19  H   UNL     1      29.306  34.274  11.467  1.00  0.00     0.296 HD
ENDBRANCH  16  18
ENDBRANCH   9  16
BRANCH  12  20
ATOM     20  O   UNL     1      26.104  38.870  10.330  1.00  0.00    -0.391 OA
ATOM     21  H   UNL     1      25.508  39.333   9.713  1.00  0.00     0.211 HD
ENDBRANCH  12  20
BRANCH  13  22
ATOM     22  N   UNL     1      26.843  36.958   7.482  1.00  0.00    -0.348 N 
ATOM     23  C   UNL     1      27.168  37.870   6.454  1.00  0.00     0.217 C 
ATOM     24  H   UNL     1      27.297  36.024   7.472  1.00  0.00     0.163 HD
ATOM     25  C   UNL     1      28.135  37.541   5.364  1.00  0.00     0.114 C 
ATOM     26  O   UNL     1      26.607  38.993   6.484  1.00  0.00    -0.275 OA
ENDBRANCH  13  22
ENDBRANCH   7   8
BRANCH   7  27
ATOM     27  O   UNL     1      22.955  35.142   9.131  1.00  0.00    -0.388 OA
ATOM     28  H   UNL     1      22.043  35.314   9.425  1.00  0.00     0.211 HD
ENDBRANCH   7  27
ENDBRANCH   6   7
BRANCH   6  29
ATOM     29  O   UNL     1      22.026  37.921  10.129  1.00  0.00    -0.388 OA
ATOM     30  H   UNL     1      21.454  37.225  10.535  1.00  0.00     0.211 HD
ENDBRANCH   6  29
ENDBRANCH   5   6
ENDBRANCH   1   5
BRANCH   2  31
ATOM     31  O   UNL     1      18.577  35.784   7.980  1.00  0.00    -0.443 OA
BRANCH  31  32
ATOM     32  C   UNL     1      17.969  35.062   9.036  1.00  0.00     0.294 C 
BRANCH  32  33
ATOM     33  C   UNL     1      18.779  35.101  10.262  1.00  0.00     0.120 A 
ATOM     34  C   UNL     1      19.098  34.111  11.148  1.00  0.00     0.139 A 
ATOM     35  N   UNL     1      19.379  36.213  10.737  1.00  0.00    -0.132 NA
ATOM     36  N   UNL     1      19.873  34.645  12.125  1.00  0.00    -0.237 N 
ATOM     37  N   UNL     1      20.026  35.929  11.846  1.00  0.00    -0.066 NA
BRANCH  36  38
ATOM     38  C   UNL     1      20.408  33.910  13.240  1.00  0.00     0.287 C 
BRANCH  38  39
ATOM     39  S   UNL     1      22.120  33.489  12.945  1.00  0.00     0.198 S 
ATOM     40  O   UNL     1      22.922  33.962  14.130  1.00  0.00    -0.222 OA
ATOM     41  O   UNL     1      22.555  34.203  11.720  1.00  0.00    -0.222 OA
BRANCH  39  42
ATOM     42  C   UNL     1      22.244  31.748  12.767  1.00  0.00     0.069 A 
ATOM     43  C   UNL     1      23.489  31.161  12.957  1.00  0.00     0.020 A 
ATOM     44  C   UNL     1      21.134  31.002  12.448  1.00  0.00     0.020 A 
ATOM     45  C   UNL     1      23.584  29.797  12.818  1.00  0.00     0.001 A 
ATOM     46  C   UNL     1      21.283  29.639  12.319  1.00  0.00     0.001 A 
ATOM     47  C   UNL     1      22.488  29.002  12.496  1.00  0.00     0.000 A 
ENDBRANCH  39  42
ENDBRANCH  38  39
ENDBRANCH  36  38
ENDBRANCH  32  33
ENDBRANCH  31  32
ENDBRANCH   2  31
TORSDOF 17
BEGIN_RES LYS A 131
REMARK  4 active torsions:
REMARK  status: ('A' for Active; 'I' for Inactive)
REMARK    1  A    between atoms: CA   and  CB  
REMARK    2  A    between atoms: CB   and  CG  
REMARK    3  A    between atoms: CG   and  CD  
REMARK    4  A    between atoms: CD   and  CE  
ROOT
ATOM      1  CA  LYS A 131      29.867  25.555  16.977  1.00 20.52     0.186 C 
ENDROOT
BRANCH   1   2
ATOM      2  CB  LYS A 131      28.345  25.722  17.026  1.00 20.94     0.034 C 
BRANCH   2   3
ATOM      3  CG  LYS A 131      27.602  24.399  16.925  1.00 22.96     0.005 C 
BRANCH   3   4
ATOM      4  CD  LYS A 131      26.164  24.523  17.346  1.00 24.33     0.041 C 
BRANCH   4   5
ATOM      5  CE  LYS A 131      25.555  23.133  17.494  1.00 26.91     0.338 C 
ATOM      6  NZ  LYS A 131      24.105  23.166  17.185  1.00 27.40     0.618 N 
ENDBRANCH   4   5
ENDBRANCH   3   4
ENDBRANCH   2   3
ENDBRANCH   1   2
END_RES LYS A 131
BEGIN_RES LYS A 135
REMARK  4 active torsions:
REMARK  status: ('A' for Active; 'I' for Inactive)
REMARK    5  A    between atoms: CA   and  CB  
REMARK    6  A    between atoms: CB   and  CG  
REMARK    7  A    between atoms: CG   and  CD  
REMARK    8  A    between atoms: CD   and  CE  
ROOT
ATOM      7  CA  LYS A 135      33.193  34.663   9.290  1.00 25.02     0.186 C 
ENDROOT
BRANCH   7   8
ATOM      8  CB  LYS A 135      32.060  35.360  10.034  1.00 26.63     0.034 C 
BRANCH   8   9
ATOM      9  CG  LYS A 135      30.716  35.200   9.372  1.00 29.45     0.005 C 
BRANCH   9  10
ATOM     10  CD  LYS A 135      30.255  36.517   8.768  1.00 32.00     0.041 C 
BRANCH  10  11
ATOM     11  CE  LYS A 135      30.767  37.687   9.587  1.00 34.25     0.338 C 
ATOM     12  NZ  LYS A 135      31.382  38.724   8.714  1.00 35.99     0.618 N 
ENDBRANCH  10  11
ENDBRANCH   9  10
ENDBRANCH   8   9
ENDBRANCH   7   8
END_RES LYS A 135
