REMARK VINA RESULT:    -5.116      4.630      9.018
REMARK INTER + INTRA:         -13.902
REMARK INTER:                  -7.539
REMARK INTRA:                  -6.363
REMARK UNBOUND:                -4.749
REMARK SMILES CC(=O)N[C@@H]1[C@@H](O)C[C@](O)(C(=O)O)O[C@H]1C(O)[C@H](O)CNC(=O)OCc1cn(-c2ccc([N+](=O)[O-])cc2)nn1
REMARK SMILES IDX 21 1 22 2 23 3 20 5 18 6 16 7 15 8 9 9 8 10 14 11 6 12 5 13
REMARK SMILES IDX 10 14 11 16 12 17 13 18 7 20 4 22 2 23 1 25 3 26 17 27 19 29
REMARK SMILES IDX 24 31 25 32 26 33 27 34 39 35 28 36 38 37 29 38 30 39 37 40
REMARK SMILES IDX 31 41 36 42 32 43 33 44 34 45 35 46
REMARK H PARENT 21 4 10 15 13 19 7 21 4 24 17 28 19 30
REMARK Flexibility Score: inf
ROOT
ATOM      1  N   UNL     1      27.306  37.629  16.759  1.00  0.00    -0.319 N 
ATOM      2  C   UNL     1      26.330  36.663  16.452  1.00  0.00     0.407 C 
ATOM      3  O   UNL     1      26.106  35.669  17.166  1.00  0.00    -0.225 OA
ATOM      4  H   UNL     1      27.383  38.457  16.074  1.00  0.00     0.167 HD
ENDROOT
BRANCH   1   5
ATOM      5  C   UNL     1      28.170  37.582  17.873  1.00  0.00     0.154 C 
BRANCH   5   6
ATOM      6  C   UNL     1      29.544  37.060  17.734  1.00  0.00     0.165 C 
BRANCH   6   7
ATOM      7  C   UNL     1      29.866  35.640  17.821  1.00  0.00     0.176 C 
BRANCH   7   8
ATOM      8  C   UNL     1      30.646  35.140  16.600  1.00  0.00     0.178 C 
ATOM      9  C   UNL     1      30.420  35.107  14.285  1.00  0.00     0.269 C 
ATOM     10  C   UNL     1      31.731  34.359  14.371  1.00  0.00     0.112 C 
ATOM     11  O   UNL     1      30.056  35.724  15.460  1.00  0.00    -0.332 OA
ATOM     12  C   UNL     1      31.734  33.313  15.441  1.00  0.00     0.145 C 
ATOM     13  C   UNL     1      30.591  33.668  16.411  1.00  0.00     0.142 C 
BRANCH   9  14
ATOM     14  O   UNL     1      29.467  34.219  13.817  1.00  0.00    -0.357 OA
ATOM     15  H   UNL     1      28.834  34.699  13.246  1.00  0.00     0.214 HD
ENDBRANCH   9  14
BRANCH   9  16
ATOM     16  C   UNL     1      30.607  36.173  13.266  1.00  0.00     0.364 C 
ATOM     17  O   UNL     1      31.750  36.637  13.022  1.00  0.00    -0.246 OA
BRANCH  16  18
ATOM     18  O   UNL     1      29.531  36.681  12.559  1.00  0.00    -0.477 OA
ATOM     19  H   UNL     1      28.711  36.113  12.331  1.00  0.00     0.296 HD
ENDBRANCH  16  18
ENDBRANCH   9  16
BRANCH  12  20
ATOM     20  O   UNL     1      31.614  32.022  14.980  1.00  0.00    -0.391 OA
ATOM     21  H   UNL     1      31.488  31.426  15.760  1.00  0.00     0.211 HD
ENDBRANCH  12  20
BRANCH  13  22
ATOM     22  N   UNL     1      30.848  32.884  17.601  1.00  0.00    -0.348 N 
ATOM     23  C   UNL     1      30.126  31.668  17.842  1.00  0.00     0.217 C 
ATOM     24  H   UNL     1      31.549  33.155  18.317  1.00  0.00     0.163 HD
ATOM     25  C   UNL     1      30.337  30.817  19.034  1.00  0.00     0.114 C 
ATOM     26  O   UNL     1      29.280  31.325  16.991  1.00  0.00    -0.275 OA
ENDBRANCH  13  22
ENDBRANCH   7   8
BRANCH   7  27
ATOM     27  O   UNL     1      28.752  34.873  18.047  1.00  0.00    -0.388 OA
ATOM     28  H   UNL     1      27.884  35.323  17.955  1.00  0.00     0.211 HD
ENDBRANCH   7  27
ENDBRANCH   6   7
BRANCH   6  29
ATOM     29  O   UNL     1      30.335  37.861  18.607  1.00  0.00    -0.388 OA
ATOM     30  H   UNL     1      31.234  37.999  18.210  1.00  0.00     0.211 HD
ENDBRANCH   6  29
ENDBRANCH   5   6
ENDBRANCH   1   5
BRANCH   2  31
ATOM     31  O   UNL     1      25.580  36.853  15.270  1.00  0.00    -0.443 OA
BRANCH  31  32
ATOM     32  C   UNL     1      25.242  35.683  14.551  1.00  0.00     0.294 C 
BRANCH  32  33
ATOM     33  C   UNL     1      25.956  35.669  13.229  1.00  0.00     0.121 A 
ATOM     34  C   UNL     1      25.778  36.533  12.170  1.00  0.00     0.144 A 
ATOM     35  N   UNL     1      26.915  34.807  12.810  1.00  0.00    -0.131 NA
ATOM     36  N   UNL     1      26.607  36.193  11.154  1.00  0.00    -0.220 N 
ATOM     37  N   UNL     1      27.270  35.144  11.594  1.00  0.00    -0.062 NA
BRANCH  36  38
ATOM     38  C   UNL     1      26.721  36.840   9.889  1.00  0.00     0.067 A 
ATOM     39  C   UNL     1      27.724  37.746   9.616  1.00  0.00     0.035 A 
ATOM     40  C   UNL     1      25.820  36.583   8.872  1.00  0.00     0.035 A 
ATOM     41  C   UNL     1      27.816  38.360   8.383  1.00  0.00     0.088 A 
ATOM     42  C   UNL     1      25.911  37.198   7.639  1.00  0.00     0.088 A 
ATOM     43  C   UNL     1      26.914  38.103   7.362  1.00  0.00     0.269 A 
BRANCH  43  44
ATOM     44  N   UNL     1      27.001  38.727   6.096  1.00  0.00     0.062 N 
ATOM     45  O   UNL     1      26.388  39.793   5.915  1.00  0.00    -0.258 OA
ATOM     46  O   UNL     1      27.726  38.228   5.052  1.00  0.00    -0.258 OA
ENDBRANCH  43  44
ENDBRANCH  36  38
ENDBRANCH  32  33
ENDBRANCH  31  32
ENDBRANCH   2  31
TORSDOF 16
BEGIN_RES LYS A 131
REMARK  4 active torsions:
REMARK  status: ('A' for Active; 'I' for Inactive)
REMARK    1  A    between atoms: CA   and  CB  
REMARK    2  A    between atoms: CB   and  CG  
REMARK    3  A    between atoms: CG   and  CD  
REMARK    4  A    between atoms: CD   and  CE  
ROOT
ATOM      1  CA  LYS A 131      29.867  25.555  16.977  1.00 20.52     0.186 C 
ENDROOT
BRANCH   1   2
ATOM      2  CB  LYS A 131      28.345  25.722  17.026  1.00 20.94     0.034 C 
BRANCH   2   3
ATOM      3  CG  LYS A 131      27.601  24.401  16.903  1.00 22.96     0.005 C 
BRANCH   3   4
ATOM      4  CD  LYS A 131      26.147  24.534  17.260  1.00 24.33     0.041 C 
BRANCH   4   5
ATOM      5  CE  LYS A 131      25.861  23.745  18.534  1.00 26.91     0.338 C 
ATOM      6  NZ  LYS A 131      25.578  24.665  19.661  1.00 27.40     0.618 N 
ENDBRANCH   4   5
ENDBRANCH   3   4
ENDBRANCH   2   3
ENDBRANCH   1   2
END_RES LYS A 131
BEGIN_RES LYS A 135
REMARK  4 active torsions:
REMARK  status: ('A' for Active; 'I' for Inactive)
REMARK    5  A    between atoms: CA   and  CB  
REMARK    6  A    between atoms: CB   and  CG  
REMARK    7  A    between atoms: CG   and  CD  
REMARK    8  A    between atoms: CD   and  CE  
ROOT
ATOM      7  CA  LYS A 135      33.193  34.663   9.290  1.00 25.02     0.186 C 
ENDROOT
BRANCH   7   8
ATOM      8  CB  LYS A 135      32.060  35.360  10.034  1.00 26.63     0.034 C 
BRANCH   8   9
ATOM      9  CG  LYS A 135      30.824  35.564   9.196  1.00 29.45     0.005 C 
BRANCH   9  10
ATOM     10  CD  LYS A 135      30.081  34.251   9.008  1.00 32.00     0.041 C 
BRANCH  10  11
ATOM     11  CE  LYS A 135      28.814  34.467   8.202  1.00 34.25     0.338 C 
ATOM     12  NZ  LYS A 135      29.083  35.290   6.991  1.00 35.99     0.618 N 
ENDBRANCH  10  11
ENDBRANCH   9  10
ENDBRANCH   8   9
ENDBRANCH   7   8
END_RES LYS A 135
