REMARK VINA RESULT:    -3.934      2.233      6.575
REMARK INTER + INTRA:         -13.558
REMARK INTER:                  -6.868
REMARK INTRA:                  -6.691
REMARK UNBOUND:                -6.059
REMARK SMILES CC(=O)N[C@@H]1[C@@H](O)C[C@](O)(C(=O)O)O[C@H]1C(O)[C@H](O)CNC(=O)OCc1cn(CCOC(C)=O)nn1
REMARK SMILES IDX 21 1 22 2 23 3 20 5 18 6 16 7 15 8 9 9 8 10 14 11 6 12 5 13
REMARK SMILES IDX 10 14 11 16 12 17 13 18 7 20 4 22 2 23 1 25 3 26 17 27 19 29
REMARK SMILES IDX 24 31 25 32 26 33 27 34 36 35 28 36 35 37 29 38 30 39 31 40
REMARK SMILES IDX 32 41 34 42 33 43
REMARK H PARENT 21 4 10 15 13 19 7 21 4 24 17 28 19 30
REMARK Flexibility Score: inf
ROOT
ATOM      1  N   UNL     1      31.858  34.391  20.420  1.00  0.00    -0.319 N 
ATOM      2  C   UNL     1      31.379  33.941  21.670  1.00  0.00     0.407 C 
ATOM      3  O   UNL     1      30.231  34.222  22.044  1.00  0.00    -0.225 OA
ATOM      4  H   UNL     1      32.849  34.111  20.181  1.00  0.00     0.167 HD
ENDROOT
BRANCH   1   5
ATOM      5  C   UNL     1      31.097  35.183  19.477  1.00  0.00     0.154 C 
BRANCH   5   6
ATOM      6  C   UNL     1      31.076  34.572  18.128  1.00  0.00     0.165 C 
BRANCH   6   7
ATOM      7  C   UNL     1      30.190  33.357  17.958  1.00  0.00     0.176 C 
BRANCH   7   8
ATOM      8  C   UNL     1      29.139  33.482  16.897  1.00  0.00     0.178 C 
ATOM      9  C   UNL     1      28.912  31.173  16.717  1.00  0.00     0.269 C 
ATOM     10  C   UNL     1      30.042  31.142  15.762  1.00  0.00     0.112 C 
ATOM     11  O   UNL     1      28.285  32.380  16.883  1.00  0.00    -0.332 OA
ATOM     12  C   UNL     1      30.347  32.405  15.040  1.00  0.00     0.145 C 
ATOM     13  C   UNL     1      29.620  33.625  15.489  1.00  0.00     0.142 C 
BRANCH   9  14
ATOM     14  O   UNL     1      29.306  30.752  18.011  1.00  0.00    -0.357 OA
ATOM     15  H   UNL     1      30.068  30.128  17.969  1.00  0.00     0.214 HD
ENDBRANCH   9  14
BRANCH   9  16
ATOM     16  C   UNL     1      27.859  30.199  16.313  1.00  0.00     0.364 C 
ATOM     17  O   UNL     1      26.816  30.581  15.679  1.00  0.00    -0.246 OA
BRANCH  16  18
ATOM     18  O   UNL     1      27.922  28.841  16.581  1.00  0.00    -0.477 OA
ATOM     19  H   UNL     1      28.008  28.561  17.564  1.00  0.00     0.296 HD
ENDBRANCH  16  18
ENDBRANCH   9  16
BRANCH  12  20
ATOM     20  O   UNL     1      31.718  32.650  15.157  1.00  0.00    -0.391 OA
ATOM     21  H   UNL     1      32.250  31.878  14.791  1.00  0.00     0.211 HD
ENDBRANCH  12  20
BRANCH  13  22
ATOM     22  N   UNL     1      28.467  33.958  14.685  1.00  0.00    -0.348 N 
ATOM     23  C   UNL     1      28.524  34.810  13.578  1.00  0.00     0.217 C 
ATOM     24  H   UNL     1      27.563  33.532  14.963  1.00  0.00     0.163 HD
ATOM     25  C   UNL     1      27.356  35.168  12.734  1.00  0.00     0.114 C 
ATOM     26  O   UNL     1      29.635  35.297  13.292  1.00  0.00    -0.275 OA
ENDBRANCH  13  22
ENDBRANCH   7   8
BRANCH   7  27
ATOM     27  O   UNL     1      29.415  33.371  19.181  1.00  0.00    -0.388 OA
ATOM     28  H   UNL     1      28.476  33.462  18.832  1.00  0.00     0.211 HD
ENDBRANCH   7  27
ENDBRANCH   6   7
BRANCH   6  29
ATOM     29  O   UNL     1      32.246  34.496  17.435  1.00  0.00    -0.388 OA
ATOM     30  H   UNL     1      32.698  35.347  17.339  1.00  0.00     0.211 HD
ENDBRANCH   6  29
ENDBRANCH   5   6
ENDBRANCH   1   5
BRANCH   2  31
ATOM     31  O   UNL     1      32.206  33.162  22.511  1.00  0.00    -0.443 OA
BRANCH  31  32
ATOM     32  C   UNL     1      33.075  32.183  21.942  1.00  0.00     0.294 C 
BRANCH  32  33
ATOM     33  C   UNL     1      32.237  31.096  21.398  1.00  0.00     0.120 A 
ATOM     34  C   UNL     1      32.239  29.778  21.826  1.00  0.00     0.138 A 
ATOM     35  N   UNL     1      31.340  31.164  20.406  1.00  0.00    -0.132 NA
ATOM     36  N   UNL     1      31.348  29.108  21.081  1.00  0.00    -0.249 N 
ATOM     37  N   UNL     1      30.822  29.963  20.235  1.00  0.00    -0.067 NA
BRANCH  36  38
ATOM     38  C   UNL     1      31.052  27.700  21.219  1.00  0.00     0.187 C 
BRANCH  38  39
ATOM     39  C   UNL     1      29.573  27.547  21.481  1.00  0.00     0.256 C 
BRANCH  39  40
ATOM     40  O   UNL     1      28.909  27.249  20.287  1.00  0.00    -0.464 OA
BRANCH  40  41
ATOM     41  C   UNL     1      27.709  27.817  19.973  1.00  0.00     0.302 C 
ATOM     42  O   UNL     1      27.631  28.997  19.585  1.00  0.00    -0.253 OA
ATOM     43  C   UNL     1      26.437  27.022  20.089  1.00  0.00     0.139 C 
ENDBRANCH  40  41
ENDBRANCH  39  40
ENDBRANCH  38  39
ENDBRANCH  36  38
ENDBRANCH  32  33
ENDBRANCH  31  32
ENDBRANCH   2  31
TORSDOF 18
BEGIN_RES LYS A 131
REMARK  4 active torsions:
REMARK  status: ('A' for Active; 'I' for Inactive)
REMARK    1  A    between atoms: CA   and  CB  
REMARK    2  A    between atoms: CB   and  CG  
REMARK    3  A    between atoms: CG   and  CD  
REMARK    4  A    between atoms: CD   and  CE  
ROOT
ATOM      1  CA  LYS A 131      29.867  25.555  16.977  1.00 20.52     0.186 C 
ENDROOT
BRANCH   1   2
ATOM      2  CB  LYS A 131      28.345  25.722  17.026  1.00 20.94     0.034 C 
BRANCH   2   3
ATOM      3  CG  LYS A 131      27.600  24.414  16.809  1.00 22.96     0.005 C 
BRANCH   3   4
ATOM      4  CD  LYS A 131      26.627  24.125  17.919  1.00 24.33     0.041 C 
BRANCH   4   5
ATOM      5  CE  LYS A 131      25.243  23.872  17.329  1.00 26.91     0.338 C 
ATOM      6  NZ  LYS A 131      24.303  23.429  18.386  1.00 27.40     0.618 N 
ENDBRANCH   4   5
ENDBRANCH   3   4
ENDBRANCH   2   3
ENDBRANCH   1   2
END_RES LYS A 131
BEGIN_RES LYS A 135
REMARK  4 active torsions:
REMARK  status: ('A' for Active; 'I' for Inactive)
REMARK    5  A    between atoms: CA   and  CB  
REMARK    6  A    between atoms: CB   and  CG  
REMARK    7  A    between atoms: CG   and  CD  
REMARK    8  A    between atoms: CD   and  CE  
ROOT
ATOM      7  CA  LYS A 135      33.193  34.663   9.290  1.00 25.02     0.186 C 
ENDROOT
BRANCH   7   8
ATOM      8  CB  LYS A 135      32.060  35.360  10.034  1.00 26.63     0.034 C 
BRANCH   8   9
ATOM      9  CG  LYS A 135      30.812  35.531   9.207  1.00 29.45     0.005 C 
BRANCH   9  10
ATOM     10  CD  LYS A 135      30.077  34.207   9.064  1.00 32.00     0.041 C 
BRANCH  10  11
ATOM     11  CE  LYS A 135      28.653  34.437   8.595  1.00 34.25     0.338 C 
ATOM     12  NZ  LYS A 135      27.685  33.668   9.426  1.00 35.99     0.618 N 
ENDBRANCH  10  11
ENDBRANCH   9  10
ENDBRANCH   8   9
ENDBRANCH   7   8
END_RES LYS A 135
