REMARK VINA RESULT:    -4.629      0.000      0.000
REMARK INTER + INTRA:         -15.418
REMARK INTER:                 -10.428
REMARK INTRA:                  -4.990
REMARK UNBOUND:                -5.918
REMARK SMILES CC(=O)N[C@@H]1[C@@H](O)C[C@](O)(C(=O)O)O[C@H]1C(O)[C@H](O)CNC(=O)OCc1cn(CCCCCC(=O)O)nn1
REMARK SMILES IDX 25 1 24 2 22 3 21 4 23 6 20 7 18 8 16 9 15 10 9 11 8 12
REMARK SMILES IDX 14 13 6 14 5 15 10 16 11 18 12 19 13 20 7 22 4 24 2 25 1 27
REMARK SMILES IDX 3 28 17 29 19 31 26 33 27 34 38 35 28 36 37 37 29 38 30 39
REMARK SMILES IDX 31 40 32 41 33 42 34 43 35 44 36 45
REMARK H PARENT 21 5 10 17 13 21 7 23 4 26 17 30 19 32 36 46
REMARK Flexibility Score: inf
ROOT
ATOM      1  C   UNL     1      25.728  37.701  11.122  1.00  0.00     0.294 C 
ENDROOT
BRANCH   1   2
ATOM      2  O   UNL     1      25.718  38.792  10.208  1.00  0.00    -0.443 OA
BRANCH   2   3
ATOM      3  C   UNL     1      24.493  39.144   9.629  1.00  0.00     0.407 C 
ATOM      4  N   UNL     1      24.102  38.481   8.431  1.00  0.00    -0.319 N 
ATOM      5  H   UNL     1      24.756  37.753   8.040  1.00  0.00     0.167 HD
ATOM      6  O   UNL     1      23.802  40.026  10.195  1.00  0.00    -0.225 OA
BRANCH   4   7
ATOM      7  C   UNL     1      22.859  38.827   7.819  1.00  0.00     0.154 C 
BRANCH   7   8
ATOM      8  C   UNL     1      21.655  38.117   8.390  1.00  0.00     0.165 C 
BRANCH   8   9
ATOM      9  C   UNL     1      21.367  36.904   7.527  1.00  0.00     0.176 C 
BRANCH   9  10
ATOM     10  C   UNL     1      21.279  35.615   8.273  1.00  0.00     0.178 C 
ATOM     11  C   UNL     1      18.965  35.429   7.963  1.00  0.00     0.269 C 
ATOM     12  C   UNL     1      18.817  35.965   9.397  1.00  0.00     0.112 C 
ATOM     13  O   UNL     1      20.209  34.895   7.784  1.00  0.00    -0.332 OA
ATOM     14  C   UNL     1      19.833  35.200  10.209  1.00  0.00     0.145 C 
ATOM     15  C   UNL     1      21.220  35.695   9.756  1.00  0.00     0.142 C 
BRANCH  11  16
ATOM     16  O   UNL     1      18.603  36.416   7.049  1.00  0.00    -0.357 OA
ATOM     17  H   UNL     1      17.602  36.547   7.027  1.00  0.00     0.214 HD
ENDBRANCH  11  16
BRANCH  11  18
ATOM     18  C   UNL     1      17.982  34.323   7.841  1.00  0.00     0.364 C 
ATOM     19  O   UNL     1      17.106  34.155   8.742  1.00  0.00    -0.246 OA
BRANCH  18  20
ATOM     20  O   UNL     1      18.043  33.493   6.737  1.00  0.00    -0.477 OA
ATOM     21  H   UNL     1      18.134  32.486   6.936  1.00  0.00     0.296 HD
ENDBRANCH  18  20
ENDBRANCH  11  18
BRANCH  14  22
ATOM     22  O   UNL     1      19.671  35.404  11.579  1.00  0.00    -0.391 OA
ATOM     23  H   UNL     1      18.776  35.045  11.815  1.00  0.00     0.211 HD
ENDBRANCH  14  22
BRANCH  15  24
ATOM     24  N   UNL     1      22.246  34.882  10.395  1.00  0.00    -0.348 N 
ATOM     25  C   UNL     1      22.827  35.214  11.634  1.00  0.00     0.217 C 
ATOM     26  H   UNL     1      22.563  33.999   9.901  1.00  0.00     0.163 HD
ATOM     27  C   UNL     1      23.890  34.352  12.267  1.00  0.00     0.114 C 
ATOM     28  O   UNL     1      22.439  36.270  12.220  1.00  0.00    -0.275 OA
ENDBRANCH  15  24
ENDBRANCH   9  10
BRANCH   9  29
ATOM     29  O   UNL     1      22.533  36.786   6.715  1.00  0.00    -0.388 OA
ATOM     30  H   UNL     1      22.715  35.819   6.659  1.00  0.00     0.211 HD
ENDBRANCH   9  29
ENDBRANCH   8   9
BRANCH   8  31
ATOM     31  O   UNL     1      20.611  39.014   8.441  1.00  0.00    -0.388 OA
ATOM     32  H   UNL     1      20.601  39.604   7.647  1.00  0.00     0.211 HD
ENDBRANCH   8  31
ENDBRANCH   7   8
ENDBRANCH   4   7
ENDBRANCH   2   3
ENDBRANCH   1   2
BRANCH   1  33
ATOM     33  C   UNL     1      26.056  36.498  10.323  1.00  0.00     0.120 A 
ATOM     34  C   UNL     1      27.243  35.803  10.439  1.00  0.00     0.138 A 
ATOM     35  N   UNL     1      25.320  35.886   9.397  1.00  0.00    -0.132 NA
ATOM     36  N   UNL     1      27.154  34.787   9.553  1.00  0.00    -0.252 N 
ATOM     37  N   UNL     1      25.997  34.845   8.932  1.00  0.00    -0.067 NA
BRANCH  36  38
ATOM     38  C   UNL     1      28.240  33.820   9.381  1.00  0.00     0.146 C 
BRANCH  38  39
ATOM     39  C   UNL     1      29.535  34.587   9.333  1.00  0.00     0.024 C 
BRANCH  39  40
ATOM     40  C   UNL     1      30.050  34.787   7.924  1.00  0.00     0.002 C 
BRANCH  40  41
ATOM     41  C   UNL     1      28.993  35.255   6.985  1.00  0.00     0.012 C 
BRANCH  41  42
ATOM     42  C   UNL     1      28.711  36.731   7.068  1.00  0.00     0.122 C 
BRANCH  42  43
ATOM     43  C   UNL     1      27.547  37.161   6.280  1.00  0.00     0.303 C 
ATOM     44  O   UNL     1      27.683  37.679   5.160  1.00  0.00    -0.252 OA
BRANCH  43  45
ATOM     45  O   UNL     1      26.243  36.994   6.778  1.00  0.00    -0.481 OA
ATOM     46  H   UNL     1      26.037  37.205   7.760  1.00  0.00     0.296 HD
ENDBRANCH  43  45
ENDBRANCH  42  43
ENDBRANCH  41  42
ENDBRANCH  40  41
ENDBRANCH  39  40
ENDBRANCH  38  39
ENDBRANCH  36  38
ENDBRANCH   1  33
TORSDOF 21
BEGIN_RES LYS A 131
REMARK  4 active torsions:
REMARK  status: ('A' for Active; 'I' for Inactive)
REMARK    1  A    between atoms: CA   and  CB  
REMARK    2  A    between atoms: CB   and  CG  
REMARK    3  A    between atoms: CG   and  CD  
REMARK    4  A    between atoms: CD   and  CE  
ROOT
ATOM      1  CA  LYS A 131      29.867  25.555  16.977  1.00 20.52     0.186 C 
ENDROOT
BRANCH   1   2
ATOM      2  CB  LYS A 131      28.345  25.722  17.026  1.00 20.94     0.034 C 
BRANCH   2   3
ATOM      3  CG  LYS A 131      27.599  24.421  16.773  1.00 22.96     0.005 C 
BRANCH   3   4
ATOM      4  CD  LYS A 131      26.811  23.977  17.974  1.00 24.33     0.041 C 
BRANCH   4   5
ATOM      5  CE  LYS A 131      25.671  24.959  18.226  1.00 26.91     0.338 C 
ATOM      6  NZ  LYS A 131      24.640  24.839  17.168  1.00 27.40     0.618 N 
ENDBRANCH   4   5
ENDBRANCH   3   4
ENDBRANCH   2   3
ENDBRANCH   1   2
END_RES LYS A 131
BEGIN_RES LYS A 135
REMARK  4 active torsions:
REMARK  status: ('A' for Active; 'I' for Inactive)
REMARK    5  A    between atoms: CA   and  CB  
REMARK    6  A    between atoms: CB   and  CG  
REMARK    7  A    between atoms: CG   and  CD  
REMARK    8  A    between atoms: CD   and  CE  
ROOT
ATOM      7  CA  LYS A 135      33.193  34.663   9.290  1.00 25.02     0.186 C 
ENDROOT
BRANCH   7   8
ATOM      8  CB  LYS A 135      32.060  35.360  10.034  1.00 26.63     0.034 C 
BRANCH   8   9
ATOM      9  CG  LYS A 135      32.458  35.873  11.394  1.00 29.45     0.005 C 
BRANCH   9  10
ATOM     10  CD  LYS A 135      31.552  35.296  12.471  1.00 32.00     0.041 C 
BRANCH  10  11
ATOM     11  CE  LYS A 135      30.302  36.140  12.624  1.00 34.25     0.338 C 
ATOM     12  NZ  LYS A 135      29.529  35.740  13.833  1.00 35.99     0.618 N 
ENDBRANCH  10  11
ENDBRANCH   9  10
ENDBRANCH   8   9
ENDBRANCH   7   8
END_RES LYS A 135
