REMARK VINA RESULT:    -4.051      2.115      6.263
REMARK INTER + INTRA:         -13.670
REMARK INTER:                  -7.148
REMARK INTRA:                  -6.523
REMARK UNBOUND:                -5.949
REMARK SMILES CCOC(=O)Cn1cc(COC(=O)NC[C@@H](O)C(O)[C@@H]2O[C@@](O)(C(=O)O)C[C@H](O)[C@H]2NC(C)=O)nn1
REMARK SMILES IDX 14 1 12 2 13 3 15 5 16 6 18 7 20 8 22 9 27 10 21 11 28 12
REMARK SMILES IDX 30 13 23 14 24 16 25 17 26 18 29 20 31 22 32 23 33 25 34 26
REMARK SMILES IDX 19 27 17 29 11 31 10 32 9 33 8 34 35 35 7 36 36 37 6 38 4 39
REMARK SMILES IDX 5 40 3 41 2 42 1 43
REMARK H PARENT 14 4 23 15 26 19 29 21 31 24 19 28 17 30
REMARK Flexibility Score: inf
ROOT
ATOM      1  N   UNL     1      27.777  27.881  18.598  1.00  0.00    -0.319 N 
ATOM      2  C   UNL     1      26.502  28.022  18.007  1.00  0.00     0.407 C 
ATOM      3  O   UNL     1      25.463  27.668  18.573  1.00  0.00    -0.225 OA
ATOM      4  H   UNL     1      28.577  28.243  17.980  1.00  0.00     0.167 HD
ENDROOT
BRANCH   1   5
ATOM      5  C   UNL     1      28.062  27.324  19.880  1.00  0.00     0.154 C 
BRANCH   5   6
ATOM      6  C   UNL     1      29.136  27.975  20.682  1.00  0.00     0.165 C 
BRANCH   6   7
ATOM      7  C   UNL     1      29.269  29.439  20.460  1.00  0.00     0.176 C 
BRANCH   7   8
ATOM      8  C   UNL     1      29.319  30.294  21.696  1.00  0.00     0.178 C 
ATOM      9  C   UNL     1      28.862  32.533  21.202  1.00  0.00     0.269 C 
ATOM     10  C   UNL     1      29.589  33.090  22.407  1.00  0.00     0.112 C 
ATOM     11  O   UNL     1      28.375  31.301  21.505  1.00  0.00    -0.332 OA
ATOM     12  C   UNL     1      30.542  32.075  22.923  1.00  0.00     0.145 C 
ATOM     13  C   UNL     1      30.681  30.850  22.005  1.00  0.00     0.142 C 
BRANCH   9  14
ATOM     14  O   UNL     1      29.742  32.604  20.137  1.00  0.00    -0.357 OA
ATOM     15  H   UNL     1      30.099  31.699  19.982  1.00  0.00     0.214 HD
ENDBRANCH   9  14
BRANCH   9  16
ATOM     16  C   UNL     1      27.718  33.438  20.948  1.00  0.00     0.364 C 
ATOM     17  O   UNL     1      27.523  34.391  21.733  1.00  0.00    -0.246 OA
BRANCH  16  18
ATOM     18  O   UNL     1      26.877  33.256  19.880  1.00  0.00    -0.477 OA
ATOM     19  H   UNL     1      26.793  33.943  19.130  1.00  0.00     0.296 HD
ENDBRANCH  16  18
ENDBRANCH   9  16
BRANCH  12  20
ATOM     20  O   UNL     1      31.813  32.581  23.179  1.00  0.00    -0.391 OA
ATOM     21  H   UNL     1      32.088  32.509  24.115  1.00  0.00     0.211 HD
ENDBRANCH  12  20
BRANCH  13  22
ATOM     22  N   UNL     1      31.475  29.922  22.782  1.00  0.00    -0.348 N 
ATOM     23  C   UNL     1      32.519  29.125  22.280  1.00  0.00     0.217 C 
ATOM     24  H   UNL     1      31.251  29.842  23.798  1.00  0.00     0.163 HD
ATOM     25  C   UNL     1      33.321  28.180  23.095  1.00  0.00     0.114 C 
ATOM     26  O   UNL     1      32.782  29.233  21.042  1.00  0.00    -0.275 OA
ENDBRANCH  13  22
ENDBRANCH   7   8
BRANCH   7  27
ATOM     27  O   UNL     1      30.277  29.724  19.571  1.00  0.00    -0.388 OA
ATOM     28  H   UNL     1      30.176  30.588  19.099  1.00  0.00     0.211 HD
ENDBRANCH   7  27
ENDBRANCH   6   7
BRANCH   6  29
ATOM     29  O   UNL     1      30.368  27.408  20.295  1.00  0.00    -0.388 OA
ATOM     30  H   UNL     1      30.611  27.710  19.370  1.00  0.00     0.211 HD
ENDBRANCH   6  29
ENDBRANCH   5   6
ENDBRANCH   1   5
BRANCH   2  31
ATOM     31  O   UNL     1      26.363  28.587  16.718  1.00  0.00    -0.443 OA
BRANCH  31  32
ATOM     32  C   UNL     1      26.205  29.982  16.547  1.00  0.00     0.294 C 
BRANCH  32  33
ATOM     33  C   UNL     1      27.556  30.588  16.687  1.00  0.00     0.120 A 
ATOM     34  C   UNL     1      28.595  30.562  15.787  1.00  0.00     0.139 A 
ATOM     35  N   UNL     1      28.035  31.296  17.748  1.00  0.00    -0.132 NA
ATOM     36  N   UNL     1      29.635  31.245  16.341  1.00  0.00    -0.241 N 
ATOM     37  N   UNL     1      29.261  31.678  17.532  1.00  0.00    -0.066 NA
BRANCH  36  38
ATOM     38  C   UNL     1      30.939  31.484  15.767  1.00  0.00     0.268 C 
BRANCH  38  39
ATOM     39  C   UNL     1      31.075  32.881  15.328  1.00  0.00     0.327 C 
ATOM     40  O   UNL     1      31.917  33.617  15.886  1.00  0.00    -0.250 OA
BRANCH  39  41
ATOM     41  O   UNL     1      30.252  33.337  14.298  1.00  0.00    -0.465 OA
BRANCH  41  42
ATOM     42  C   UNL     1      29.472  34.498  14.597  1.00  0.00     0.229 C 
ATOM     43  C   UNL     1      28.023  34.084  14.631  1.00  0.00     0.049 C 
ENDBRANCH  41  42
ENDBRANCH  39  41
ENDBRANCH  38  39
ENDBRANCH  36  38
ENDBRANCH  32  33
ENDBRANCH  31  32
ENDBRANCH   2  31
TORSDOF 18
BEGIN_RES LYS A 131
REMARK  4 active torsions:
REMARK  status: ('A' for Active; 'I' for Inactive)
REMARK    1  A    between atoms: CA   and  CB  
REMARK    2  A    between atoms: CB   and  CG  
REMARK    3  A    between atoms: CG   and  CD  
REMARK    4  A    between atoms: CD   and  CE  
ROOT
ATOM      1  CA  LYS A 131      29.867  25.555  16.977  1.00 20.52     0.186 C 
ENDROOT
BRANCH   1   2
ATOM      2  CB  LYS A 131      28.345  25.722  17.026  1.00 20.94     0.034 C 
BRANCH   2   3
ATOM      3  CG  LYS A 131      27.601  24.402  16.891  1.00 22.96     0.005 C 
BRANCH   3   4
ATOM      4  CD  LYS A 131      26.566  24.223  17.967  1.00 24.33     0.041 C 
BRANCH   4   5
ATOM      5  CE  LYS A 131      25.206  23.961  17.326  1.00 26.91     0.338 C 
ATOM      6  NZ  LYS A 131      24.797  22.553  17.536  1.00 27.40     0.618 N 
ENDBRANCH   4   5
ENDBRANCH   3   4
ENDBRANCH   2   3
ENDBRANCH   1   2
END_RES LYS A 131
BEGIN_RES LYS A 135
REMARK  4 active torsions:
REMARK  status: ('A' for Active; 'I' for Inactive)
REMARK    5  A    between atoms: CA   and  CB  
REMARK    6  A    between atoms: CB   and  CG  
REMARK    7  A    between atoms: CG   and  CD  
REMARK    8  A    between atoms: CD   and  CE  
ROOT
ATOM      7  CA  LYS A 135      33.193  34.663   9.290  1.00 25.02     0.186 C 
ENDROOT
BRANCH   7   8
ATOM      8  CB  LYS A 135      32.060  35.360  10.034  1.00 26.63     0.034 C 
BRANCH   8   9
ATOM      9  CG  LYS A 135      30.746  34.628   9.953  1.00 29.45     0.005 C 
BRANCH   9  10
ATOM     10  CD  LYS A 135      29.603  35.522  10.409  1.00 32.00     0.041 C 
BRANCH  10  11
ATOM     11  CE  LYS A 135      28.340  34.710  10.615  1.00 34.25     0.338 C 
ATOM     12  NZ  LYS A 135      27.148  35.425  10.080  1.00 35.99     0.618 N 
ENDBRANCH  10  11
ENDBRANCH   9  10
ENDBRANCH   8   9
ENDBRANCH   7   8
END_RES LYS A 135
