REMARK VINA RESULT:    -5.945      7.290     11.922
REMARK INTER + INTRA:         -14.822
REMARK INTER:                  -9.547
REMARK INTRA:                  -5.275
REMARK UNBOUND:                -4.533
REMARK SMILES CC(=O)N[C@@H]1[C@@H](O)C[C@](O)(C(=O)O)O[C@H]1C(O)[C@H](O)CNC(=O)OCc1cn(-c2cnc3ccccc3c2)nn1
REMARK SMILES IDX 20 1 18 2 16 3 15 4 9 5 8 6 14 7 6 8 5 9 10 10 11 12 12 13
REMARK SMILES IDX 13 14 7 16 4 18 2 19 1 21 3 22 17 23 19 25 21 27 22 28 23 30
REMARK SMILES IDX 24 31 25 32 26 33 27 34 40 35 28 36 39 37 29 38 30 39 38 40
REMARK SMILES IDX 31 41 37 42 32 43 36 44 33 45 35 46 34 47
REMARK H PARENT 10 11 13 15 7 17 4 20 17 24 19 26 21 29
REMARK Flexibility Score: inf
ROOT
ATOM      1  C   UNL     1      20.544  35.794  12.957  1.00  0.00     0.154 C 
ENDROOT
BRANCH   1   2
ATOM      2  C   UNL     1      21.058  34.502  12.386  1.00  0.00     0.165 C 
BRANCH   2   3
ATOM      3  C   UNL     1      22.498  34.219  12.719  1.00  0.00     0.176 C 
BRANCH   3   4
ATOM      4  C   UNL     1      22.892  32.776  12.596  1.00  0.00     0.178 C 
ATOM      5  C   UNL     1      21.904  30.706  12.940  1.00  0.00     0.269 C 
ATOM      6  C   UNL     1      23.245  30.055  12.715  1.00  0.00     0.112 C 
ATOM      7  O   UNL     1      21.804  31.948  12.365  1.00  0.00    -0.332 OA
ATOM      8  C   UNL     1      24.346  30.938  13.202  1.00  0.00     0.145 C 
ATOM      9  C   UNL     1      23.805  32.305  13.675  1.00  0.00     0.142 C 
BRANCH   5  10
ATOM     10  O   UNL     1      21.646  30.691  14.308  1.00  0.00    -0.357 OA
ATOM     11  H   UNL     1      22.375  31.056  14.843  1.00  0.00     0.214 HD
ENDBRANCH   5  10
BRANCH   5  12
ATOM     12  C   UNL     1      20.879  29.830  12.297  1.00  0.00     0.364 C 
ATOM     13  O   UNL     1      19.732  30.308  12.108  1.00  0.00    -0.246 OA
BRANCH  12  14
ATOM     14  O   UNL     1      21.147  28.530  11.909  1.00  0.00    -0.477 OA
ATOM     15  H   UNL     1      20.421  27.812  12.003  1.00  0.00     0.296 HD
ENDBRANCH  12  14
ENDBRANCH   5  12
BRANCH   8  16
ATOM     16  O   UNL     1      25.046  30.328  14.259  1.00  0.00    -0.391 OA
ATOM     17  H   UNL     1      24.960  29.347  14.193  1.00  0.00     0.211 HD
ENDBRANCH   8  16
BRANCH   9  18
ATOM     18  N   UNL     1      24.938  33.233  13.746  1.00  0.00    -0.348 N 
ATOM     19  C   UNL     1      25.684  33.459  14.932  1.00  0.00     0.217 C 
ATOM     20  H   UNL     1      25.223  33.760  12.901  1.00  0.00     0.163 HD
ATOM     21  C   UNL     1      26.828  34.408  14.985  1.00  0.00     0.114 C 
ATOM     22  O   UNL     1      25.392  32.850  15.991  1.00  0.00    -0.275 OA
ENDBRANCH   9  18
ENDBRANCH   3   4
BRANCH   3  23
ATOM     23  O   UNL     1      23.277  35.031  11.871  1.00  0.00    -0.388 OA
ATOM     24  H   UNL     1      24.155  35.136  12.315  1.00  0.00     0.211 HD
ENDBRANCH   3  23
ENDBRANCH   2   3
BRANCH   2  25
ATOM     25  O   UNL     1      20.844  34.451  10.994  1.00  0.00    -0.388 OA
ATOM     26  H   UNL     1      19.862  34.230  10.906  1.00  0.00     0.211 HD
ENDBRANCH   2  25
ENDBRANCH   1   2
BRANCH   1  27
ATOM     27  N   UNL     1      20.499  36.795  11.917  1.00  0.00    -0.319 N 
ATOM     28  C   UNL     1      21.431  37.848  11.816  1.00  0.00     0.407 C 
ATOM     29  H   UNL     1      19.749  36.780  11.172  1.00  0.00     0.167 HD
ATOM     30  O   UNL     1      22.365  37.979  12.633  1.00  0.00    -0.225 OA
BRANCH  28  31
ATOM     31  O   UNL     1      21.370  38.809  10.797  1.00  0.00    -0.443 OA
BRANCH  31  32
ATOM     32  C   UNL     1      21.350  38.395   9.422  1.00  0.00     0.294 C 
BRANCH  32  33
ATOM     33  C   UNL     1      22.406  37.392   9.173  1.00  0.00     0.121 A 
ATOM     34  C   UNL     1      23.720  37.603   8.893  1.00  0.00     0.144 A 
ATOM     35  N   UNL     1      22.209  36.069   9.188  1.00  0.00    -0.131 NA
ATOM     36  N   UNL     1      24.281  36.368   8.746  1.00  0.00    -0.219 N 
ATOM     37  N   UNL     1      23.352  35.458   8.928  1.00  0.00    -0.062 NA
BRANCH  36  38
ATOM     38  C   UNL     1      25.636  36.099   8.446  1.00  0.00     0.085 A 
ATOM     39  C   UNL     1      26.236  36.762   7.389  1.00  0.00     0.140 A 
ATOM     40  C   UNL     1      26.329  35.187   9.210  1.00  0.00     0.040 A 
ATOM     41  N   UNL     1      27.523  36.506   7.105  1.00  0.00    -0.254 NA
ATOM     42  C   UNL     1      27.661  34.936   8.898  1.00  0.00     0.002 A 
ATOM     43  C   UNL     1      28.237  35.609   7.841  1.00  0.00     0.070 A 
ATOM     44  C   UNL     1      28.370  34.039   9.637  1.00  0.00     0.010 A 
ATOM     45  C   UNL     1      29.558  35.362   7.530  1.00  0.00     0.029 A 
ATOM     46  C   UNL     1      29.707  33.784   9.330  1.00  0.00     0.001 A 
ATOM     47  C   UNL     1      30.291  34.448   8.278  1.00  0.00     0.002 A 
ENDBRANCH  36  38
ENDBRANCH  32  33
ENDBRANCH  31  32
ENDBRANCH  28  31
ENDBRANCH   1  27
TORSDOF 15
BEGIN_RES LYS A 131
REMARK  4 active torsions:
REMARK  status: ('A' for Active; 'I' for Inactive)
REMARK    1  A    between atoms: CA   and  CB  
REMARK    2  A    between atoms: CB   and  CG  
REMARK    3  A    between atoms: CG   and  CD  
REMARK    4  A    between atoms: CD   and  CE  
ROOT
ATOM      1  CA  LYS A 131      29.867  25.555  16.977  1.00 20.52     0.186 C 
ENDROOT
BRANCH   1   2
ATOM      2  CB  LYS A 131      28.345  25.722  17.026  1.00 20.94     0.034 C 
BRANCH   2   3
ATOM      3  CG  LYS A 131      27.602  24.398  16.928  1.00 22.96     0.005 C 
BRANCH   3   4
ATOM      4  CD  LYS A 131      26.519  24.279  17.964  1.00 24.33     0.041 C 
BRANCH   4   5
ATOM      5  CE  LYS A 131      25.236  23.784  17.304  1.00 26.91     0.338 C 
ATOM      6  NZ  LYS A 131      24.979  22.370  17.666  1.00 27.40     0.618 N 
ENDBRANCH   4   5
ENDBRANCH   3   4
ENDBRANCH   2   3
ENDBRANCH   1   2
END_RES LYS A 131
BEGIN_RES LYS A 135
REMARK  4 active torsions:
REMARK  status: ('A' for Active; 'I' for Inactive)
REMARK    5  A    between atoms: CA   and  CB  
REMARK    6  A    between atoms: CB   and  CG  
REMARK    7  A    between atoms: CG   and  CD  
REMARK    8  A    between atoms: CD   and  CE  
ROOT
ATOM      7  CA  LYS A 135      33.193  34.663   9.290  1.00 25.02     0.186 C 
ENDROOT
BRANCH   7   8
ATOM      8  CB  LYS A 135      32.060  35.360  10.034  1.00 26.63     0.034 C 
BRANCH   8   9
ATOM      9  CG  LYS A 135      32.493  36.003  11.326  1.00 29.45     0.005 C 
BRANCH   9  10
ATOM     10  CD  LYS A 135      31.884  37.389  11.467  1.00 32.00     0.041 C 
BRANCH  10  11
ATOM     11  CE  LYS A 135      31.392  37.612  12.885  1.00 34.25     0.338 C 
ATOM     12  NZ  LYS A 135      29.975  38.073  12.894  1.00 35.99     0.618 N 
ENDBRANCH  10  11
ENDBRANCH   9  10
ENDBRANCH   8   9
ENDBRANCH   7   8
END_RES LYS A 135
