REMARK VINA RESULT:    -5.172      5.337     11.444
REMARK INTER + INTRA:         -16.675
REMARK INTER:                  -9.066
REMARK INTRA:                  -7.609
REMARK UNBOUND:                -5.759
REMARK SMILES CC(=O)N[C@@H]1[C@@H](O)C[C@](O)(C(=O)O)O[C@H]1C(O)[C@H](O)CNC(=O)OCc1cn(CC(=O)NCC(O)Cn2ccnc2[N+](=O)[O-])nn1
REMARK SMILES IDX 25 1 24 2 22 3 21 4 23 6 20 7 18 8 16 9 15 10 9 11 8 12
REMARK SMILES IDX 14 13 6 14 5 15 10 16 11 18 12 19 13 20 7 22 4 24 2 25 1 27
REMARK SMILES IDX 3 28 17 29 19 31 26 33 27 34 46 35 28 36 45 37 29 38 30 39
REMARK SMILES IDX 31 40 32 41 33 43 34 44 35 45 36 47 37 48 38 49 41 50 39 51
REMARK SMILES IDX 40 52 42 53 43 54 44 55
REMARK H PARENT 21 5 10 17 13 21 7 23 4 26 17 30 19 32 32 42 35 46
REMARK Flexibility Score: inf
ROOT
ATOM      1  C   UNL     1      25.130  33.904  16.478  1.00  0.00     0.294 C 
ENDROOT
BRANCH   1   2
ATOM      2  O   UNL     1      24.373  34.028  15.290  1.00  0.00    -0.443 OA
BRANCH   2   3
ATOM      3  C   UNL     1      24.891  34.631  14.158  1.00  0.00     0.407 C 
ATOM      4  N   UNL     1      26.063  34.112  13.507  1.00  0.00    -0.319 N 
ATOM      5  H   UNL     1      26.493  33.272  13.941  1.00  0.00     0.167 HD
ATOM      6  O   UNL     1      24.320  35.640  13.709  1.00  0.00    -0.225 OA
BRANCH   4   7
ATOM      7  C   UNL     1      26.628  34.690  12.336  1.00  0.00     0.154 C 
BRANCH   7   8
ATOM      8  C   UNL     1      28.099  34.914  12.401  1.00  0.00     0.165 C 
BRANCH   8   9
ATOM      9  C   UNL     1      28.574  34.661  13.823  1.00  0.00     0.176 C 
BRANCH   9  10
ATOM     10  C   UNL     1      29.972  34.135  13.883  1.00  0.00     0.178 C 
ATOM     11  C   UNL     1      30.394  33.209  15.979  1.00  0.00     0.269 C 
ATOM     12  C   UNL     1      31.806  33.761  16.107  1.00  0.00     0.112 C 
ATOM     13  O   UNL     1      30.036  33.017  14.673  1.00  0.00    -0.332 OA
ATOM     14  C   UNL     1      32.217  34.419  14.797  1.00  0.00     0.145 C 
ATOM     15  C   UNL     1      30.974  35.163  14.294  1.00  0.00     0.142 C 
BRANCH  11  16
ATOM     16  O   UNL     1      29.561  34.151  16.556  1.00  0.00    -0.357 OA
ATOM     17  H   UNL     1      29.667  35.031  16.115  1.00  0.00     0.214 HD
ENDBRANCH  11  16
BRANCH  11  18
ATOM     18  C   UNL     1      30.239  31.937  16.730  1.00  0.00     0.364 C 
ATOM     19  O   UNL     1      30.722  30.850  16.304  1.00  0.00    -0.246 OA
BRANCH  18  20
ATOM     20  O   UNL     1      29.558  31.897  17.935  1.00  0.00    -0.477 OA
ATOM     21  H   UNL     1      29.914  32.211  18.819  1.00  0.00     0.296 HD
ENDBRANCH  18  20
ENDBRANCH  11  18
BRANCH  14  22
ATOM     22  O   UNL     1      33.248  35.299  15.075  1.00  0.00    -0.391 OA
ATOM     23  H   UNL     1      33.801  35.023  15.840  1.00  0.00     0.211 HD
ENDBRANCH  14  22
BRANCH  15  24
ATOM     24  N   UNL     1      31.344  36.030  13.184  1.00  0.00    -0.348 N 
ATOM     25  C   UNL     1      31.135  37.419  13.290  1.00  0.00     0.217 C 
ATOM     26  H   UNL     1      31.748  35.623  12.337  1.00  0.00     0.163 HD
ATOM     27  C   UNL     1      31.504  38.354  12.164  1.00  0.00     0.114 C 
ATOM     28  O   UNL     1      30.637  37.968  14.301  1.00  0.00    -0.275 OA
ENDBRANCH  15  24
ENDBRANCH   9  10
BRANCH   9  29
ATOM     29  O   UNL     1      28.477  35.807  14.596  1.00  0.00    -0.388 OA
ATOM     30  H   UNL     1      28.385  36.623  14.072  1.00  0.00     0.211 HD
ENDBRANCH   9  29
ENDBRANCH   8   9
BRANCH   8  31
ATOM     31  O   UNL     1      28.511  36.175  12.005  1.00  0.00    -0.388 OA
ATOM     32  H   UNL     1      29.309  36.493  12.508  1.00  0.00     0.211 HD
ENDBRANCH   8  31
ENDBRANCH   7   8
ENDBRANCH   4   7
ENDBRANCH   2   3
ENDBRANCH   1   2
BRANCH   1  33
ATOM     33  C   UNL     1      25.819  32.594  16.379  1.00  0.00     0.120 A 
ATOM     34  C   UNL     1      25.279  31.403  16.810  1.00  0.00     0.138 A 
ATOM     35  N   UNL     1      27.027  32.262  15.900  1.00  0.00    -0.132 NA
ATOM     36  N   UNL     1      26.162  30.381  16.586  1.00  0.00    -0.243 N 
ATOM     37  N   UNL     1      27.212  30.935  16.033  1.00  0.00    -0.067 NA
BRANCH  36  38
ATOM     38  C   UNL     1      25.860  29.014  16.950  1.00  0.00     0.245 C 
BRANCH  38  39
ATOM     39  C   UNL     1      26.476  28.795  18.319  1.00  0.00     0.241 C 
ATOM     40  O   UNL     1      25.791  28.307  19.243  1.00  0.00    -0.273 OA
ATOM     41  N   UNL     1      27.806  29.123  18.598  1.00  0.00    -0.352 N 
ATOM     42  H   UNL     1      28.331  29.521  17.730  1.00  0.00     0.163 HD
BRANCH  41  43
ATOM     43  C   UNL     1      28.541  29.021  19.804  1.00  0.00     0.151 C 
BRANCH  43  44
ATOM     44  C   UNL     1      28.880  27.714  20.360  1.00  0.00     0.168 C 
BRANCH  44  45
ATOM     45  O   UNL     1      28.402  26.633  19.570  1.00  0.00    -0.388 OA
ATOM     46  H   UNL     1      27.877  26.992  18.813  1.00  0.00     0.211 HD
ENDBRANCH  44  45
BRANCH  44  47
ATOM     47  C   UNL     1      30.173  27.455  21.015  1.00  0.00     0.239 C 
BRANCH  47  48
ATOM     48  N   UNL     1      30.398  28.266  22.197  1.00  0.00    -0.227 N 
ATOM     49  C   UNL     1      29.893  28.020  23.432  1.00  0.00     0.204 A 
ATOM     50  C   UNL     1      31.125  29.397  22.252  1.00  0.00     0.434 A 
ATOM     51  C   UNL     1      30.336  29.043  24.250  1.00  0.00     0.245 A 
ATOM     52  N   UNL     1      31.085  29.880  23.530  1.00  0.00    -0.074 NA
BRANCH  50  53
ATOM     53  N   UNL     1      31.844  30.049  21.221  1.00  0.00    -0.047 N 
ATOM     54  O   UNL     1      33.049  29.704  21.037  1.00  0.00    -0.390 OA
ATOM     55  O   UNL     1      31.372  31.017  20.401  1.00  0.00    -0.390 OA
ENDBRANCH  50  53
ENDBRANCH  47  48
ENDBRANCH  44  47
ENDBRANCH  43  44
ENDBRANCH  41  43
ENDBRANCH  38  39
ENDBRANCH  36  38
ENDBRANCH   1  33
TORSDOF 22
BEGIN_RES LYS A 131
REMARK  4 active torsions:
REMARK  status: ('A' for Active; 'I' for Inactive)
REMARK    1  A    between atoms: CA   and  CB  
REMARK    2  A    between atoms: CB   and  CG  
REMARK    3  A    between atoms: CG   and  CD  
REMARK    4  A    between atoms: CD   and  CE  
ROOT
ATOM      1  CA  LYS A 131      29.867  25.555  16.977  1.00 20.52     0.186 C 
ENDROOT
BRANCH   1   2
ATOM      2  CB  LYS A 131      28.345  25.722  17.026  1.00 20.94     0.034 C 
BRANCH   2   3
ATOM      3  CG  LYS A 131      27.602  24.398  16.932  1.00 22.96     0.005 C 
BRANCH   3   4
ATOM      4  CD  LYS A 131      26.158  24.530  17.329  1.00 24.33     0.041 C 
BRANCH   4   5
ATOM      5  CE  LYS A 131      25.919  23.783  18.638  1.00 26.91     0.338 C 
ATOM      6  NZ  LYS A 131      25.465  24.719  19.693  1.00 27.40     0.618 N 
ENDBRANCH   4   5
ENDBRANCH   3   4
ENDBRANCH   2   3
ENDBRANCH   1   2
END_RES LYS A 131
BEGIN_RES LYS A 135
REMARK  4 active torsions:
REMARK  status: ('A' for Active; 'I' for Inactive)
REMARK    5  A    between atoms: CA   and  CB  
REMARK    6  A    between atoms: CB   and  CG  
REMARK    7  A    between atoms: CG   and  CD  
REMARK    8  A    between atoms: CD   and  CE  
ROOT
ATOM      7  CA  LYS A 135      33.193  34.663   9.290  1.00 25.02     0.186 C 
ENDROOT
BRANCH   7   8
ATOM      8  CB  LYS A 135      32.060  35.360  10.034  1.00 26.63     0.034 C 
BRANCH   8   9
ATOM      9  CG  LYS A 135      30.709  34.735   9.797  1.00 29.45     0.005 C 
BRANCH   9  10
ATOM     10  CD  LYS A 135      30.477  34.507   8.312  1.00 32.00     0.041 C 
BRANCH  10  11
ATOM     11  CE  LYS A 135      29.058  34.884   7.931  1.00 34.25     0.338 C 
ATOM     12  NZ  LYS A 135      28.726  36.260   8.395  1.00 35.99     0.618 N 
ENDBRANCH  10  11
ENDBRANCH   9  10
ENDBRANCH   8   9
ENDBRANCH   7   8
END_RES LYS A 135
