REMARK VINA RESULT:    -5.568      3.714      7.710
REMARK INTER + INTRA:         -14.711
REMARK INTER:                  -8.998
REMARK INTRA:                  -5.713
REMARK UNBOUND:                -4.749
REMARK SMILES CC(=O)N[C@@H]1[C@@H](O)C[C@](O)(C(=O)O)O[C@H]1C(O)[C@H](O)CNC(=O)OCc1cn(-c2ccc([N+](=O)[O-])cc2)nn1
REMARK SMILES IDX 21 1 22 2 23 3 20 5 18 6 16 7 15 8 9 9 8 10 14 11 6 12 5 13
REMARK SMILES IDX 10 14 11 16 12 17 13 18 7 20 4 22 2 23 1 25 3 26 17 27 19 29
REMARK SMILES IDX 24 31 25 32 26 33 27 34 39 35 28 36 38 37 29 38 30 39 37 40
REMARK SMILES IDX 31 41 36 42 32 43 33 44 34 45 35 46
REMARK H PARENT 21 4 10 15 13 19 7 21 4 24 17 28 19 30
REMARK Flexibility Score: inf
ROOT
ATOM      1  N   UNL     1      27.327  27.651  18.856  1.00  0.00    -0.319 N 
ATOM      2  C   UNL     1      27.820  27.428  20.155  1.00  0.00     0.407 C 
ATOM      3  O   UNL     1      27.114  27.011  21.090  1.00  0.00    -0.225 OA
ATOM      4  H   UNL     1      28.048  27.987  18.128  1.00  0.00     0.167 HD
ENDROOT
BRANCH   1   5
ATOM      5  C   UNL     1      25.987  27.471  18.457  1.00  0.00     0.154 C 
BRANCH   5   6
ATOM      6  C   UNL     1      25.430  28.246  17.331  1.00  0.00     0.165 C 
BRANCH   6   7
ATOM      7  C   UNL     1      25.757  29.648  17.094  1.00  0.00     0.176 C 
BRANCH   7   8
ATOM      8  C   UNL     1      24.732  30.345  16.192  1.00  0.00     0.178 C 
ATOM      9  C   UNL     1      23.847  30.104  14.054  1.00  0.00     0.269 C 
ATOM     10  C   UNL     1      23.090  31.352  14.447  1.00  0.00     0.112 C 
ATOM     11  O   UNL     1      24.472  29.479  15.110  1.00  0.00    -0.332 OA
ATOM     12  C   UNL     1      23.957  32.371  15.116  1.00  0.00     0.145 C 
ATOM     13  C   UNL     1      25.210  31.628  15.617  1.00  0.00     0.142 C 
BRANCH   9  14
ATOM     14  O   UNL     1      24.716  30.452  13.034  1.00  0.00    -0.357 OA
ATOM     15  H   UNL     1      24.404  30.054  12.197  1.00  0.00     0.214 HD
ENDBRANCH   9  14
BRANCH   9  16
ATOM     16  C   UNL     1      22.844  29.153  13.510  1.00  0.00     0.364 C 
ATOM     17  O   UNL     1      22.456  28.167  14.189  1.00  0.00    -0.246 OA
BRANCH  16  18
ATOM     18  O   UNL     1      22.309  29.326  12.244  1.00  0.00    -0.477 OA
ATOM     19  H   UNL     1      22.860  29.179  11.396  1.00  0.00     0.296 HD
ENDBRANCH  16  18
ENDBRANCH   9  16
BRANCH  12  20
ATOM     20  O   UNL     1      24.297  33.443  14.323  1.00  0.00    -0.391 OA
ATOM     21  H   UNL     1      23.468  33.930  14.090  1.00  0.00     0.211 HD
ENDBRANCH  12  20
BRANCH  13  22
ATOM     22  N   UNL     1      25.834  32.532  16.560  1.00  0.00    -0.348 N 
ATOM     23  C   UNL     1      26.885  33.413  16.138  1.00  0.00     0.217 C 
ATOM     24  H   UNL     1      25.559  32.587  17.559  1.00  0.00     0.163 HD
ATOM     25  C   UNL     1      27.567  34.361  17.046  1.00  0.00     0.114 C 
ATOM     26  O   UNL     1      27.230  33.362  14.939  1.00  0.00    -0.275 OA
ENDBRANCH  13  22
ENDBRANCH   7   8
BRANCH   7  27
ATOM     27  O   UNL     1      27.031  29.804  16.612  1.00  0.00    -0.388 OA
ATOM     28  H   UNL     1      27.687  30.196  17.229  1.00  0.00     0.211 HD
ENDBRANCH   7  27
ENDBRANCH   6   7
BRANCH   6  29
ATOM     29  O   UNL     1      24.026  28.005  17.372  1.00  0.00    -0.388 OA
ATOM     30  H   UNL     1      23.821  27.345  18.085  1.00  0.00     0.211 HD
ENDBRANCH   6  29
ENDBRANCH   5   6
ENDBRANCH   1   5
BRANCH   2  31
ATOM     31  O   UNL     1      29.188  27.700  20.384  1.00  0.00    -0.443 OA
BRANCH  31  32
ATOM     32  C   UNL     1      29.488  28.966  20.935  1.00  0.00     0.294 C 
BRANCH  32  33
ATOM     33  C   UNL     1      29.374  30.027  19.877  1.00  0.00     0.121 A 
ATOM     34  C   UNL     1      30.398  30.632  19.182  1.00  0.00     0.144 A 
ATOM     35  N   UNL     1      28.246  30.604  19.395  1.00  0.00    -0.131 NA
ATOM     36  N   UNL     1      29.892  31.540  18.313  1.00  0.00    -0.220 N 
ATOM     37  N   UNL     1      28.588  31.482  18.484  1.00  0.00    -0.062 NA
BRANCH  36  38
ATOM     38  C   UNL     1      30.628  32.370  17.417  1.00  0.00     0.067 A 
ATOM     39  C   UNL     1      30.847  32.018  16.103  1.00  0.00     0.035 A 
ATOM     40  C   UNL     1      31.156  33.578  17.835  1.00  0.00     0.035 A 
ATOM     41  C   UNL     1      31.562  32.838  15.252  1.00  0.00     0.088 A 
ATOM     42  C   UNL     1      31.871  34.399  16.986  1.00  0.00     0.088 A 
ATOM     43  C   UNL     1      32.092  34.050  15.670  1.00  0.00     0.269 A 
BRANCH  43  44
ATOM     44  N   UNL     1      32.824  34.896  14.806  1.00  0.00     0.062 N 
ATOM     45  O   UNL     1      32.495  36.092  14.724  1.00  0.00    -0.258 OA
ATOM     46  O   UNL     1      33.882  34.477  14.050  1.00  0.00    -0.258 OA
ENDBRANCH  43  44
ENDBRANCH  36  38
ENDBRANCH  32  33
ENDBRANCH  31  32
ENDBRANCH   2  31
TORSDOF 16
BEGIN_RES LYS A 131
REMARK  4 active torsions:
REMARK  status: ('A' for Active; 'I' for Inactive)
REMARK    1  A    between atoms: CA   and  CB  
REMARK    2  A    between atoms: CB   and  CG  
REMARK    3  A    between atoms: CG   and  CD  
REMARK    4  A    between atoms: CD   and  CE  
ROOT
ATOM      1  CA  LYS A 131      29.867  25.555  16.977  1.00 20.52     0.186 C 
ENDROOT
BRANCH   1   2
ATOM      2  CB  LYS A 131      28.345  25.722  17.026  1.00 20.94     0.034 C 
BRANCH   2   3
ATOM      3  CG  LYS A 131      27.599  24.422  16.765  1.00 22.96     0.005 C 
BRANCH   3   4
ATOM      4  CD  LYS A 131      26.829  23.960  17.971  1.00 24.33     0.041 C 
BRANCH   4   5
ATOM      5  CE  LYS A 131      25.590  23.194  17.520  1.00 26.91     0.338 C 
ATOM      6  NZ  LYS A 131      24.524  24.133  17.099  1.00 27.40     0.618 N 
ENDBRANCH   4   5
ENDBRANCH   3   4
ENDBRANCH   2   3
ENDBRANCH   1   2
END_RES LYS A 131
BEGIN_RES LYS A 135
REMARK  4 active torsions:
REMARK  status: ('A' for Active; 'I' for Inactive)
REMARK    5  A    between atoms: CA   and  CB  
REMARK    6  A    between atoms: CB   and  CG  
REMARK    7  A    between atoms: CG   and  CD  
REMARK    8  A    between atoms: CD   and  CE  
ROOT
ATOM      7  CA  LYS A 135      33.193  34.663   9.290  1.00 25.02     0.186 C 
ENDROOT
BRANCH   7   8
ATOM      8  CB  LYS A 135      32.060  35.360  10.034  1.00 26.63     0.034 C 
BRANCH   8   9
ATOM      9  CG  LYS A 135      30.737  35.294   9.316  1.00 29.45     0.005 C 
BRANCH   9  10
ATOM     10  CD  LYS A 135      29.693  34.599  10.176  1.00 32.00     0.041 C 
BRANCH  10  11
ATOM     11  CE  LYS A 135      29.391  35.421  11.414  1.00 34.25     0.338 C 
ATOM     12  NZ  LYS A 135      29.609  34.625  12.654  1.00 35.99     0.618 N 
ENDBRANCH  10  11
ENDBRANCH   9  10
ENDBRANCH   8   9
ENDBRANCH   7   8
END_RES LYS A 135
