REMARK VINA RESULT:    -4.554      8.262     14.085
REMARK INTER + INTRA:         -13.799
REMARK INTER:                  -8.659
REMARK INTRA:                  -5.140
REMARK UNBOUND:                -5.917
REMARK SMILES CC(=O)N[C@@H]1[C@@H](O)C[C@](O)(C(=O)O)O[C@H]1C(O)[C@H](O)CNC(=O)OCc1cn(-c2c(C)cc(C)cc2C)nn1
REMARK SMILES IDX 20 1 18 2 16 3 15 4 9 5 8 6 14 7 6 8 5 9 10 10 11 12 12 13
REMARK SMILES IDX 13 14 7 16 4 18 2 19 1 21 3 22 17 23 19 25 21 27 22 28 23 30
REMARK SMILES IDX 24 31 25 32 26 33 27 34 39 35 28 36 38 37 29 38 30 39 36 40
REMARK SMILES IDX 31 41 32 42 35 43 37 44 33 45 34 46
REMARK H PARENT 10 11 13 15 7 17 4 20 17 24 19 26 21 29
REMARK Flexibility Score: inf
ROOT
ATOM      1  C   UNL     1      26.527  41.562   6.818  1.00  0.00     0.154 C 
ENDROOT
BRANCH   1   2
ATOM      2  C   UNL     1      25.555  40.559   7.325  1.00  0.00     0.165 C 
BRANCH   2   3
ATOM      3  C   UNL     1      25.884  39.956   8.653  1.00  0.00     0.176 C 
BRANCH   3   4
ATOM      4  C   UNL     1      26.261  38.522   8.645  1.00  0.00     0.178 C 
ATOM      5  C   UNL     1      27.282  37.044   7.148  1.00  0.00     0.269 C 
ATOM      6  C   UNL     1      26.815  35.867   7.957  1.00  0.00     0.112 C 
ATOM      7  O   UNL     1      27.303  38.232   7.815  1.00  0.00    -0.332 OA
ATOM      8  C   UNL     1      25.702  36.185   8.896  1.00  0.00     0.145 C 
ATOM      9  C   UNL     1      25.121  37.558   8.512  1.00  0.00     0.142 C 
BRANCH   5  10
ATOM     10  O   UNL     1      26.476  37.128   6.015  1.00  0.00    -0.357 OA
ATOM     11  H   UNL     1      27.079  37.129   5.217  1.00  0.00     0.214 HD
ENDBRANCH   5  10
BRANCH   5  12
ATOM     12  C   UNL     1      28.671  36.740   6.713  1.00  0.00     0.364 C 
ATOM     13  O   UNL     1      28.948  35.639   6.197  1.00  0.00    -0.246 OA
BRANCH  12  14
ATOM     14  O   UNL     1      29.695  37.683   6.876  1.00  0.00    -0.477 OA
ATOM     15  H   UNL     1      29.824  38.395   6.143  1.00  0.00     0.296 HD
ENDBRANCH  12  14
ENDBRANCH   5  12
BRANCH   8  16
ATOM     16  O   UNL     1      24.721  35.217   8.974  1.00  0.00    -0.391 OA
ATOM     17  H   UNL     1      23.862  35.683   9.204  1.00  0.00     0.211 HD
ENDBRANCH   8  16
BRANCH   9  18
ATOM     18  N   UNL     1      24.083  37.805   9.478  1.00  0.00    -0.348 N 
ATOM     19  C   UNL     1      22.731  37.657   9.069  1.00  0.00     0.217 C 
ATOM     20  H   UNL     1      24.288  38.088  10.468  1.00  0.00     0.163 HD
ATOM     21  C   UNL     1      21.587  37.892   9.989  1.00  0.00     0.114 C 
ATOM     22  O   UNL     1      22.456  37.318   7.890  1.00  0.00    -0.275 OA
ENDBRANCH   9  18
ENDBRANCH   3   4
BRANCH   3  23
ATOM     23  O   UNL     1      26.911  40.705   9.220  1.00  0.00    -0.388 OA
ATOM     24  H   UNL     1      27.723  40.139   9.239  1.00  0.00     0.211 HD
ENDBRANCH   3  23
ENDBRANCH   2   3
BRANCH   2  25
ATOM     25  O   UNL     1      25.264  39.597   6.356  1.00  0.00    -0.388 OA
ATOM     26  H   UNL     1      25.125  40.000   5.463  1.00  0.00     0.211 HD
ENDBRANCH   2  25
ENDBRANCH   1   2
BRANCH   1  27
ATOM     27  N   UNL     1      27.848  41.011   6.596  1.00  0.00    -0.319 N 
ATOM     28  C   UNL     1      28.278  40.506   5.336  1.00  0.00     0.407 C 
ATOM     29  H   UNL     1      28.577  40.954   7.368  1.00  0.00     0.167 HD
ATOM     30  O   UNL     1      27.508  40.521   4.358  1.00  0.00    -0.225 OA
BRANCH  28  31
ATOM     31  O   UNL     1      29.564  39.985   5.169  1.00  0.00    -0.443 OA
BRANCH  31  32
ATOM     32  C   UNL     1      30.670  40.891   5.037  1.00  0.00     0.294 C 
BRANCH  32  33
ATOM     33  C   UNL     1      31.709  40.501   6.024  1.00  0.00     0.121 A 
ATOM     34  C   UNL     1      33.042  40.873   5.978  1.00  0.00     0.144 A 
ATOM     35  N   UNL     1      31.581  39.750   7.109  1.00  0.00    -0.131 NA
ATOM     36  N   UNL     1      33.685  40.346   7.022  1.00  0.00    -0.220 N 
ATOM     37  N   UNL     1      32.743  39.662   7.692  1.00  0.00    -0.062 NA
BRANCH  36  38
ATOM     38  C   UNL     1      35.051  40.444   7.402  1.00  0.00     0.072 A 
ATOM     39  C   UNL     1      35.456  41.414   8.293  1.00  0.00    -0.025 A 
ATOM     40  C   UNL     1      36.015  39.585   6.898  1.00  0.00    -0.025 A 
ATOM     41  C   UNL     1      34.447  42.344   8.847  1.00  0.00     0.047 C 
ATOM     42  C   UNL     1      36.804  41.507   8.664  1.00  0.00     0.009 A 
ATOM     43  C   UNL     1      37.341  39.686   7.271  1.00  0.00     0.009 A 
ATOM     44  C   UNL     1      35.552  38.532   5.925  1.00  0.00     0.047 C 
ATOM     45  C   UNL     1      37.760  40.650   8.161  1.00  0.00    -0.050 A 
ATOM     46  C   UNL     1      39.190  40.771   8.574  1.00  0.00     0.044 C 
ENDBRANCH  36  38
ENDBRANCH  32  33
ENDBRANCH  31  32
ENDBRANCH  28  31
ENDBRANCH   1  27
TORSDOF 15
BEGIN_RES LYS A 131
REMARK  4 active torsions:
REMARK  status: ('A' for Active; 'I' for Inactive)
REMARK    1  A    between atoms: CA   and  CB  
REMARK    2  A    between atoms: CB   and  CG  
REMARK    3  A    between atoms: CG   and  CD  
REMARK    4  A    between atoms: CD   and  CE  
ROOT
ATOM      1  CA  LYS A 131      29.867  25.555  16.977  1.00 20.52     0.186 C 
ENDROOT
BRANCH   1   2
ATOM      2  CB  LYS A 131      28.345  25.722  17.026  1.00 20.94     0.034 C 
BRANCH   2   3
ATOM      3  CG  LYS A 131      27.600  24.413  16.817  1.00 22.96     0.005 C 
BRANCH   3   4
ATOM      4  CD  LYS A 131      26.191  24.473  17.339  1.00 24.33     0.041 C 
BRANCH   4   5
ATOM      5  CE  LYS A 131      26.038  23.502  18.505  1.00 26.91     0.338 C 
ATOM      6  NZ  LYS A 131      25.425  24.183  19.670  1.00 27.40     0.618 N 
ENDBRANCH   4   5
ENDBRANCH   3   4
ENDBRANCH   2   3
ENDBRANCH   1   2
END_RES LYS A 131
BEGIN_RES LYS A 135
REMARK  4 active torsions:
REMARK  status: ('A' for Active; 'I' for Inactive)
REMARK    5  A    between atoms: CA   and  CB  
REMARK    6  A    between atoms: CB   and  CG  
REMARK    7  A    between atoms: CG   and  CD  
REMARK    8  A    between atoms: CD   and  CE  
ROOT
ATOM      7  CA  LYS A 135      33.193  34.663   9.290  1.00 25.02     0.186 C 
ENDROOT
BRANCH   7   8
ATOM      8  CB  LYS A 135      32.060  35.360  10.034  1.00 26.63     0.034 C 
BRANCH   8   9
ATOM      9  CG  LYS A 135      30.756  35.366   9.278  1.00 29.45     0.005 C 
BRANCH   9  10
ATOM     10  CD  LYS A 135      29.809  34.314   9.834  1.00 32.00     0.041 C 
BRANCH  10  11
ATOM     11  CE  LYS A 135      28.863  34.931  10.846  1.00 34.25     0.338 C 
ATOM     12  NZ  LYS A 135      29.308  34.647  12.239  1.00 35.99     0.618 N 
ENDBRANCH  10  11
ENDBRANCH   9  10
ENDBRANCH   8   9
ENDBRANCH   7   8
END_RES LYS A 135
