REMARK VINA RESULT:    -3.882      4.729      7.980
REMARK INTER + INTRA:         -14.738
REMARK INTER:                  -6.892
REMARK INTRA:                  -7.847
REMARK UNBOUND:                -7.565
REMARK SMILES CC(=O)N[C@@H]1[C@@H](O)C[C@](O)(C(=O)O)O[C@H]1C(O)[C@H](O)CNC(=O)OCc1cn(CC(=O)Nc2ncccn2)nn1
REMARK SMILES IDX 21 1 22 2 23 3 20 5 18 6 16 7 15 8 9 9 8 10 14 11 6 12 5 13
REMARK SMILES IDX 10 14 11 16 12 17 13 18 7 20 4 22 2 23 1 25 3 26 17 27 19 29
REMARK SMILES IDX 24 31 25 32 26 33 27 34 40 35 28 36 39 37 29 38 30 39 31 40
REMARK SMILES IDX 32 41 33 43 34 44 38 45 35 46 37 47 36 48
REMARK H PARENT 21 4 10 15 13 19 7 21 4 24 17 28 19 30 32 42
REMARK Flexibility Score: inf
ROOT
ATOM      1  N   UNL     1      26.554  27.060  24.479  1.00  0.00    -0.319 N 
ATOM      2  C   UNL     1      25.288  27.623  24.096  1.00  0.00     0.407 C 
ATOM      3  O   UNL     1      25.079  28.859  24.178  1.00  0.00    -0.225 OA
ATOM      4  H   UNL     1      26.708  26.041  24.403  1.00  0.00     0.167 HD
ENDROOT
BRANCH   1   5
ATOM      5  C   UNL     1      27.567  27.959  24.958  1.00  0.00     0.154 C 
BRANCH   5   6
ATOM      6  C   UNL     1      28.803  27.986  24.092  1.00  0.00     0.165 C 
BRANCH   6   7
ATOM      7  C   UNL     1      28.736  29.240  23.255  1.00  0.00     0.176 C 
BRANCH   7   8
ATOM      8  C   UNL     1      29.905  29.309  22.269  1.00  0.00     0.178 C 
ATOM      9  C   UNL     1      31.957  28.474  21.834  1.00  0.00     0.269 C 
ATOM     10  C   UNL     1      32.303  29.728  21.117  1.00  0.00     0.112 C 
ATOM     11  O   UNL     1      31.009  28.684  22.795  1.00  0.00    -0.332 OA
ATOM     12  C   UNL     1      31.650  30.984  21.641  1.00  0.00     0.145 C 
ATOM     13  C   UNL     1      30.210  30.776  22.014  1.00  0.00     0.142 C 
BRANCH   9  14
ATOM     14  O   UNL     1      33.113  28.029  22.561  1.00  0.00    -0.357 OA
ATOM     15  H   UNL     1      33.621  28.832  22.860  1.00  0.00     0.214 HD
ENDBRANCH   9  14
BRANCH   9  16
ATOM     16  C   UNL     1      31.653  27.352  20.899  1.00  0.00     0.364 C 
ATOM     17  O   UNL     1      30.919  26.424  21.239  1.00  0.00    -0.246 OA
BRANCH  16  18
ATOM     18  O   UNL     1      32.188  27.311  19.609  1.00  0.00    -0.477 OA
ATOM     19  H   UNL     1      32.025  28.042  18.939  1.00  0.00     0.296 HD
ENDBRANCH  16  18
ENDBRANCH   9  16
BRANCH  12  20
ATOM     20  O   UNL     1      32.405  31.402  22.740  1.00  0.00    -0.391 OA
ATOM     21  H   UNL     1      32.657  30.634  23.327  1.00  0.00     0.211 HD
ENDBRANCH  12  20
BRANCH  13  22
ATOM     22  N   UNL     1      29.266  31.288  21.082  1.00  0.00    -0.348 N 
ATOM     23  C   UNL     1      28.494  32.462  21.268  1.00  0.00     0.217 C 
ATOM     24  H   UNL     1      29.106  30.778  20.179  1.00  0.00     0.163 HD
ATOM     25  C   UNL     1      27.514  32.941  20.245  1.00  0.00     0.114 C 
ATOM     26  O   UNL     1      28.655  33.096  22.326  1.00  0.00    -0.275 OA
ENDBRANCH  13  22
ENDBRANCH   7   8
BRANCH   7  27
ATOM     27  O   UNL     1      27.530  29.358  22.593  1.00  0.00    -0.388 OA
ATOM     28  H   UNL     1      27.712  29.740  21.680  1.00  0.00     0.211 HD
ENDBRANCH   7  27
ENDBRANCH   6   7
BRANCH   6  29
ATOM     29  O   UNL     1      28.791  26.838  23.302  1.00  0.00    -0.388 OA
ATOM     30  H   UNL     1      29.589  26.302  23.556  1.00  0.00     0.211 HD
ENDBRANCH   6  29
ENDBRANCH   5   6
ENDBRANCH   1   5
BRANCH   2  31
ATOM     31  O   UNL     1      24.266  26.830  23.628  1.00  0.00    -0.443 OA
BRANCH  31  32
ATOM     32  C   UNL     1      24.340  25.931  22.561  1.00  0.00     0.294 C 
BRANCH  32  33
ATOM     33  C   UNL     1      24.993  26.569  21.399  1.00  0.00     0.120 A 
ATOM     34  C   UNL     1      24.430  26.975  20.207  1.00  0.00     0.138 A 
ATOM     35  N   UNL     1      26.299  26.873  21.331  1.00  0.00    -0.132 NA
ATOM     36  N   UNL     1      25.406  27.503  19.470  1.00  0.00    -0.243 N 
ATOM     37  N   UNL     1      26.520  27.426  20.175  1.00  0.00    -0.067 NA
BRANCH  36  38
ATOM     38  C   UNL     1      25.221  28.066  18.128  1.00  0.00     0.246 C 
BRANCH  38  39
ATOM     39  C   UNL     1      26.528  28.569  17.608  1.00  0.00     0.248 C 
ATOM     40  O   UNL     1      27.313  27.895  16.921  1.00  0.00    -0.272 OA
ATOM     41  N   UNL     1      26.896  29.917  17.923  1.00  0.00    -0.293 N 
ATOM     42  H   UNL     1      26.255  30.508  18.500  1.00  0.00     0.173 HD
BRANCH  41  43
ATOM     43  C   UNL     1      28.109  30.486  17.471  1.00  0.00     0.229 A 
ATOM     44  N   UNL     1      29.229  30.537  18.218  1.00  0.00    -0.221 NA
ATOM     45  N   UNL     1      28.188  31.013  16.234  1.00  0.00    -0.221 NA
ATOM     46  C   UNL     1      30.372  31.084  17.761  1.00  0.00     0.117 A 
ATOM     47  C   UNL     1      29.285  31.566  15.724  1.00  0.00     0.117 A 
ATOM     48  C   UNL     1      30.432  31.619  16.490  1.00  0.00     0.040 A 
ENDBRANCH  41  43
ENDBRANCH  38  39
ENDBRANCH  36  38
ENDBRANCH  32  33
ENDBRANCH  31  32
ENDBRANCH   2  31
TORSDOF 17
BEGIN_RES LYS A 131
REMARK  4 active torsions:
REMARK  status: ('A' for Active; 'I' for Inactive)
REMARK    1  A    between atoms: CA   and  CB  
REMARK    2  A    between atoms: CB   and  CG  
REMARK    3  A    between atoms: CG   and  CD  
REMARK    4  A    between atoms: CD   and  CE  
ROOT
ATOM      1  CA  LYS A 131      29.867  25.555  16.977  1.00 20.52     0.186 C 
ENDROOT
BRANCH   1   2
ATOM      2  CB  LYS A 131      28.345  25.722  17.026  1.00 20.94     0.034 C 
BRANCH   2   3
ATOM      3  CG  LYS A 131      27.601  24.401  16.905  1.00 22.96     0.005 C 
BRANCH   3   4
ATOM      4  CD  LYS A 131      26.166  24.517  17.336  1.00 24.33     0.041 C 
BRANCH   4   5
ATOM      5  CE  LYS A 131      25.752  23.250  18.078  1.00 26.91     0.338 C 
ATOM      6  NZ  LYS A 131      25.565  23.531  19.521  1.00 27.40     0.618 N 
ENDBRANCH   4   5
ENDBRANCH   3   4
ENDBRANCH   2   3
ENDBRANCH   1   2
END_RES LYS A 131
BEGIN_RES LYS A 135
REMARK  4 active torsions:
REMARK  status: ('A' for Active; 'I' for Inactive)
REMARK    5  A    between atoms: CA   and  CB  
REMARK    6  A    between atoms: CB   and  CG  
REMARK    7  A    between atoms: CG   and  CD  
REMARK    8  A    between atoms: CD   and  CE  
ROOT
ATOM      7  CA  LYS A 135      33.193  34.663   9.290  1.00 25.02     0.186 C 
ENDROOT
BRANCH   7   8
ATOM      8  CB  LYS A 135      32.060  35.360  10.034  1.00 26.63     0.034 C 
BRANCH   8   9
ATOM      9  CG  LYS A 135      30.787  35.463   9.234  1.00 29.45     0.005 C 
BRANCH   9  10
ATOM     10  CD  LYS A 135      30.207  34.082   8.969  1.00 32.00     0.041 C 
BRANCH  10  11
ATOM     11  CE  LYS A 135      28.740  34.039   9.352  1.00 34.25     0.338 C 
ATOM     12  NZ  LYS A 135      27.890  34.650   8.292  1.00 35.99     0.618 N 
ENDBRANCH  10  11
ENDBRANCH   9  10
ENDBRANCH   8   9
ENDBRANCH   7   8
END_RES LYS A 135
