REMARK VINA RESULT:    -4.606      4.873      8.696
REMARK INTER + INTRA:         -14.803
REMARK INTER:                  -7.847
REMARK INTRA:                  -6.956
REMARK UNBOUND:                -6.292
REMARK SMILES CC(=O)N[C@@H]1[C@@H](O)C[C@](O)(C(=O)O)O[C@H]1C(O)[C@H](O)CNC(=O)OCc1cn(CCC2OCCO2)nn1
REMARK SMILES IDX 21 1 22 2 23 3 20 5 18 6 16 7 15 8 9 9 8 10 14 11 6 12 5 13
REMARK SMILES IDX 10 14 11 16 12 17 13 18 7 20 4 22 2 23 1 25 3 26 17 27 19 29
REMARK SMILES IDX 24 31 25 32 26 33 27 34 37 35 28 36 36 37 29 38 30 39 31 40
REMARK SMILES IDX 32 41 35 42 33 43 34 44
REMARK H PARENT 21 4 10 15 13 19 7 21 4 24 17 28 19 30
REMARK Flexibility Score: inf
ROOT
ATOM      1  N   UNL     1      31.696  39.259  10.034  1.00  0.00    -0.319 N 
ATOM      2  C   UNL     1      31.216  39.864  11.220  1.00  0.00     0.407 C 
ATOM      3  O   UNL     1      30.809  41.075  11.178  1.00  0.00    -0.225 OA
ATOM      4  H   UNL     1      32.027  38.280  10.057  1.00  0.00     0.167 HD
ENDROOT
BRANCH   1   5
ATOM      5  C   UNL     1      31.719  40.004   8.820  1.00  0.00     0.154 C 
BRANCH   5   6
ATOM      6  C   UNL     1      30.911  39.384   7.713  1.00  0.00     0.165 C 
BRANCH   6   7
ATOM      7  C   UNL     1      29.516  39.927   7.629  1.00  0.00     0.176 C 
BRANCH   7   8
ATOM      8  C   UNL     1      28.504  38.811   7.770  1.00  0.00     0.178 C 
ATOM      9  C   UNL     1      27.551  37.099   6.517  1.00  0.00     0.269 C 
ATOM     10  C   UNL     1      26.227  37.430   7.142  1.00  0.00     0.112 C 
ATOM     11  O   UNL     1      28.492  38.091   6.604  1.00  0.00    -0.332 OA
ATOM     12  C   UNL     1      26.094  38.938   7.159  1.00  0.00     0.145 C 
ATOM     13  C   UNL     1      27.169  39.463   8.101  1.00  0.00     0.142 C 
BRANCH   9  14
ATOM     14  O   UNL     1      27.315  36.888   5.138  1.00  0.00    -0.357 OA
ATOM     15  H   UNL     1      26.381  37.048   4.901  1.00  0.00     0.214 HD
ENDBRANCH   9  14
BRANCH   9  16
ATOM     16  C   UNL     1      28.048  35.784   7.031  1.00  0.00     0.364 C 
ATOM     17  O   UNL     1      27.334  34.954   7.635  1.00  0.00    -0.246 OA
BRANCH  16  18
ATOM     18  O   UNL     1      29.387  35.487   6.814  1.00  0.00    -0.477 OA
ATOM     19  H   UNL     1      29.820  35.454   5.897  1.00  0.00     0.296 HD
ENDBRANCH  16  18
ENDBRANCH   9  16
BRANCH  12  20
ATOM     20  O   UNL     1      26.364  39.418   5.869  1.00  0.00    -0.391 OA
ATOM     21  H   UNL     1      26.830  38.749   5.314  1.00  0.00     0.211 HD
ENDBRANCH  12  20
BRANCH  13  22
ATOM     22  N   UNL     1      26.757  39.170   9.465  1.00  0.00    -0.348 N 
ATOM     23  C   UNL     1      26.429  40.243  10.332  1.00  0.00     0.217 C 
ATOM     24  H   UNL     1      26.702  38.171   9.814  1.00  0.00     0.163 HD
ATOM     25  C   UNL     1      25.999  40.048  11.740  1.00  0.00     0.114 C 
ATOM     26  O   UNL     1      26.508  41.419   9.873  1.00  0.00    -0.275 OA
ENDBRANCH  13  22
ENDBRANCH   7   8
BRANCH   7  27
ATOM     27  O   UNL     1      29.315  40.950   8.555  1.00  0.00    -0.388 OA
ATOM     28  H   UNL     1      29.835  40.846   9.380  1.00  0.00     0.211 HD
ENDBRANCH   7  27
ENDBRANCH   6   7
BRANCH   6  29
ATOM     29  O   UNL     1      30.866  38.011   7.902  1.00  0.00    -0.388 OA
ATOM     30  H   UNL     1      31.533  37.675   8.529  1.00  0.00     0.211 HD
ENDBRANCH   6  29
ENDBRANCH   5   6
ENDBRANCH   1   5
BRANCH   2  31
ATOM     31  O   UNL     1      31.150  39.245  12.435  1.00  0.00    -0.443 OA
BRANCH  31  32
ATOM     32  C   UNL     1      29.972  38.977  13.172  1.00  0.00     0.294 C 
BRANCH  32  33
ATOM     33  C   UNL     1      29.046  38.074  12.448  1.00  0.00     0.120 A 
ATOM     34  C   UNL     1      28.061  37.292  13.005  1.00  0.00     0.138 A 
ATOM     35  N   UNL     1      28.995  37.849  11.126  1.00  0.00    -0.132 NA
ATOM     36  N   UNL     1      27.444  36.618  12.011  1.00  0.00    -0.252 N 
ATOM     37  N   UNL     1      28.030  36.975  10.883  1.00  0.00    -0.067 NA
BRANCH  36  38
ATOM     38  C   UNL     1      26.338  35.673  12.102  1.00  0.00     0.151 C 
BRANCH  38  39
ATOM     39  C   UNL     1      25.846  35.296  10.722  1.00  0.00     0.086 C 
BRANCH  39  40
ATOM     40  C   UNL     1      24.503  35.884  10.445  1.00  0.00     0.251 C 
ATOM     41  O   UNL     1      23.871  35.357   9.326  1.00  0.00    -0.350 OA
ATOM     42  O   UNL     1      24.505  37.262  10.290  1.00  0.00    -0.350 OA
ATOM     43  C   UNL     1      22.942  36.309   8.917  1.00  0.00     0.192 C 
ATOM     44  C   UNL     1      23.430  37.601   9.504  1.00  0.00     0.192 C 
ENDBRANCH  39  40
ENDBRANCH  38  39
ENDBRANCH  36  38
ENDBRANCH  32  33
ENDBRANCH  31  32
ENDBRANCH   2  31
TORSDOF 17
BEGIN_RES LYS A 131
REMARK  4 active torsions:
REMARK  status: ('A' for Active; 'I' for Inactive)
REMARK    1  A    between atoms: CA   and  CB  
REMARK    2  A    between atoms: CB   and  CG  
REMARK    3  A    between atoms: CG   and  CD  
REMARK    4  A    between atoms: CD   and  CE  
ROOT
ATOM      1  CA  LYS A 131      29.867  25.555  16.977  1.00 20.52     0.186 C 
ENDROOT
BRANCH   1   2
ATOM      2  CB  LYS A 131      28.345  25.722  17.026  1.00 20.94     0.034 C 
BRANCH   2   3
ATOM      3  CG  LYS A 131      27.602  24.397  16.948  1.00 22.96     0.005 C 
BRANCH   3   4
ATOM      4  CD  LYS A 131      26.643  24.217  18.092  1.00 24.33     0.041 C 
BRANCH   4   5
ATOM      5  CE  LYS A 131      25.255  23.900  17.547  1.00 26.91     0.338 C 
ATOM      6  NZ  LYS A 131      25.034  22.435  17.511  1.00 27.40     0.618 N 
ENDBRANCH   4   5
ENDBRANCH   3   4
ENDBRANCH   2   3
ENDBRANCH   1   2
END_RES LYS A 131
BEGIN_RES LYS A 135
REMARK  4 active torsions:
REMARK  status: ('A' for Active; 'I' for Inactive)
REMARK    5  A    between atoms: CA   and  CB  
REMARK    6  A    between atoms: CB   and  CG  
REMARK    7  A    between atoms: CG   and  CD  
REMARK    8  A    between atoms: CD   and  CE  
ROOT
ATOM      7  CA  LYS A 135      33.193  34.663   9.290  1.00 25.02     0.186 C 
ENDROOT
BRANCH   7   8
ATOM      8  CB  LYS A 135      32.060  35.360  10.034  1.00 26.63     0.034 C 
BRANCH   8   9
ATOM      9  CG  LYS A 135      30.745  34.628   9.951  1.00 29.45     0.005 C 
BRANCH   9  10
ATOM     10  CD  LYS A 135      30.159  34.419  11.339  1.00 32.00     0.041 C 
BRANCH  10  11
ATOM     11  CE  LYS A 135      31.068  35.017  12.397  1.00 34.25     0.338 C 
ATOM     12  NZ  LYS A 135      30.551  34.742  13.766  1.00 35.99     0.618 N 
ENDBRANCH  10  11
ENDBRANCH   9  10
ENDBRANCH   8   9
ENDBRANCH   7   8
END_RES LYS A 135
