REMARK VINA RESULT:    -4.067      3.296      7.739
REMARK INTER + INTRA:         -14.706
REMARK INTER:                  -8.256
REMARK INTRA:                  -6.450
REMARK UNBOUND:                -7.311
REMARK SMILES CC(=O)N[C@@H]1[C@@H](O)C[C@](O)(C(=O)O)O[C@H]1C(O)[C@H](O)CNC(=O)OCc1cn(-c2ccc(O)c([N+](=O)[O-])c2)nn1
REMARK SMILES IDX 21 1 22 2 23 3 20 5 18 6 16 7 15 8 9 9 8 10 14 11 6 12 5 13
REMARK SMILES IDX 10 14 11 16 12 17 13 18 7 20 4 22 2 23 1 25 3 26 17 27 19 29
REMARK SMILES IDX 24 31 25 32 26 33 27 34 40 35 28 36 39 37 29 38 30 39 38 40
REMARK SMILES IDX 31 41 34 42 32 43 35 44 36 45 37 46 33 47
REMARK H PARENT 21 4 10 15 13 19 7 21 4 24 17 28 19 30 33 48
REMARK Flexibility Score: inf
ROOT
ATOM      1  N   UNL     1      29.033  37.282  15.870  1.00  0.00    -0.319 N 
ATOM      2  C   UNL     1      30.386  37.621  15.597  1.00  0.00     0.407 C 
ATOM      3  O   UNL     1      31.314  37.417  16.448  1.00  0.00    -0.225 OA
ATOM      4  H   UNL     1      28.313  37.457  15.152  1.00  0.00     0.167 HD
ENDROOT
BRANCH   1   5
ATOM      5  C   UNL     1      28.701  36.695  17.135  1.00  0.00     0.154 C 
BRANCH   5   6
ATOM      6  C   UNL     1      28.309  35.261  17.122  1.00  0.00     0.165 C 
BRANCH   6   7
ATOM      7  C   UNL     1      28.482  34.553  15.803  1.00  0.00     0.176 C 
BRANCH   7   8
ATOM      8  C   UNL     1      28.658  33.070  15.912  1.00  0.00     0.178 C 
ATOM      9  C   UNL     1      27.662  31.091  16.517  1.00  0.00     0.269 C 
ATOM     10  C   UNL     1      28.827  30.574  15.705  1.00  0.00     0.112 C 
ATOM     11  O   UNL     1      27.598  32.472  16.573  1.00  0.00    -0.332 OA
ATOM     12  C   UNL     1      30.100  31.116  16.264  1.00  0.00     0.145 C 
ATOM     13  C   UNL     1      30.012  32.644  16.346  1.00  0.00     0.142 C 
BRANCH   9  14
ATOM     14  O   UNL     1      27.812  30.592  17.803  1.00  0.00    -0.357 OA
ATOM     15  H   UNL     1      28.256  29.705  17.719  1.00  0.00     0.214 HD
ENDBRANCH   9  14
BRANCH   9  16
ATOM     16  C   UNL     1      26.426  30.515  15.932  1.00  0.00     0.364 C 
ATOM     17  O   UNL     1      25.975  29.405  16.319  1.00  0.00    -0.246 OA
BRANCH  16  18
ATOM     18  O   UNL     1      25.738  31.193  14.943  1.00  0.00    -0.477 OA
ATOM     19  H   UNL     1      24.836  30.919  14.604  1.00  0.00     0.296 HD
ENDBRANCH  16  18
ENDBRANCH   9  16
BRANCH  12  20
ATOM     20  O   UNL     1      30.264  30.548  17.541  1.00  0.00    -0.391 OA
ATOM     21  H   UNL     1      31.108  30.004  17.491  1.00  0.00     0.211 HD
ENDBRANCH  12  20
BRANCH  13  22
ATOM     22  N   UNL     1      30.963  33.179  15.358  1.00  0.00    -0.348 N 
ATOM     23  C   UNL     1      32.043  34.013  15.712  1.00  0.00     0.217 C 
ATOM     24  H   UNL     1      30.826  32.927  14.351  1.00  0.00     0.163 HD
ATOM     25  C   UNL     1      32.978  34.533  14.684  1.00  0.00     0.114 C 
ATOM     26  O   UNL     1      32.217  34.320  16.898  1.00  0.00    -0.275 OA
ENDBRANCH  13  22
ENDBRANCH   7   8
BRANCH   7  27
ATOM     27  O   UNL     1      27.404  34.797  14.953  1.00  0.00    -0.388 OA
ATOM     28  H   UNL     1      27.163  34.037  14.398  1.00  0.00     0.211 HD
ENDBRANCH   7  27
ENDBRANCH   6   7
BRANCH   6  29
ATOM     29  O   UNL     1      26.963  35.210  17.514  1.00  0.00    -0.388 OA
ATOM     30  H   UNL     1      26.888  35.715  18.374  1.00  0.00     0.211 HD
ENDBRANCH   6  29
ENDBRANCH   5   6
ENDBRANCH   1   5
BRANCH   2  31
ATOM     31  O   UNL     1      30.680  38.182  14.377  1.00  0.00    -0.443 OA
BRANCH  31  32
ATOM     32  C   UNL     1      31.083  37.370  13.318  1.00  0.00     0.294 C 
BRANCH  32  33
ATOM     33  C   UNL     1      29.991  36.518  12.775  1.00  0.00     0.121 A 
ATOM     34  C   UNL     1      28.831  36.920  12.128  1.00  0.00     0.144 A 
ATOM     35  N   UNL     1      29.911  35.175  12.805  1.00  0.00    -0.131 NA
ATOM     36  N   UNL     1      28.098  35.848  11.791  1.00  0.00    -0.220 N 
ATOM     37  N   UNL     1      28.777  34.795  12.214  1.00  0.00    -0.062 NA
BRANCH  36  38
ATOM     38  C   UNL     1      26.846  35.796  11.119  1.00  0.00     0.073 A 
ATOM     39  C   UNL     1      25.815  35.037  11.633  1.00  0.00     0.033 A 
ATOM     40  C   UNL     1      26.597  36.481   9.948  1.00  0.00     0.118 A 
ATOM     41  C   UNL     1      24.587  34.972  10.995  1.00  0.00     0.056 A 
ATOM     42  C   UNL     1      25.387  36.446   9.274  1.00  0.00     0.312 A 
ATOM     43  C   UNL     1      24.375  35.669   9.829  1.00  0.00     0.194 A 
BRANCH  42  44
ATOM     44  N   UNL     1      25.150  37.153   8.077  1.00  0.00     0.066 N 
ATOM     45  O   UNL     1      25.915  37.005   7.123  1.00  0.00    -0.258 OA
ATOM     46  O   UNL     1      24.084  37.990   7.982  1.00  0.00    -0.258 OA
ENDBRANCH  42  44
BRANCH  43  47
ATOM     47  O   UNL     1      23.159  35.635   9.149  1.00  0.00    -0.502 OA
ATOM     48  H   UNL     1      22.387  36.212   9.513  1.00  0.00     0.293 HD
ENDBRANCH  43  47
ENDBRANCH  36  38
ENDBRANCH  32  33
ENDBRANCH  31  32
ENDBRANCH   2  31
TORSDOF 17
BEGIN_RES LYS A 131
REMARK  4 active torsions:
REMARK  status: ('A' for Active; 'I' for Inactive)
REMARK    1  A    between atoms: CA   and  CB  
REMARK    2  A    between atoms: CB   and  CG  
REMARK    3  A    between atoms: CG   and  CD  
REMARK    4  A    between atoms: CD   and  CE  
ROOT
ATOM      1  CA  LYS A 131      29.867  25.555  16.977  1.00 20.52     0.186 C 
ENDROOT
BRANCH   1   2
ATOM      2  CB  LYS A 131      28.345  25.722  17.026  1.00 20.94     0.034 C 
BRANCH   2   3
ATOM      3  CG  LYS A 131      27.600  24.407  16.851  1.00 22.96     0.005 C 
BRANCH   3   4
ATOM      4  CD  LYS A 131      26.734  24.085  18.037  1.00 24.33     0.041 C 
BRANCH   4   5
ATOM      5  CE  LYS A 131      26.238  25.379  18.672  1.00 26.91     0.338 C 
ATOM      6  NZ  LYS A 131      25.518  25.095  19.936  1.00 27.40     0.618 N 
ENDBRANCH   4   5
ENDBRANCH   3   4
ENDBRANCH   2   3
ENDBRANCH   1   2
END_RES LYS A 131
BEGIN_RES LYS A 135
REMARK  4 active torsions:
REMARK  status: ('A' for Active; 'I' for Inactive)
REMARK    5  A    between atoms: CA   and  CB  
REMARK    6  A    between atoms: CB   and  CG  
REMARK    7  A    between atoms: CG   and  CD  
REMARK    8  A    between atoms: CD   and  CE  
ROOT
ATOM      7  CA  LYS A 135      33.193  34.663   9.290  1.00 25.02     0.186 C 
ENDROOT
BRANCH   7   8
ATOM      8  CB  LYS A 135      32.060  35.360  10.034  1.00 26.63     0.034 C 
BRANCH   8   9
ATOM      9  CG  LYS A 135      30.823  35.560   9.197  1.00 29.45     0.005 C 
BRANCH   9  10
ATOM     10  CD  LYS A 135      30.102  34.239   8.979  1.00 32.00     0.041 C 
BRANCH  10  11
ATOM     11  CE  LYS A 135      28.825  34.453   8.189  1.00 34.25     0.338 C 
ATOM     12  NZ  LYS A 135      29.027  35.451   7.103  1.00 35.99     0.618 N 
ENDBRANCH  10  11
ENDBRANCH   9  10
ENDBRANCH   8   9
ENDBRANCH   7   8
END_RES LYS A 135
