REMARK VINA RESULT:    -5.247      3.898      7.914
REMARK INTER + INTRA:         -14.706
REMARK INTER:                  -9.454
REMARK INTRA:                  -5.252
REMARK UNBOUND:                -5.011
REMARK SMILES CC(=O)N[C@@H]1[C@@H](O)C[C@](O)(C(=O)O)O[C@H]1C(O)[C@H](O)CNC(=O)OCc1cn(CS(=O)(=O)c2ccccc2)nn1
REMARK SMILES IDX 21 1 22 2 23 3 20 5 18 6 16 7 15 8 9 9 8 10 14 11 6 12 5 13
REMARK SMILES IDX 10 14 11 16 12 17 13 18 7 20 4 22 2 23 1 25 3 26 17 27 19 29
REMARK SMILES IDX 24 31 25 32 26 33 27 34 40 35 28 36 39 37 29 38 30 39 31 40
REMARK SMILES IDX 32 41 33 42 34 43 38 44 35 45 37 46 36 47
REMARK H PARENT 21 4 10 15 13 19 7 21 4 24 17 28 19 30
REMARK Flexibility Score: inf
ROOT
ATOM      1  N   UNL     1      30.642  37.346  14.773  1.00  0.00    -0.319 N 
ATOM      2  C   UNL     1      30.590  38.473  15.670  1.00  0.00     0.407 C 
ATOM      3  O   UNL     1      31.622  39.131  15.865  1.00  0.00    -0.225 OA
ATOM      4  H   UNL     1      29.736  36.852  14.660  1.00  0.00     0.167 HD
ENDROOT
BRANCH   1   5
ATOM      5  C   UNL     1      31.884  36.988  14.111  1.00  0.00     0.154 C 
BRANCH   5   6
ATOM      6  C   UNL     1      32.667  35.970  14.868  1.00  0.00     0.165 C 
BRANCH   6   7
ATOM      7  C   UNL     1      31.997  34.645  14.997  1.00  0.00     0.176 C 
BRANCH   7   8
ATOM      8  C   UNL     1      31.885  34.076  16.365  1.00  0.00     0.178 C 
ATOM      9  C   UNL     1      30.305  32.453  15.780  1.00  0.00     0.269 C 
ATOM     10  C   UNL     1      29.221  33.446  16.041  1.00  0.00     0.112 C 
ATOM     11  O   UNL     1      31.540  32.727  16.311  1.00  0.00    -0.332 OA
ATOM     12  C   UNL     1      29.517  34.522  17.010  1.00  0.00     0.145 C 
ATOM     13  C   UNL     1      30.971  34.697  17.345  1.00  0.00     0.142 C 
BRANCH   9  14
ATOM     14  O   UNL     1      30.491  32.251  14.411  1.00  0.00    -0.357 OA
ATOM     15  H   UNL     1      30.951  31.426  14.189  1.00  0.00     0.214 HD
ENDBRANCH   9  14
BRANCH   9  16
ATOM     16  C   UNL     1      29.896  31.143  16.349  1.00  0.00     0.364 C 
ATOM     17  O   UNL     1      29.101  30.420  15.711  1.00  0.00    -0.246 OA
BRANCH  16  18
ATOM     18  O   UNL     1      30.356  30.670  17.572  1.00  0.00    -0.477 OA
ATOM     19  H   UNL     1      29.699  30.322  18.284  1.00  0.00     0.296 HD
ENDBRANCH  16  18
ENDBRANCH   9  16
BRANCH  12  20
ATOM     20  O   UNL     1      28.959  35.716  16.556  1.00  0.00    -0.391 OA
ATOM     21  H   UNL     1      29.598  36.280  16.084  1.00  0.00     0.211 HD
ENDBRANCH  12  20
BRANCH  13  22
ATOM     22  N   UNL     1      31.283  34.151  18.669  1.00  0.00    -0.348 N 
ATOM     23  C   UNL     1      32.306  34.693  19.478  1.00  0.00     0.217 C 
ATOM     24  H   UNL     1      30.744  33.342  19.035  1.00  0.00     0.163 HD
ATOM     25  C   UNL     1      32.636  34.149  20.829  1.00  0.00     0.114 C 
ATOM     26  O   UNL     1      32.946  35.671  19.017  1.00  0.00    -0.275 OA
ENDBRANCH  13  22
ENDBRANCH   7   8
BRANCH   7  27
ATOM     27  O   UNL     1      32.972  33.746  14.378  1.00  0.00    -0.388 OA
ATOM     28  H   UNL     1      33.577  34.323  13.879  1.00  0.00     0.211 HD
ENDBRANCH   7  27
ENDBRANCH   6   7
BRANCH   6  29
ATOM     29  O   UNL     1      33.249  36.409  16.041  1.00  0.00    -0.388 OA
ATOM     30  H   UNL     1      33.554  37.347  15.986  1.00  0.00     0.211 HD
ENDBRANCH   6  29
ENDBRANCH   5   6
ENDBRANCH   1   5
BRANCH   2  31
ATOM     31  O   UNL     1      29.418  38.827  16.309  1.00  0.00    -0.443 OA
BRANCH  31  32
ATOM     32  C   UNL     1      28.305  39.370  15.621  1.00  0.00     0.294 C 
BRANCH  32  33
ATOM     33  C   UNL     1      27.372  38.323  15.180  1.00  0.00     0.120 A 
ATOM     34  C   UNL     1      26.935  37.990  13.929  1.00  0.00     0.139 A 
ATOM     35  N   UNL     1      26.753  37.462  16.016  1.00  0.00    -0.132 NA
ATOM     36  N   UNL     1      26.073  36.949  14.040  1.00  0.00    -0.237 N 
ATOM     37  N   UNL     1      25.982  36.650  15.325  1.00  0.00    -0.066 NA
BRANCH  36  38
ATOM     38  C   UNL     1      25.404  36.318  12.933  1.00  0.00     0.287 C 
BRANCH  38  39
ATOM     39  S   UNL     1      26.302  34.863  12.411  1.00  0.00     0.198 S 
ATOM     40  O   UNL     1      25.465  33.657  12.753  1.00  0.00    -0.222 OA
ATOM     41  O   UNL     1      27.579  34.826  13.163  1.00  0.00    -0.222 OA
BRANCH  39  42
ATOM     42  C   UNL     1      26.566  34.962  10.679  1.00  0.00     0.069 A 
ATOM     43  C   UNL     1      25.992  36.027   9.992  1.00  0.00     0.020 A 
ATOM     44  C   UNL     1      27.319  34.010  10.036  1.00  0.00     0.020 A 
ATOM     45  C   UNL     1      26.200  36.103   8.636  1.00  0.00     0.001 A 
ATOM     46  C   UNL     1      27.497  34.131   8.675  1.00  0.00     0.001 A 
ATOM     47  C   UNL     1      26.955  35.161   7.943  1.00  0.00     0.000 A 
ENDBRANCH  39  42
ENDBRANCH  38  39
ENDBRANCH  36  38
ENDBRANCH  32  33
ENDBRANCH  31  32
ENDBRANCH   2  31
TORSDOF 17
BEGIN_RES LYS A 131
REMARK  4 active torsions:
REMARK  status: ('A' for Active; 'I' for Inactive)
REMARK    1  A    between atoms: CA   and  CB  
REMARK    2  A    between atoms: CB   and  CG  
REMARK    3  A    between atoms: CG   and  CD  
REMARK    4  A    between atoms: CD   and  CE  
ROOT
ATOM      1  CA  LYS A 131      29.867  25.555  16.977  1.00 20.52     0.186 C 
ENDROOT
BRANCH   1   2
ATOM      2  CB  LYS A 131      28.345  25.722  17.026  1.00 20.94     0.034 C 
BRANCH   2   3
ATOM      3  CG  LYS A 131      27.601  24.402  16.892  1.00 22.96     0.005 C 
BRANCH   3   4
ATOM      4  CD  LYS A 131      26.527  24.249  17.933  1.00 24.33     0.041 C 
BRANCH   4   5
ATOM      5  CE  LYS A 131      25.185  24.014  17.249  1.00 26.91     0.338 C 
ATOM      6  NZ  LYS A 131      24.280  23.242  18.133  1.00 27.40     0.618 N 
ENDBRANCH   4   5
ENDBRANCH   3   4
ENDBRANCH   2   3
ENDBRANCH   1   2
END_RES LYS A 131
BEGIN_RES LYS A 135
REMARK  4 active torsions:
REMARK  status: ('A' for Active; 'I' for Inactive)
REMARK    5  A    between atoms: CA   and  CB  
REMARK    6  A    between atoms: CB   and  CG  
REMARK    7  A    between atoms: CG   and  CD  
REMARK    8  A    between atoms: CD   and  CE  
ROOT
ATOM      7  CA  LYS A 135      33.193  34.663   9.290  1.00 25.02     0.186 C 
ENDROOT
BRANCH   7   8
ATOM      8  CB  LYS A 135      32.060  35.360  10.034  1.00 26.63     0.034 C 
BRANCH   8   9
ATOM      9  CG  LYS A 135      30.751  35.347   9.288  1.00 29.45     0.005 C 
BRANCH   9  10
ATOM     10  CD  LYS A 135      30.123  36.732   9.281  1.00 32.00     0.041 C 
BRANCH  10  11
ATOM     11  CE  LYS A 135      29.593  37.083  10.658  1.00 34.25     0.338 C 
ATOM     12  NZ  LYS A 135      30.183  38.359  11.150  1.00 35.99     0.618 N 
ENDBRANCH  10  11
ENDBRANCH   9  10
ENDBRANCH   8   9
ENDBRANCH   7   8
END_RES LYS A 135
