REMARK VINA RESULT:    -4.587      4.368      6.522
REMARK INTER + INTRA:         -13.857
REMARK INTER:                  -7.830
REMARK INTRA:                  -6.027
REMARK UNBOUND:                -5.917
REMARK SMILES CC(=O)N[C@@H]1[C@@H](O)C[C@](O)(C(=O)O)O[C@H]1C(O)[C@H](O)CNC(=O)OCc1cn(-c2c(C)cc(C)cc2C)nn1
REMARK SMILES IDX 20 1 18 2 16 3 15 4 9 5 8 6 14 7 6 8 5 9 10 10 11 12 12 13
REMARK SMILES IDX 13 14 7 16 4 18 2 19 1 21 3 22 17 23 19 25 21 27 22 28 23 30
REMARK SMILES IDX 24 31 25 32 26 33 27 34 39 35 28 36 38 37 29 38 30 39 36 40
REMARK SMILES IDX 31 41 32 42 35 43 37 44 33 45 34 46
REMARK H PARENT 10 11 13 15 7 17 4 20 17 24 19 26 21 29
REMARK Flexibility Score: inf
ROOT
ATOM      1  C   UNL     1      27.489  36.441  16.649  1.00  0.00     0.154 C 
ENDROOT
BRANCH   1   2
ATOM      2  C   UNL     1      27.036  35.044  16.427  1.00  0.00     0.165 C 
BRANCH   2   3
ATOM      3  C   UNL     1      27.460  34.055  17.465  1.00  0.00     0.176 C 
BRANCH   3   4
ATOM      4  C   UNL     1      28.556  33.134  17.081  1.00  0.00     0.178 C 
ATOM      5  C   UNL     1      30.439  33.218  15.697  1.00  0.00     0.269 C 
ATOM      6  C   UNL     1      30.572  31.723  15.750  1.00  0.00     0.112 C 
ATOM      7  O   UNL     1      29.702  33.768  16.702  1.00  0.00    -0.332 OA
ATOM      8  C   UNL     1      29.336  31.023  16.202  1.00  0.00     0.145 C 
ATOM      9  C   UNL     1      28.168  32.023  16.152  1.00  0.00     0.142 C 
BRANCH   5  10
ATOM     10  O   UNL     1      29.908  33.554  14.454  1.00  0.00    -0.357 OA
ATOM     11  H   UNL     1      30.395  33.019  13.763  1.00  0.00     0.214 HD
ENDBRANCH   5  10
BRANCH   5  12
ATOM     12  C   UNL     1      31.816  33.774  15.784  1.00  0.00     0.364 C 
ATOM     13  O   UNL     1      32.247  34.233  16.860  1.00  0.00    -0.246 OA
BRANCH  12  14
ATOM     14  O   UNL     1      32.653  33.794  14.660  1.00  0.00    -0.477 OA
ATOM     15  H   UNL     1      32.447  33.147  13.886  1.00  0.00     0.296 HD
ENDBRANCH  12  14
ENDBRANCH   5  12
BRANCH   8  16
ATOM     16  O   UNL     1      29.047  29.863  15.512  1.00  0.00    -0.391 OA
ATOM     17  H   UNL     1      29.115  30.075  14.534  1.00  0.00     0.211 HD
ENDBRANCH   8  16
BRANCH   9  18
ATOM     18  N   UNL     1      27.028  31.287  16.632  1.00  0.00    -0.348 N 
ATOM     19  C   UNL     1      25.823  31.345  15.882  1.00  0.00     0.217 C 
ATOM     20  H   UNL     1      27.055  30.710  17.509  1.00  0.00     0.163 HD
ATOM     21  C   UNL     1      24.590  30.623  16.293  1.00  0.00     0.114 C 
ATOM     22  O   UNL     1      25.762  32.025  14.827  1.00  0.00    -0.275 OA
ENDBRANCH   9  18
ENDBRANCH   3   4
BRANCH   3  23
ATOM     23  O   UNL     1      27.826  34.764  18.607  1.00  0.00    -0.388 OA
ATOM     24  H   UNL     1      28.526  35.413  18.348  1.00  0.00     0.211 HD
ENDBRANCH   3  23
ENDBRANCH   2   3
BRANCH   2  25
ATOM     25  O   UNL     1      27.323  34.616  15.130  1.00  0.00    -0.388 OA
ATOM     26  H   UNL     1      28.106  35.086  14.749  1.00  0.00     0.211 HD
ENDBRANCH   2  25
ENDBRANCH   1   2
BRANCH   1  27
ATOM     27  N   UNL     1      28.882  36.649  16.305  1.00  0.00    -0.319 N 
ATOM     28  C   UNL     1      29.845  37.143  17.229  1.00  0.00     0.407 C 
ATOM     29  H   UNL     1      29.264  36.441  15.335  1.00  0.00     0.167 HD
ATOM     30  O   UNL     1      29.512  37.421  18.396  1.00  0.00    -0.225 OA
BRANCH  28  31
ATOM     31  O   UNL     1      31.179  37.325  16.852  1.00  0.00    -0.443 OA
BRANCH  31  32
ATOM     32  C   UNL     1      31.487  38.278  15.822  1.00  0.00     0.294 C 
BRANCH  32  33
ATOM     33  C   UNL     1      31.095  37.692  14.515  1.00  0.00     0.121 A 
ATOM     34  C   UNL     1      30.477  38.375  13.481  1.00  0.00     0.144 A 
ATOM     35  N   UNL     1      31.251  36.448  14.085  1.00  0.00    -0.131 NA
ATOM     36  N   UNL     1      30.273  37.540  12.459  1.00  0.00    -0.220 N 
ATOM     37  N   UNL     1      30.768  36.363  12.878  1.00  0.00    -0.062 NA
BRANCH  36  38
ATOM     38  C   UNL     1      29.677  37.773  11.190  1.00  0.00     0.072 A 
ATOM     39  C   UNL     1      28.331  37.549  11.003  1.00  0.00    -0.025 A 
ATOM     40  C   UNL     1      30.415  38.226  10.107  1.00  0.00    -0.025 A 
ATOM     41  C   UNL     1      27.521  37.067  12.144  1.00  0.00     0.047 C 
ATOM     42  C   UNL     1      27.748  37.780   9.750  1.00  0.00     0.009 A 
ATOM     43  C   UNL     1      29.830  38.450   8.876  1.00  0.00     0.009 A 
ATOM     44  C   UNL     1      31.885  38.465  10.331  1.00  0.00     0.047 C 
ATOM     45  C   UNL     1      28.485  38.231   8.676  1.00  0.00    -0.050 A 
ATOM     46  C   UNL     1      27.838  38.469   7.350  1.00  0.00     0.044 C 
ENDBRANCH  36  38
ENDBRANCH  32  33
ENDBRANCH  31  32
ENDBRANCH  28  31
ENDBRANCH   1  27
TORSDOF 15
BEGIN_RES LYS A 131
REMARK  4 active torsions:
REMARK  status: ('A' for Active; 'I' for Inactive)
REMARK    1  A    between atoms: CA   and  CB  
REMARK    2  A    between atoms: CB   and  CG  
REMARK    3  A    between atoms: CG   and  CD  
REMARK    4  A    between atoms: CD   and  CE  
ROOT
ATOM      1  CA  LYS A 131      29.867  25.555  16.977  1.00 20.52     0.186 C 
ENDROOT
BRANCH   1   2
ATOM      2  CB  LYS A 131      28.345  25.722  17.026  1.00 20.94     0.034 C 
BRANCH   2   3
ATOM      3  CG  LYS A 131      27.602  24.399  16.923  1.00 22.96     0.005 C 
BRANCH   3   4
ATOM      4  CD  LYS A 131      26.521  24.274  17.961  1.00 24.33     0.041 C 
BRANCH   4   5
ATOM      5  CE  LYS A 131      26.358  25.604  18.688  1.00 26.91     0.338 C 
ATOM      6  NZ  LYS A 131      25.014  26.174  18.432  1.00 27.40     0.618 N 
ENDBRANCH   4   5
ENDBRANCH   3   4
ENDBRANCH   2   3
ENDBRANCH   1   2
END_RES LYS A 131
BEGIN_RES LYS A 135
REMARK  4 active torsions:
REMARK  status: ('A' for Active; 'I' for Inactive)
REMARK    5  A    between atoms: CA   and  CB  
REMARK    6  A    between atoms: CB   and  CG  
REMARK    7  A    between atoms: CG   and  CD  
REMARK    8  A    between atoms: CD   and  CE  
ROOT
ATOM      7  CA  LYS A 135      33.193  34.663   9.290  1.00 25.02     0.186 C 
ENDROOT
BRANCH   7   8
ATOM      8  CB  LYS A 135      32.060  35.360  10.034  1.00 26.63     0.034 C 
BRANCH   8   9
ATOM      9  CG  LYS A 135      30.753  34.611   9.980  1.00 29.45     0.005 C 
BRANCH   9  10
ATOM     10  CD  LYS A 135      30.090  34.786   8.623  1.00 32.00     0.041 C 
BRANCH  10  11
ATOM     11  CE  LYS A 135      28.650  34.311   8.669  1.00 34.25     0.338 C 
ATOM     12  NZ  LYS A 135      28.204  34.087  10.072  1.00 35.99     0.618 N 
ENDBRANCH  10  11
ENDBRANCH   9  10
ENDBRANCH   8   9
ENDBRANCH   7   8
END_RES LYS A 135
