REMARK VINA RESULT:    -5.419      2.256      3.743
REMARK INTER + INTRA:         -17.419
REMARK INTER:                 -10.614
REMARK INTRA:                  -6.806
REMARK UNBOUND:                -6.299
REMARK SMILES CC(=O)N[C@@H]1[C@@H](O)C[C@](O)(C(=O)O)O[C@H]1C(O)[C@H](O)CNC(=O)OCc1cn(C[C@@H](C(=O)O)C(c2ccccc2)c2ccccc2)nn1
REMARK SMILES IDX 21 1 22 2 23 3 20 5 18 6 16 7 15 8 9 9 8 10 14 11 6 12 5 13
REMARK SMILES IDX 10 14 11 16 12 17 13 18 7 20 4 22 2 23 1 25 3 26 17 27 19 29
REMARK SMILES IDX 24 31 25 32 26 33 27 34 48 35 28 36 47 37 29 38 30 39 31 40
REMARK SMILES IDX 32 41 33 42 34 44 35 45 36 46 40 47 37 48 39 49 38 50 41 51
REMARK SMILES IDX 42 52 46 53 43 54 45 55 44 56
REMARK H PARENT 21 4 10 15 13 19 7 21 4 24 17 28 19 30 33 43
REMARK Flexibility Score: inf
ROOT
ATOM      1  N   UNL     1      29.146  32.701  15.052  1.00  0.00    -0.319 N 
ATOM      2  C   UNL     1      30.516  33.058  15.152  1.00  0.00     0.407 C 
ATOM      3  O   UNL     1      31.204  32.633  16.126  1.00  0.00    -0.225 OA
ATOM      4  H   UNL     1      28.640  33.098  14.207  1.00  0.00     0.167 HD
ENDROOT
BRANCH   1   5
ATOM      5  C   UNL     1      28.469  31.862  16.012  1.00  0.00     0.154 C 
BRANCH   5   6
ATOM      6  C   UNL     1      27.485  32.645  16.882  1.00  0.00     0.165 C 
BRANCH   6   7
ATOM      7  C   UNL     1      26.219  31.844  16.909  1.00  0.00     0.176 C 
BRANCH   7   8
ATOM      8  C   UNL     1      25.645  31.588  15.545  1.00  0.00     0.178 C 
ATOM      9  C   UNL     1      24.264  32.606  13.986  1.00  0.00     0.269 C 
ATOM     10  C   UNL     1      24.371  31.315  13.215  1.00  0.00     0.112 C 
ATOM     11  O   UNL     1      25.170  32.748  15.000  1.00  0.00    -0.332 OA
ATOM     12  C   UNL     1      24.391  30.106  14.087  1.00  0.00     0.145 C 
ATOM     13  C   UNL     1      24.557  30.539  15.543  1.00  0.00     0.142 C 
BRANCH   9  14
ATOM     14  O   UNL     1      22.953  32.707  14.462  1.00  0.00    -0.357 OA
ATOM     15  H   UNL     1      22.792  33.597  14.876  1.00  0.00     0.214 HD
ENDBRANCH   9  14
BRANCH   9  16
ATOM     16  C   UNL     1      24.479  33.708  13.016  1.00  0.00     0.364 C 
ATOM     17  O   UNL     1      23.639  34.636  12.946  1.00  0.00    -0.246 OA
BRANCH  16  18
ATOM     18  O   UNL     1      25.580  33.743  12.187  1.00  0.00    -0.477 OA
ATOM     19  H   UNL     1      25.470  33.531  11.186  1.00  0.00     0.296 HD
ENDBRANCH  16  18
ENDBRANCH   9  16
BRANCH  12  20
ATOM     20  O   UNL     1      23.339  29.242  13.912  1.00  0.00    -0.391 OA
ATOM     21  H   UNL     1      22.547  29.716  13.549  1.00  0.00     0.211 HD
ENDBRANCH  12  20
BRANCH  13  22
ATOM     22  N   UNL     1      24.931  29.392  16.358  1.00  0.00    -0.348 N 
ATOM     23  C   UNL     1      23.923  28.736  17.103  1.00  0.00     0.217 C 
ATOM     24  H   UNL     1      25.916  29.087  16.374  1.00  0.00     0.163 HD
ATOM     25  C   UNL     1      24.245  27.566  17.948  1.00  0.00     0.114 C 
ATOM     26  O   UNL     1      22.734  29.138  17.058  1.00  0.00    -0.275 OA
ENDBRANCH  13  22
ENDBRANCH   7   8
BRANCH   7  27
ATOM     27  O   UNL     1      25.317  32.391  17.796  1.00  0.00    -0.388 OA
ATOM     28  H   UNL     1      24.374  32.115  17.614  1.00  0.00     0.211 HD
ENDBRANCH   7  27
ENDBRANCH   6   7
BRANCH   6  29
ATOM     29  O   UNL     1      27.290  33.874  16.228  1.00  0.00    -0.388 OA
ATOM     30  H   UNL     1      27.691  34.552  16.849  1.00  0.00     0.211 HD
ENDBRANCH   6  29
ENDBRANCH   5   6
ENDBRANCH   1   5
BRANCH   2  31
ATOM     31  O   UNL     1      31.120  33.862  14.207  1.00  0.00    -0.443 OA
BRANCH  31  32
ATOM     32  C   UNL     1      30.861  35.271  14.147  1.00  0.00     0.294 C 
BRANCH  32  33
ATOM     33  C   UNL     1      29.674  35.549  13.309  1.00  0.00     0.120 A 
ATOM     34  C   UNL     1      29.614  36.506  12.284  1.00  0.00     0.138 A 
ATOM     35  N   UNL     1      28.454  35.001  13.318  1.00  0.00    -0.132 NA
ATOM     36  N   UNL     1      28.404  36.504  11.725  1.00  0.00    -0.251 N 
ATOM     37  N   UNL     1      27.700  35.558  12.386  1.00  0.00    -0.067 NA
BRANCH  36  38
ATOM     38  C   UNL     1      27.814  37.246  10.647  1.00  0.00     0.162 C 
BRANCH  38  39
ATOM     39  C   UNL     1      26.330  37.165  10.514  1.00  0.00     0.132 C 
BRANCH  39  40
ATOM     40  C   UNL     1      25.655  37.892  11.590  1.00  0.00     0.309 C 
ATOM     41  O   UNL     1      25.472  39.120  11.641  1.00  0.00    -0.252 OA
BRANCH  40  42
ATOM     42  O   UNL     1      25.148  37.176  12.696  1.00  0.00    -0.481 OA
ATOM     43  H   UNL     1      24.384  37.588  13.238  1.00  0.00     0.296 HD
ENDBRANCH  40  42
ENDBRANCH  39  40
BRANCH  39  44
ATOM     44  C   UNL     1      25.859  37.604   9.139  1.00  0.00     0.065 C 
BRANCH  44  45
ATOM     45  C   UNL     1      24.521  37.052   8.820  1.00  0.00    -0.040 A 
ATOM     46  C   UNL     1      24.040  35.898   9.450  1.00  0.00     0.004 A 
ATOM     47  C   UNL     1      23.686  37.644   7.892  1.00  0.00     0.004 A 
ATOM     48  C   UNL     1      22.797  35.385   9.154  1.00  0.00     0.000 A 
ATOM     49  C   UNL     1      22.446  37.146   7.587  1.00  0.00     0.000 A 
ATOM     50  C   UNL     1      21.984  36.015   8.210  1.00  0.00     0.000 A 
ENDBRANCH  44  45
BRANCH  44  51
ATOM     51  C   UNL     1      26.783  37.253   8.056  1.00  0.00    -0.040 A 
ATOM     52  C   UNL     1      27.613  38.266   7.559  1.00  0.00     0.004 A 
ATOM     53  C   UNL     1      26.880  35.994   7.505  1.00  0.00     0.004 A 
ATOM     54  C   UNL     1      28.495  37.976   6.544  1.00  0.00     0.000 A 
ATOM     55  C   UNL     1      27.761  35.701   6.489  1.00  0.00     0.000 A 
ATOM     56  C   UNL     1      28.590  36.700   5.989  1.00  0.00     0.000 A 
ENDBRANCH  44  51
ENDBRANCH  39  44
ENDBRANCH  38  39
ENDBRANCH  36  38
ENDBRANCH  32  33
ENDBRANCH  31  32
ENDBRANCH   2  31
TORSDOF 21
BEGIN_RES LYS A 131
REMARK  4 active torsions:
REMARK  status: ('A' for Active; 'I' for Inactive)
REMARK    1  A    between atoms: CA   and  CB  
REMARK    2  A    between atoms: CB   and  CG  
REMARK    3  A    between atoms: CG   and  CD  
REMARK    4  A    between atoms: CD   and  CE  
ROOT
ATOM      1  CA  LYS A 131      29.867  25.555  16.977  1.00 20.52     0.186 C 
ENDROOT
BRANCH   1   2
ATOM      2  CB  LYS A 131      28.345  25.722  17.026  1.00 20.94     0.034 C 
BRANCH   2   3
ATOM      3  CG  LYS A 131      27.602  24.397  16.943  1.00 22.96     0.005 C 
BRANCH   3   4
ATOM      4  CD  LYS A 131      26.119  24.567  17.122  1.00 24.33     0.041 C 
BRANCH   4   5
ATOM      5  CE  LYS A 131      25.527  23.290  17.709  1.00 26.91     0.338 C 
ATOM      6  NZ  LYS A 131      25.693  23.271  19.182  1.00 27.40     0.618 N 
ENDBRANCH   4   5
ENDBRANCH   3   4
ENDBRANCH   2   3
ENDBRANCH   1   2
END_RES LYS A 131
BEGIN_RES LYS A 135
REMARK  4 active torsions:
REMARK  status: ('A' for Active; 'I' for Inactive)
REMARK    5  A    between atoms: CA   and  CB  
REMARK    6  A    between atoms: CB   and  CG  
REMARK    7  A    between atoms: CG   and  CD  
REMARK    8  A    between atoms: CD   and  CE  
ROOT
ATOM      7  CA  LYS A 135      33.193  34.663   9.290  1.00 25.02     0.186 C 
ENDROOT
BRANCH   7   8
ATOM      8  CB  LYS A 135      32.060  35.360  10.034  1.00 26.63     0.034 C 
BRANCH   8   9
ATOM      9  CG  LYS A 135      30.898  35.732   9.150  1.00 29.45     0.005 C 
BRANCH   9  10
ATOM     10  CD  LYS A 135      30.213  34.485   8.611  1.00 32.00     0.041 C 
BRANCH  10  11
ATOM     11  CE  LYS A 135      29.543  33.717   9.735  1.00 34.25     0.338 C 
ATOM     12  NZ  LYS A 135      28.067  33.669   9.546  1.00 35.99     0.618 N 
ENDBRANCH  10  11
ENDBRANCH   9  10
ENDBRANCH   8   9
ENDBRANCH   7   8
END_RES LYS A 135
