REMARK VINA RESULT:    -4.100      7.101     12.892
REMARK INTER + INTRA:         -14.556
REMARK INTER:                 -10.471
REMARK INTRA:                  -4.084
REMARK UNBOUND:                -6.980
REMARK SMILES CC(=O)N[C@@H]1[C@@H](O)C[C@](O)(C(=O)O)O[C@H]1C(O)[C@H](O)CNC(=O)OCc1cn(Cc2ccc(C#N)cc2)nn1
REMARK SMILES IDX 21 1 22 2 23 3 20 5 18 6 16 7 15 8 9 9 8 10 14 11 6 12 5 13
REMARK SMILES IDX 10 14 11 16 12 17 13 18 7 20 4 22 2 23 1 25 3 26 17 27 19 29
REMARK SMILES IDX 24 31 25 32 26 33 27 34 39 35 28 36 38 37 29 38 30 39 31 40
REMARK SMILES IDX 37 41 32 42 36 43 33 44 34 45 35 46
REMARK H PARENT 21 4 10 15 13 19 7 21 4 24 17 28 19 30
REMARK Flexibility Score: inf
ROOT
ATOM      1  N   UNL     1      22.865  34.896  12.839  1.00  0.00    -0.319 N 
ATOM      2  C   UNL     1      23.388  36.106  13.382  1.00  0.00     0.407 C 
ATOM      3  O   UNL     1      22.579  36.960  13.889  1.00  0.00    -0.225 OA
ATOM      4  H   UNL     1      23.540  34.219  12.438  1.00  0.00     0.167 HD
ENDROOT
BRANCH   1   5
ATOM      5  C   UNL     1      21.467  34.663  12.867  1.00  0.00     0.154 C 
BRANCH   5   6
ATOM      6  C   UNL     1      20.817  34.330  11.545  1.00  0.00     0.165 C 
BRANCH   6   7
ATOM      7  C   UNL     1      21.075  35.368  10.473  1.00  0.00     0.176 C 
BRANCH   7   8
ATOM      8  C   UNL     1      19.888  35.613   9.605  1.00  0.00     0.178 C 
ATOM      9  C   UNL     1      18.550  34.571   8.010  1.00  0.00     0.269 C 
ATOM     10  C   UNL     1      17.774  35.865   8.107  1.00  0.00     0.112 C 
ATOM     11  O   UNL     1      19.483  34.421   8.992  1.00  0.00    -0.332 OA
ATOM     12  C   UNL     1      18.645  37.072   8.111  1.00  0.00     0.145 C 
ATOM     13  C   UNL     1      20.061  36.623   8.515  1.00  0.00     0.142 C 
BRANCH   9  14
ATOM     14  O   UNL     1      19.113  34.489   6.718  1.00  0.00    -0.357 OA
ATOM     15  H   UNL     1      19.539  35.374   6.522  1.00  0.00     0.214 HD
ENDBRANCH   9  14
BRANCH   9  16
ATOM     16  C   UNL     1      17.567  33.474   8.128  1.00  0.00     0.364 C 
ATOM     17  O   UNL     1      16.543  33.639   8.828  1.00  0.00    -0.246 OA
BRANCH  16  18
ATOM     18  O   UNL     1      17.770  32.282   7.475  1.00  0.00    -0.477 OA
ATOM     19  H   UNL     1      18.561  31.676   7.607  1.00  0.00     0.296 HD
ENDBRANCH  16  18
ENDBRANCH   9  16
BRANCH  12  20
ATOM     20  O   UNL     1      18.667  37.762   6.916  1.00  0.00    -0.391 OA
ATOM     21  H   UNL     1      17.945  37.367   6.338  1.00  0.00     0.211 HD
ENDBRANCH  12  20
BRANCH  13  22
ATOM     22  N   UNL     1      20.877  37.755   8.826  1.00  0.00    -0.348 N 
ATOM     23  C   UNL     1      22.135  37.970   8.165  1.00  0.00     0.217 C 
ATOM     24  H   UNL     1      20.592  38.483   9.541  1.00  0.00     0.163 HD
ATOM     25  C   UNL     1      22.979  39.157   8.498  1.00  0.00     0.114 C 
ATOM     26  O   UNL     1      22.551  37.167   7.296  1.00  0.00    -0.275 OA
ENDBRANCH  13  22
ENDBRANCH   7   8
BRANCH   7  27
ATOM     27  O   UNL     1      22.237  35.105   9.822  1.00  0.00    -0.388 OA
ATOM     28  H   UNL     1      23.003  34.915  10.366  1.00  0.00     0.211 HD
ENDBRANCH   7  27
ENDBRANCH   6   7
BRANCH   6  29
ATOM     29  O   UNL     1      19.429  34.307  11.840  1.00  0.00    -0.388 OA
ATOM     30  H   UNL     1      18.939  33.710  11.246  1.00  0.00     0.211 HD
ENDBRANCH   6  29
ENDBRANCH   5   6
ENDBRANCH   1   5
BRANCH   2  31
ATOM     31  O   UNL     1      24.729  36.440  13.408  1.00  0.00    -0.443 OA
BRANCH  31  32
ATOM     32  C   UNL     1      25.666  35.465  13.810  1.00  0.00     0.294 C 
BRANCH  32  33
ATOM     33  C   UNL     1      26.609  35.118  12.721  1.00  0.00     0.120 A 
ATOM     34  C   UNL     1      26.330  34.507  11.509  1.00  0.00     0.138 A 
ATOM     35  N   UNL     1      27.928  35.347  12.727  1.00  0.00    -0.132 NA
ATOM     36  N   UNL     1      27.473  34.388  10.828  1.00  0.00    -0.248 N 
ATOM     37  N   UNL     1      28.416  34.902  11.588  1.00  0.00    -0.067 NA
BRANCH  36  38
ATOM     38  C   UNL     1      27.658  33.818   9.512  1.00  0.00     0.181 C 
BRANCH  38  39
ATOM     39  C   UNL     1      27.699  34.807   8.435  1.00  0.00    -0.026 A 
ATOM     40  C   UNL     1      26.610  35.602   8.190  1.00  0.00     0.007 A 
ATOM     41  C   UNL     1      28.840  34.937   7.658  1.00  0.00     0.007 A 
ATOM     42  C   UNL     1      26.631  36.538   7.173  1.00  0.00     0.020 A 
ATOM     43  C   UNL     1      28.888  35.869   6.630  1.00  0.00     0.020 A 
ATOM     44  C   UNL     1      27.766  36.667   6.400  1.00  0.00     0.052 A 
BRANCH  44  45
ATOM     45  C   UNL     1      27.799  37.632   5.341  1.00  0.00     0.099 C 
ATOM     46  N   UNL     1      27.825  38.434   4.487  1.00  0.00    -0.192 NA
ENDBRANCH  44  45
ENDBRANCH  38  39
ENDBRANCH  36  38
ENDBRANCH  32  33
ENDBRANCH  31  32
ENDBRANCH   2  31
TORSDOF 17
BEGIN_RES LYS A 131
REMARK  4 active torsions:
REMARK  status: ('A' for Active; 'I' for Inactive)
REMARK    1  A    between atoms: CA   and  CB  
REMARK    2  A    between atoms: CB   and  CG  
REMARK    3  A    between atoms: CG   and  CD  
REMARK    4  A    between atoms: CD   and  CE  
ROOT
ATOM      1  CA  LYS A 131      29.867  25.555  16.977  1.00 20.52     0.186 C 
ENDROOT
BRANCH   1   2
ATOM      2  CB  LYS A 131      28.345  25.722  17.026  1.00 20.94     0.034 C 
BRANCH   2   3
ATOM      3  CG  LYS A 131      27.601  24.402  16.892  1.00 22.96     0.005 C 
BRANCH   3   4
ATOM      4  CD  LYS A 131      26.168  24.512  17.334  1.00 24.33     0.041 C 
BRANCH   4   5
ATOM      5  CE  LYS A 131      25.819  23.328  18.229  1.00 26.91     0.338 C 
ATOM      6  NZ  LYS A 131      25.417  23.796  19.576  1.00 27.40     0.618 N 
ENDBRANCH   4   5
ENDBRANCH   3   4
ENDBRANCH   2   3
ENDBRANCH   1   2
END_RES LYS A 131
BEGIN_RES LYS A 135
REMARK  4 active torsions:
REMARK  status: ('A' for Active; 'I' for Inactive)
REMARK    5  A    between atoms: CA   and  CB  
REMARK    6  A    between atoms: CB   and  CG  
REMARK    7  A    between atoms: CG   and  CD  
REMARK    8  A    between atoms: CD   and  CE  
ROOT
ATOM      7  CA  LYS A 135      33.193  34.663   9.290  1.00 25.02     0.186 C 
ENDROOT
BRANCH   7   8
ATOM      8  CB  LYS A 135      32.060  35.360  10.034  1.00 26.63     0.034 C 
BRANCH   8   9
ATOM      9  CG  LYS A 135      32.481  35.954  11.353  1.00 29.45     0.005 C 
BRANCH   9  10
ATOM     10  CD  LYS A 135      31.904  37.351  11.522  1.00 32.00     0.041 C 
BRANCH  10  11
ATOM     11  CE  LYS A 135      31.400  37.551  12.939  1.00 34.25     0.338 C 
ATOM     12  NZ  LYS A 135      30.840  38.919  13.120  1.00 35.99     0.618 N 
ENDBRANCH  10  11
ENDBRANCH   9  10
ENDBRANCH   8   9
ENDBRANCH   7   8
END_RES LYS A 135
