REMARK VINA RESULT:    -5.436      2.517      4.070
REMARK INTER + INTRA:         -17.455
REMARK INTER:                 -10.160
REMARK INTRA:                  -7.295
REMARK UNBOUND:                -6.299
REMARK SMILES CC(=O)N[C@@H]1[C@@H](O)C[C@](O)(C(=O)O)O[C@H]1C(O)[C@H](O)CNC(=O)OCc1cn(C[C@@H](C(=O)O)C(c2ccccc2)c2ccccc2)nn1
REMARK SMILES IDX 21 1 22 2 23 3 20 5 18 6 16 7 15 8 9 9 8 10 14 11 6 12 5 13
REMARK SMILES IDX 10 14 11 16 12 17 13 18 7 20 4 22 2 23 1 25 3 26 17 27 19 29
REMARK SMILES IDX 24 31 25 32 26 33 27 34 48 35 28 36 47 37 29 38 30 39 31 40
REMARK SMILES IDX 32 41 33 42 34 44 35 45 36 46 40 47 37 48 39 49 38 50 41 51
REMARK SMILES IDX 42 52 46 53 43 54 45 55 44 56
REMARK H PARENT 21 4 10 15 13 19 7 21 4 24 17 28 19 30 33 43
REMARK Flexibility Score: inf
ROOT
ATOM      1  N   UNL     1      30.594  31.802  19.587  1.00  0.00    -0.319 N 
ATOM      2  C   UNL     1      31.056  33.096  19.234  1.00  0.00     0.407 C 
ATOM      3  O   UNL     1      31.965  33.646  19.923  1.00  0.00    -0.225 OA
ATOM      4  H   UNL     1      29.830  31.412  18.960  1.00  0.00     0.167 HD
ENDROOT
BRANCH   1   5
ATOM      5  C   UNL     1      31.107  31.050  20.707  1.00  0.00     0.154 C 
BRANCH   5   6
ATOM      6  C   UNL     1      31.065  29.540  20.469  1.00  0.00     0.165 C 
BRANCH   6   7
ATOM      7  C   UNL     1      29.734  29.073  20.975  1.00  0.00     0.176 C 
BRANCH   7   8
ATOM      8  C   UNL     1      28.851  28.504  19.901  1.00  0.00     0.178 C 
ATOM      9  C   UNL     1      27.446  29.218  18.201  1.00  0.00     0.269 C 
ATOM     10  C   UNL     1      27.102  27.762  18.027  1.00  0.00     0.112 C 
ATOM     11  O   UNL     1      28.547  29.462  18.973  1.00  0.00    -0.332 OA
ATOM     12  C   UNL     1      27.029  27.013  19.313  1.00  0.00     0.145 C 
ATOM     13  C   UNL     1      27.580  27.890  20.437  1.00  0.00     0.142 C 
BRANCH   9  14
ATOM     14  O   UNL     1      26.316  29.861  18.717  1.00  0.00    -0.357 OA
ATOM     15  H   UNL     1      25.733  30.200  17.985  1.00  0.00     0.214 HD
ENDBRANCH   9  14
BRANCH   9  16
ATOM     16  C   UNL     1      27.700  29.768  16.848  1.00  0.00     0.364 C 
ATOM     17  O   UNL     1      26.741  29.908  16.051  1.00  0.00    -0.246 OA
BRANCH  16  18
ATOM     18  O   UNL     1      28.965  30.133  16.436  1.00  0.00    -0.477 OA
ATOM     19  H   UNL     1      29.777  29.572  16.728  1.00  0.00     0.296 HD
ENDBRANCH  16  18
ENDBRANCH   9  16
BRANCH  12  20
ATOM     20  O   UNL     1      25.797  26.487  19.613  1.00  0.00    -0.391 OA
ATOM     21  H   UNL     1      25.859  25.841  20.364  1.00  0.00     0.211 HD
ENDBRANCH  12  20
BRANCH  13  22
ATOM     22  N   UNL     1      27.845  27.074  21.613  1.00  0.00    -0.348 N 
ATOM     23  C   UNL     1      27.284  27.470  22.850  1.00  0.00     0.217 C 
ATOM     24  H   UNL     1      28.432  26.231  21.517  1.00  0.00     0.163 HD
ATOM     25  C   UNL     1      27.520  26.679  24.077  1.00  0.00     0.114 C 
ATOM     26  O   UNL     1      26.575  28.503  22.927  1.00  0.00    -0.275 OA
ENDBRANCH  13  22
ENDBRANCH   7   8
BRANCH   7  27
ATOM     27  O   UNL     1      29.128  30.058  21.726  1.00  0.00    -0.388 OA
ATOM     28  H   UNL     1      28.149  30.140  21.543  1.00  0.00     0.211 HD
ENDBRANCH   7  27
ENDBRANCH   6   7
BRANCH   6  29
ATOM     29  O   UNL     1      32.113  29.003  21.236  1.00  0.00    -0.388 OA
ATOM     30  H   UNL     1      31.845  29.187  22.185  1.00  0.00     0.211 HD
ENDBRANCH   6  29
ENDBRANCH   5   6
ENDBRANCH   1   5
BRANCH   2  31
ATOM     31  O   UNL     1      30.535  33.776  18.152  1.00  0.00    -0.443 OA
BRANCH  31  32
ATOM     32  C   UNL     1      29.300  34.498  18.245  1.00  0.00     0.294 C 
BRANCH  32  33
ATOM     33  C   UNL     1      28.371  34.088  17.168  1.00  0.00     0.120 A 
ATOM     34  C   UNL     1      27.045  34.525  17.035  1.00  0.00     0.138 A 
ATOM     35  N   UNL     1      28.551  33.261  16.132  1.00  0.00    -0.132 NA
ATOM     36  N   UNL     1      26.485  33.970  15.961  1.00  0.00    -0.251 N 
ATOM     37  N   UNL     1      27.443  33.188  15.415  1.00  0.00    -0.067 NA
BRANCH  36  38
ATOM     38  C   UNL     1      25.188  34.079  15.356  1.00  0.00     0.162 C 
BRANCH  38  39
ATOM     39  C   UNL     1      24.492  32.800  15.030  1.00  0.00     0.132 C 
BRANCH  39  40
ATOM     40  C   UNL     1      23.808  32.249  16.201  1.00  0.00     0.309 C 
ATOM     41  O   UNL     1      22.761  32.686  16.709  1.00  0.00    -0.252 OA
BRANCH  40  42
ATOM     42  O   UNL     1      24.348  31.118  16.848  1.00  0.00    -0.481 OA
ATOM     43  H   UNL     1      24.630  31.202  17.829  1.00  0.00     0.296 HD
ENDBRANCH  40  42
ENDBRANCH  39  40
BRANCH  39  44
ATOM     44  C   UNL     1      23.564  32.946  13.837  1.00  0.00     0.065 C 
BRANCH  44  45
ATOM     45  C   UNL     1      23.160  31.627  13.296  1.00  0.00    -0.040 A 
ATOM     46  C   UNL     1      24.076  30.574  13.187  1.00  0.00     0.004 A 
ATOM     47  C   UNL     1      21.869  31.371  12.877  1.00  0.00     0.004 A 
ATOM     48  C   UNL     1      23.701  29.347  12.686  1.00  0.00     0.000 A 
ATOM     49  C   UNL     1      21.480  30.156  12.376  1.00  0.00     0.000 A 
ATOM     50  C   UNL     1      22.385  29.130  12.273  1.00  0.00     0.000 A 
ENDBRANCH  44  45
BRANCH  44  51
ATOM     51  C   UNL     1      24.125  33.750  12.746  1.00  0.00    -0.040 A 
ATOM     52  C   UNL     1      23.242  34.557  12.016  1.00  0.00     0.004 A 
ATOM     53  C   UNL     1      25.459  33.756  12.402  1.00  0.00     0.004 A 
ATOM     54  C   UNL     1      23.730  35.327  10.986  1.00  0.00     0.000 A 
ATOM     55  C   UNL     1      25.950  34.525  11.371  1.00  0.00     0.000 A 
ATOM     56  C   UNL     1      25.081  35.330  10.641  1.00  0.00     0.000 A 
ENDBRANCH  44  51
ENDBRANCH  39  44
ENDBRANCH  38  39
ENDBRANCH  36  38
ENDBRANCH  32  33
ENDBRANCH  31  32
ENDBRANCH   2  31
TORSDOF 21
BEGIN_RES LYS A 131
REMARK  4 active torsions:
REMARK  status: ('A' for Active; 'I' for Inactive)
REMARK    1  A    between atoms: CA   and  CB  
REMARK    2  A    between atoms: CB   and  CG  
REMARK    3  A    between atoms: CG   and  CD  
REMARK    4  A    between atoms: CD   and  CE  
ROOT
ATOM      1  CA  LYS A 131      29.867  25.555  16.977  1.00 20.52     0.186 C 
ENDROOT
BRANCH   1   2
ATOM      2  CB  LYS A 131      28.345  25.722  17.026  1.00 20.94     0.034 C 
BRANCH   2   3
ATOM      3  CG  LYS A 131      27.599  24.485  16.549  1.00 22.96     0.005 C 
BRANCH   3   4
ATOM      4  CD  LYS A 131      27.007  23.706  17.690  1.00 24.33     0.041 C 
BRANCH   4   5
ATOM      5  CE  LYS A 131      25.489  23.665  17.545  1.00 26.91     0.338 C 
ATOM      6  NZ  LYS A 131      24.995  22.272  17.645  1.00 27.40     0.618 N 
ENDBRANCH   4   5
ENDBRANCH   3   4
ENDBRANCH   2   3
ENDBRANCH   1   2
END_RES LYS A 131
BEGIN_RES LYS A 135
REMARK  4 active torsions:
REMARK  status: ('A' for Active; 'I' for Inactive)
REMARK    5  A    between atoms: CA   and  CB  
REMARK    6  A    between atoms: CB   and  CG  
REMARK    7  A    between atoms: CG   and  CD  
REMARK    8  A    between atoms: CD   and  CE  
ROOT
ATOM      7  CA  LYS A 135      33.193  34.663   9.290  1.00 25.02     0.186 C 
ENDROOT
BRANCH   7   8
ATOM      8  CB  LYS A 135      32.060  35.360  10.034  1.00 26.63     0.034 C 
BRANCH   8   9
ATOM      9  CG  LYS A 135      30.796  35.488   9.224  1.00 29.45     0.005 C 
BRANCH   9  10
ATOM     10  CD  LYS A 135      30.230  34.116   8.892  1.00 32.00     0.041 C 
BRANCH  10  11
ATOM     11  CE  LYS A 135      28.724  34.102   9.073  1.00 34.25     0.338 C 
ATOM     12  NZ  LYS A 135      28.046  34.855   7.982  1.00 35.99     0.618 N 
ENDBRANCH  10  11
ENDBRANCH   9  10
ENDBRANCH   8   9
ENDBRANCH   7   8
END_RES LYS A 135
