REMARK VINA RESULT:    -3.713      2.696      4.943
REMARK INTER + INTRA:         -14.426
REMARK INTER:                  -6.861
REMARK INTRA:                  -7.565
REMARK UNBOUND:                -7.565
REMARK SMILES CC(=O)N[C@@H]1[C@@H](O)C[C@](O)(C(=O)O)O[C@H]1C(O)[C@H](O)CNC(=O)OCc1cn(CC(=O)Nc2ncccn2)nn1
REMARK SMILES IDX 21 1 22 2 23 3 20 5 18 6 16 7 15 8 9 9 8 10 14 11 6 12 5 13
REMARK SMILES IDX 10 14 11 16 12 17 13 18 7 20 4 22 2 23 1 25 3 26 17 27 19 29
REMARK SMILES IDX 24 31 25 32 26 33 27 34 40 35 28 36 39 37 29 38 30 39 31 40
REMARK SMILES IDX 32 41 33 43 34 44 38 45 35 46 37 47 36 48
REMARK H PARENT 21 4 10 15 13 19 7 21 4 24 17 28 19 30 32 42
REMARK Flexibility Score: inf
ROOT
ATOM      1  N   UNL     1      24.944  35.327  15.803  1.00  0.00    -0.319 N 
ATOM      2  C   UNL     1      23.783  36.084  15.426  1.00  0.00     0.407 C 
ATOM      3  O   UNL     1      23.049  35.714  14.477  1.00  0.00    -0.225 OA
ATOM      4  H   UNL     1      25.536  35.647  16.587  1.00  0.00     0.167 HD
ENDROOT
BRANCH   1   5
ATOM      5  C   UNL     1      25.235  34.133  15.057  1.00  0.00     0.154 C 
BRANCH   5   6
ATOM      6  C   UNL     1      26.625  34.115  14.471  1.00  0.00     0.165 C 
BRANCH   6   7
ATOM      7  C   UNL     1      27.526  33.439  15.477  1.00  0.00     0.176 C 
BRANCH   7   8
ATOM      8  C   UNL     1      28.964  33.950  15.362  1.00  0.00     0.178 C 
ATOM      9  C   UNL     1      30.525  34.644  13.885  1.00  0.00     0.269 C 
ATOM     10  C   UNL     1      31.591  34.200  14.820  1.00  0.00     0.112 C 
ATOM     11  O   UNL     1      29.374  33.928  14.051  1.00  0.00    -0.332 OA
ATOM     12  C   UNL     1      31.255  33.001  15.674  1.00  0.00     0.145 C 
ATOM     13  C   UNL     1      29.848  33.040  16.199  1.00  0.00     0.142 C 
BRANCH   9  14
ATOM     14  O   UNL     1      30.942  34.348  12.543  1.00  0.00    -0.357 OA
ATOM     15  H   UNL     1      31.382  35.159  12.167  1.00  0.00     0.214 HD
ENDBRANCH   9  14
BRANCH   9  16
ATOM     16  C   UNL     1      30.341  36.124  13.898  1.00  0.00     0.364 C 
ATOM     17  O   UNL     1      30.979  36.836  14.675  1.00  0.00    -0.246 OA
BRANCH  16  18
ATOM     18  O   UNL     1      29.443  36.757  13.034  1.00  0.00    -0.477 OA
ATOM     19  H   UNL     1      29.482  37.744  12.853  1.00  0.00     0.296 HD
ENDBRANCH  16  18
ENDBRANCH   9  16
BRANCH  12  20
ATOM     20  O   UNL     1      31.474  31.870  14.885  1.00  0.00    -0.391 OA
ATOM     21  H   UNL     1      32.321  31.404  15.135  1.00  0.00     0.211 HD
ENDBRANCH  12  20
BRANCH  13  22
ATOM     22  N   UNL     1      29.724  33.407  17.566  1.00  0.00    -0.348 N 
ATOM     23  C   UNL     1      29.779  32.504  18.659  1.00  0.00     0.217 C 
ATOM     24  H   UNL     1      29.577  34.415  17.818  1.00  0.00     0.163 HD
ATOM     25  C   UNL     1      29.636  32.961  20.076  1.00  0.00     0.114 C 
ATOM     26  O   UNL     1      29.953  31.300  18.403  1.00  0.00    -0.275 OA
ENDBRANCH  13  22
ENDBRANCH   7   8
BRANCH   7  27
ATOM     27  O   UNL     1      27.059  33.581  16.769  1.00  0.00    -0.388 OA
ATOM     28  H   UNL     1      27.851  33.566  17.389  1.00  0.00     0.211 HD
ENDBRANCH   7  27
ENDBRANCH   6   7
BRANCH   6  29
ATOM     29  O   UNL     1      27.007  35.436  14.245  1.00  0.00    -0.388 OA
ATOM     30  H   UNL     1      26.708  35.963  15.034  1.00  0.00     0.211 HD
ENDBRANCH   6  29
ENDBRANCH   5   6
ENDBRANCH   1   5
BRANCH   2  31
ATOM     31  O   UNL     1      23.438  37.239  16.090  1.00  0.00    -0.443 OA
BRANCH  31  32
ATOM     32  C   UNL     1      24.319  38.208  16.576  1.00  0.00     0.294 C 
BRANCH  32  33
ATOM     33  C   UNL     1      25.423  38.423  15.617  1.00  0.00     0.120 A 
ATOM     34  C   UNL     1      25.395  39.066  14.397  1.00  0.00     0.138 A 
ATOM     35  N   UNL     1      26.686  38.008  15.805  1.00  0.00    -0.132 NA
ATOM     36  N   UNL     1      26.628  39.018  13.897  1.00  0.00    -0.243 N 
ATOM     37  N   UNL     1      27.383  38.374  14.769  1.00  0.00    -0.067 NA
BRANCH  36  38
ATOM     38  C   UNL     1      27.027  39.601  12.612  1.00  0.00     0.246 C 
BRANCH  38  39
ATOM     39  C   UNL     1      27.287  38.513  11.623  1.00  0.00     0.248 C 
ATOM     40  O   UNL     1      28.097  38.600  10.685  1.00  0.00    -0.272 OA
ATOM     41  N   UNL     1      26.555  37.291  11.769  1.00  0.00    -0.293 N 
ATOM     42  H   UNL     1      25.866  37.190  12.549  1.00  0.00     0.173 HD
BRANCH  41  43
ATOM     43  C   UNL     1      26.736  36.201  10.886  1.00  0.00     0.229 A 
ATOM     44  N   UNL     1      27.600  35.194  11.117  1.00  0.00    -0.221 NA
ATOM     45  N   UNL     1      26.024  36.132   9.744  1.00  0.00    -0.221 NA
ATOM     46  C   UNL     1      27.751  34.167  10.258  1.00  0.00     0.117 A 
ATOM     47  C   UNL     1      26.126  35.146   8.857  1.00  0.00     0.117 A 
ATOM     48  C   UNL     1      27.012  34.114   9.094  1.00  0.00     0.040 A 
ENDBRANCH  41  43
ENDBRANCH  38  39
ENDBRANCH  36  38
ENDBRANCH  32  33
ENDBRANCH  31  32
ENDBRANCH   2  31
TORSDOF 17
BEGIN_RES LYS A 131
REMARK  4 active torsions:
REMARK  status: ('A' for Active; 'I' for Inactive)
REMARK    1  A    between atoms: CA   and  CB  
REMARK    2  A    between atoms: CB   and  CG  
REMARK    3  A    between atoms: CG   and  CD  
REMARK    4  A    between atoms: CD   and  CE  
ROOT
ATOM      1  CA  LYS A 131      29.867  25.555  16.977  1.00 20.52     0.186 C 
ENDROOT
BRANCH   1   2
ATOM      2  CB  LYS A 131      28.345  25.722  17.026  1.00 20.94     0.034 C 
BRANCH   2   3
ATOM      3  CG  LYS A 131      27.601  24.402  16.889  1.00 22.96     0.005 C 
BRANCH   3   4
ATOM      4  CD  LYS A 131      26.609  24.194  18.000  1.00 24.33     0.041 C 
BRANCH   4   5
ATOM      5  CE  LYS A 131      25.249  23.840  17.407  1.00 26.91     0.338 C 
ATOM      6  NZ  LYS A 131      24.431  25.062  17.220  1.00 27.40     0.618 N 
ENDBRANCH   4   5
ENDBRANCH   3   4
ENDBRANCH   2   3
ENDBRANCH   1   2
END_RES LYS A 131
BEGIN_RES LYS A 135
REMARK  4 active torsions:
REMARK  status: ('A' for Active; 'I' for Inactive)
REMARK    5  A    between atoms: CA   and  CB  
REMARK    6  A    between atoms: CB   and  CG  
REMARK    7  A    between atoms: CG   and  CD  
REMARK    8  A    between atoms: CD   and  CE  
ROOT
ATOM      7  CA  LYS A 135      33.193  34.663   9.290  1.00 25.02     0.186 C 
ENDROOT
BRANCH   7   8
ATOM      8  CB  LYS A 135      32.060  35.360  10.034  1.00 26.63     0.034 C 
BRANCH   8   9
ATOM      9  CG  LYS A 135      30.765  35.393   9.265  1.00 29.45     0.005 C 
BRANCH   9  10
ATOM     10  CD  LYS A 135      30.395  36.822   8.897  1.00 32.00     0.041 C 
BRANCH  10  11
ATOM     11  CE  LYS A 135      29.286  36.835   7.862  1.00 34.25     0.338 C 
ATOM     12  NZ  LYS A 135      29.310  35.598   7.034  1.00 35.99     0.618 N 
ENDBRANCH  10  11
ENDBRANCH   9  10
ENDBRANCH   8   9
ENDBRANCH   7   8
END_RES LYS A 135
