REMARK VINA RESULT:    -4.015      2.956      8.561
REMARK INTER + INTRA:         -13.603
REMARK INTER:                  -7.671
REMARK INTRA:                  -5.932
REMARK UNBOUND:                -5.949
REMARK SMILES CCOC(=O)Cn1cc(COC(=O)NC[C@@H](O)C(O)[C@@H]2O[C@@](O)(C(=O)O)C[C@H](O)[C@H]2NC(C)=O)nn1
REMARK SMILES IDX 14 1 12 2 13 3 15 5 16 6 18 7 20 8 22 9 27 10 21 11 28 12
REMARK SMILES IDX 30 13 23 14 24 16 25 17 26 18 29 20 31 22 32 23 33 25 34 26
REMARK SMILES IDX 19 27 17 29 11 31 10 32 9 33 8 34 35 35 7 36 36 37 6 38 4 39
REMARK SMILES IDX 5 40 3 41 2 42 1 43
REMARK H PARENT 14 4 23 15 26 19 29 21 31 24 19 28 17 30
REMARK Flexibility Score: inf
ROOT
ATOM      1  N   UNL     1      31.760  33.664  15.612  1.00  0.00    -0.319 N 
ATOM      2  C   UNL     1      32.620  34.724  15.248  1.00  0.00     0.407 C 
ATOM      3  O   UNL     1      32.861  35.675  16.000  1.00  0.00    -0.225 OA
ATOM      4  H   UNL     1      31.660  32.914  14.851  1.00  0.00     0.167 HD
ENDROOT
BRANCH   1   5
ATOM      5  C   UNL     1      31.055  33.529  16.845  1.00  0.00     0.154 C 
BRANCH   5   6
ATOM      6  C   UNL     1      29.705  34.155  16.930  1.00  0.00     0.165 C 
BRANCH   6   7
ATOM      7  C   UNL     1      28.641  33.254  17.446  1.00  0.00     0.176 C 
BRANCH   7   8
ATOM      8  C   UNL     1      28.570  31.887  16.821  1.00  0.00     0.178 C 
ATOM      9  C   UNL     1      26.379  31.339  16.217  1.00  0.00     0.269 C 
ATOM     10  C   UNL     1      26.596  29.842  16.262  1.00  0.00     0.112 C 
ATOM     11  O   UNL     1      27.547  31.948  15.878  1.00  0.00    -0.332 OA
ATOM     12  C   UNL     1      27.798  29.540  17.078  1.00  0.00     0.145 C 
ATOM     13  C   UNL     1      28.363  30.771  17.806  1.00  0.00     0.142 C 
BRANCH   9  14
ATOM     14  O   UNL     1      25.825  31.700  17.431  1.00  0.00    -0.357 OA
ATOM     15  H   UNL     1      26.498  31.532  18.131  1.00  0.00     0.214 HD
ENDBRANCH   9  14
BRANCH   9  16
ATOM     16  C   UNL     1      25.394  31.588  15.140  1.00  0.00     0.364 C 
ATOM     17  O   UNL     1      24.855  32.713  15.069  1.00  0.00    -0.246 OA
BRANCH  16  18
ATOM     18  O   UNL     1      25.062  30.619  14.227  1.00  0.00    -0.477 OA
ATOM     19  H   UNL     1      24.666  29.721  14.505  1.00  0.00     0.296 HD
ENDBRANCH  16  18
ENDBRANCH   9  16
BRANCH  12  20
ATOM     20  O   UNL     1      27.599  28.528  18.013  1.00  0.00    -0.391 OA
ATOM     21  H   UNL     1      26.670  28.434  18.304  1.00  0.00     0.211 HD
ENDBRANCH  12  20
BRANCH  13  22
ATOM     22  N   UNL     1      29.617  30.303  18.357  1.00  0.00    -0.348 N 
ATOM     23  C   UNL     1      29.970  30.332  19.717  1.00  0.00     0.217 C 
ATOM     24  H   UNL     1      30.313  29.911  17.684  1.00  0.00     0.163 HD
ATOM     25  C   UNL     1      31.262  29.847  20.261  1.00  0.00     0.114 C 
ATOM     26  O   UNL     1      29.114  30.810  20.524  1.00  0.00    -0.275 OA
ENDBRANCH  13  22
ENDBRANCH   7   8
BRANCH   7  27
ATOM     27  O   UNL     1      28.635  33.214  18.819  1.00  0.00    -0.388 OA
ATOM     28  H   UNL     1      27.992  33.835  19.246  1.00  0.00     0.211 HD
ENDBRANCH   7  27
ENDBRANCH   6   7
BRANCH   6  29
ATOM     29  O   UNL     1      29.313  34.514  15.624  1.00  0.00    -0.388 OA
ATOM     30  H   UNL     1      29.227  35.510  15.550  1.00  0.00     0.211 HD
ENDBRANCH   6  29
ENDBRANCH   5   6
ENDBRANCH   1   5
BRANCH   2  31
ATOM     31  O   UNL     1      33.251  34.738  13.983  1.00  0.00    -0.443 OA
BRANCH  31  32
ATOM     32  C   UNL     1      32.876  35.676  12.992  1.00  0.00     0.294 C 
BRANCH  32  33
ATOM     33  C   UNL     1      31.406  35.546  12.814  1.00  0.00     0.120 A 
ATOM     34  C   UNL     1      30.474  36.550  12.688  1.00  0.00     0.139 A 
ATOM     35  N   UNL     1      30.683  34.394  12.739  1.00  0.00    -0.132 NA
ATOM     36  N   UNL     1      29.253  35.963  12.546  1.00  0.00    -0.241 N 
ATOM     37  N   UNL     1      29.417  34.652  12.581  1.00  0.00    -0.066 NA
BRANCH  36  38
ATOM     38  C   UNL     1      27.975  36.614  12.381  1.00  0.00     0.268 C 
BRANCH  38  39
ATOM     39  C   UNL     1      26.875  35.638  12.429  1.00  0.00     0.327 C 
ATOM     40  O   UNL     1      26.322  35.395  13.523  1.00  0.00    -0.250 OA
BRANCH  39  41
ATOM     41  O   UNL     1      26.488  35.014  11.243  1.00  0.00    -0.465 OA
BRANCH  41  42
ATOM     42  C   UNL     1      25.153  35.288  10.806  1.00  0.00     0.229 C 
ATOM     43  C   UNL     1      25.200  35.559   9.324  1.00  0.00     0.049 C 
ENDBRANCH  41  42
ENDBRANCH  39  41
ENDBRANCH  38  39
ENDBRANCH  36  38
ENDBRANCH  32  33
ENDBRANCH  31  32
ENDBRANCH   2  31
TORSDOF 18
BEGIN_RES LYS A 131
REMARK  4 active torsions:
REMARK  status: ('A' for Active; 'I' for Inactive)
REMARK    1  A    between atoms: CA   and  CB  
REMARK    2  A    between atoms: CB   and  CG  
REMARK    3  A    between atoms: CG   and  CD  
REMARK    4  A    between atoms: CD   and  CE  
ROOT
ATOM      1  CA  LYS A 131      29.867  25.555  16.977  1.00 20.52     0.186 C 
ENDROOT
BRANCH   1   2
ATOM      2  CB  LYS A 131      28.345  25.722  17.026  1.00 20.94     0.034 C 
BRANCH   2   3
ATOM      3  CG  LYS A 131      27.602  24.400  16.911  1.00 22.96     0.005 C 
BRANCH   3   4
ATOM      4  CD  LYS A 131      26.549  24.247  17.974  1.00 24.33     0.041 C 
BRANCH   4   5
ATOM      5  CE  LYS A 131      25.190  24.027  17.317  1.00 26.91     0.338 C 
ATOM      6  NZ  LYS A 131      24.758  22.619  17.480  1.00 27.40     0.618 N 
ENDBRANCH   4   5
ENDBRANCH   3   4
ENDBRANCH   2   3
ENDBRANCH   1   2
END_RES LYS A 131
BEGIN_RES LYS A 135
REMARK  4 active torsions:
REMARK  status: ('A' for Active; 'I' for Inactive)
REMARK    5  A    between atoms: CA   and  CB  
REMARK    6  A    between atoms: CB   and  CG  
REMARK    7  A    between atoms: CG   and  CD  
REMARK    8  A    between atoms: CD   and  CE  
ROOT
ATOM      7  CA  LYS A 135      33.193  34.663   9.290  1.00 25.02     0.186 C 
ENDROOT
BRANCH   7   8
ATOM      8  CB  LYS A 135      32.060  35.360  10.034  1.00 26.63     0.034 C 
BRANCH   8   9
ATOM      9  CG  LYS A 135      30.816  35.543   9.203  1.00 29.45     0.005 C 
BRANCH   9  10
ATOM     10  CD  LYS A 135      30.109  34.212   8.997  1.00 32.00     0.041 C 
BRANCH  10  11
ATOM     11  CE  LYS A 135      28.694  34.433   8.497  1.00 34.25     0.338 C 
ATOM     12  NZ  LYS A 135      28.686  35.254   7.254  1.00 35.99     0.618 N 
ENDBRANCH  10  11
ENDBRANCH   9  10
ENDBRANCH   8   9
ENDBRANCH   7   8
END_RES LYS A 135
