REMARK VINA RESULT:    -3.532      6.185     11.355
REMARK INTER + INTRA:         -16.578
REMARK INTER:                  -8.281
REMARK INTRA:                  -8.298
REMARK UNBOUND:                -8.298
REMARK SMILES CC(=O)N[C@@H]1[C@@H](O)C[C@](O)(C(=O)O)O[C@H]1C(O)[C@H](O)CNC(=O)OCc1cn(CCCCCCCCCCC(=O)O)nn1
REMARK SMILES IDX 29 1 28 2 26 3 27 4 43 5 42 6 25 7 24 8 22 9 21 10 23 12
REMARK SMILES IDX 20 13 18 14 16 15 15 16 9 17 8 18 14 19 6 20 5 21 10 22
REMARK SMILES IDX 11 24 12 25 13 26 7 28 4 30 2 31 1 33 3 34 17 35 19 37 30 39
REMARK SMILES IDX 31 40 32 41 33 42 34 43 35 44 36 45 37 46 38 47 39 48 40 49
REMARK SMILES IDX 41 50
REMARK H PARENT 21 11 10 23 13 27 7 29 4 32 17 36 19 38 41 51
REMARK Flexibility Score: inf
ROOT
ATOM      1  C   UNL     1      25.339  34.802  14.558  1.00  0.00     0.146 C 
ENDROOT
BRANCH   1   2
ATOM      2  N   UNL     1      24.859  34.964  13.213  1.00  0.00    -0.252 N 
ATOM      3  C   UNL     1      24.646  35.322  11.059  1.00  0.00     0.120 A 
ATOM      4  C   UNL     1      25.551  35.293  12.085  1.00  0.00     0.138 A 
ATOM      5  N   UNL     1      23.437  35.014  11.577  1.00  0.00    -0.132 NA
ATOM      6  N   UNL     1      23.600  34.807  12.856  1.00  0.00    -0.067 NA
BRANCH   3   7
ATOM      7  C   UNL     1      24.966  35.639   9.651  1.00  0.00     0.294 C 
BRANCH   7   8
ATOM      8  O   UNL     1      23.792  35.675   8.869  1.00  0.00    -0.443 OA
BRANCH   8   9
ATOM      9  C   UNL     1      23.102  36.865   8.680  1.00  0.00     0.407 C 
ATOM     10  N   UNL     1      22.988  37.832   9.714  1.00  0.00    -0.319 N 
ATOM     11  H   UNL     1      23.424  37.663  10.645  1.00  0.00     0.167 HD
ATOM     12  O   UNL     1      22.564  37.075   7.539  1.00  0.00    -0.225 OA
BRANCH  10  13
ATOM     13  C   UNL     1      22.269  39.044   9.476  1.00  0.00     0.154 C 
BRANCH  13  14
ATOM     14  C   UNL     1      20.936  39.082  10.193  1.00  0.00     0.165 C 
BRANCH  14  15
ATOM     15  C   UNL     1      19.828  38.768   9.234  1.00  0.00     0.176 C 
BRANCH  15  16
ATOM     16  C   UNL     1      19.313  37.367   9.482  1.00  0.00     0.178 C 
ATOM     17  C   UNL     1      19.989  35.324  10.342  1.00  0.00     0.269 C 
ATOM     18  C   UNL     1      18.871  34.792   9.474  1.00  0.00     0.112 C 
ATOM     19  O   UNL     1      20.330  36.629  10.024  1.00  0.00    -0.332 OA
ATOM     20  C   UNL     1      19.059  35.331   8.083  1.00  0.00     0.145 C 
ATOM     21  C   UNL     1      18.789  36.840   8.170  1.00  0.00     0.142 C 
BRANCH  17  22
ATOM     22  O   UNL     1      21.106  34.536  10.082  1.00  0.00    -0.357 OA
ATOM     23  H   UNL     1      21.887  35.087   9.847  1.00  0.00     0.214 HD
ENDBRANCH  17  22
BRANCH  17  24
ATOM     24  C   UNL     1      19.593  35.149  11.740  1.00  0.00     0.364 C 
ATOM     25  O   UNL     1      18.383  34.975  12.020  1.00  0.00    -0.246 OA
BRANCH  24  26
ATOM     26  O   UNL     1      20.482  35.161  12.808  1.00  0.00    -0.477 OA
ATOM     27  H   UNL     1      20.641  34.281  13.322  1.00  0.00     0.296 HD
ENDBRANCH  24  26
ENDBRANCH  17  24
BRANCH  20  28
ATOM     28  O   UNL     1      20.324  35.059   7.608  1.00  0.00    -0.391 OA
ATOM     29  H   UNL     1      20.885  34.776   8.373  1.00  0.00     0.211 HD
ENDBRANCH  20  28
BRANCH  21  30
ATOM     30  N   UNL     1      17.351  36.983   8.083  1.00  0.00    -0.348 N 
ATOM     31  C   UNL     1      16.822  37.961   7.209  1.00  0.00     0.217 C 
ATOM     32  H   UNL     1      16.696  36.385   8.646  1.00  0.00     0.163 HD
ATOM     33  C   UNL     1      15.342  38.140   7.091  1.00  0.00     0.114 C 
ATOM     34  O   UNL     1      17.586  38.678   6.535  1.00  0.00    -0.275 OA
ENDBRANCH  21  30
ENDBRANCH  15  16
BRANCH  15  35
ATOM     35  O   UNL     1      20.326  38.923   7.936  1.00  0.00    -0.388 OA
ATOM     36  H   UNL     1      20.709  39.802   7.770  1.00  0.00     0.211 HD
ENDBRANCH  15  35
ENDBRANCH  14  15
BRANCH  14  37
ATOM     37  O   UNL     1      20.688  40.340  10.743  1.00  0.00    -0.388 OA
ATOM     38  H   UNL     1      19.732  40.518  10.811  1.00  0.00     0.211 HD
ENDBRANCH  14  37
ENDBRANCH  13  14
ENDBRANCH  10  13
ENDBRANCH   8   9
ENDBRANCH   7   8
ENDBRANCH   3   7
ENDBRANCH   1   2
BRANCH   1  39
ATOM     39  C   UNL     1      25.584  33.339  14.818  1.00  0.00     0.024 C 
BRANCH  39  40
ATOM     40  C   UNL     1      24.496  32.699  15.632  1.00  0.00     0.002 C 
BRANCH  40  41
ATOM     41  C   UNL     1      23.920  31.476  14.964  1.00  0.00     0.000 C 
BRANCH  41  42
ATOM     42  C   UNL     1      24.574  31.283  13.599  1.00  0.00     0.000 C 
BRANCH  42  43
ATOM     43  C   UNL     1      24.094  29.982  13.011  1.00  0.00     0.000 C 
BRANCH  43  44
ATOM     44  C   UNL     1      23.318  29.175  14.011  1.00  0.00     0.000 C 
BRANCH  44  45
ATOM     45  C   UNL     1      21.974  28.816  13.470  1.00  0.00     0.001 C 
BRANCH  45  46
ATOM     46  C   UNL     1      21.676  29.588  12.188  1.00  0.00     0.012 C 
BRANCH  46  47
ATOM     47  C   UNL     1      20.420  30.411  12.300  1.00  0.00     0.122 C 
BRANCH  47  48
ATOM     48  C   UNL     1      20.837  31.753  12.815  1.00  0.00     0.303 C 
ATOM     49  O   UNL     1      20.431  32.232  13.894  1.00  0.00    -0.252 OA
BRANCH  48  50
ATOM     50  O   UNL     1      21.726  32.521  12.061  1.00  0.00    -0.481 OA
ATOM     51  H   UNL     1      22.583  32.831  12.487  1.00  0.00     0.296 HD
ENDBRANCH  48  50
ENDBRANCH  47  48
ENDBRANCH  46  47
ENDBRANCH  45  46
ENDBRANCH  44  45
ENDBRANCH  43  44
ENDBRANCH  42  43
ENDBRANCH  41  42
ENDBRANCH  40  41
ENDBRANCH  39  40
ENDBRANCH   1  39
TORSDOF 26
BEGIN_RES LYS A 131
REMARK  4 active torsions:
REMARK  status: ('A' for Active; 'I' for Inactive)
REMARK    1  A    between atoms: CA   and  CB  
REMARK    2  A    between atoms: CB   and  CG  
REMARK    3  A    between atoms: CG   and  CD  
REMARK    4  A    between atoms: CD   and  CE  
ROOT
ATOM      1  CA  LYS A 131      29.867  25.555  16.977  1.00 20.52     0.186 C 
ENDROOT
BRANCH   1   2
ATOM      2  CB  LYS A 131      28.345  25.722  17.026  1.00 20.94     0.034 C 
BRANCH   2   3
ATOM      3  CG  LYS A 131      27.843  26.168  18.391  1.00 22.96     0.005 C 
BRANCH   3   4
ATOM      4  CD  LYS A 131      26.446  25.685  18.666  1.00 24.33     0.041 C 
BRANCH   4   5
ATOM      5  CE  LYS A 131      25.540  26.880  18.946  1.00 26.91     0.338 C 
ATOM      6  NZ  LYS A 131      25.428  27.739  17.743  1.00 27.40     0.618 N 
ENDBRANCH   4   5
ENDBRANCH   3   4
ENDBRANCH   2   3
ENDBRANCH   1   2
END_RES LYS A 131
BEGIN_RES LYS A 135
REMARK  4 active torsions:
REMARK  status: ('A' for Active; 'I' for Inactive)
REMARK    5  A    between atoms: CA   and  CB  
REMARK    6  A    between atoms: CB   and  CG  
REMARK    7  A    between atoms: CG   and  CD  
REMARK    8  A    between atoms: CD   and  CE  
ROOT
ATOM      7  CA  LYS A 135      33.193  34.663   9.290  1.00 25.02     0.186 C 
ENDROOT
BRANCH   7   8
ATOM      8  CB  LYS A 135      32.060  35.360  10.034  1.00 26.63     0.034 C 
BRANCH   8   9
ATOM      9  CG  LYS A 135      30.879  35.693   9.159  1.00 29.45     0.005 C 
BRANCH   9  10
ATOM     10  CD  LYS A 135      30.395  34.456   8.418  1.00 32.00     0.041 C 
BRANCH  10  11
ATOM     11  CE  LYS A 135      28.880  34.432   8.355  1.00 34.25     0.338 C 
ATOM     12  NZ  LYS A 135      28.299  33.873   9.607  1.00 35.99     0.618 N 
ENDBRANCH  10  11
ENDBRANCH   9  10
ENDBRANCH   8   9
ENDBRANCH   7   8
END_RES LYS A 135
