REMARK VINA RESULT:    -5.203      5.262     10.195
REMARK INTER + INTRA:         -16.740
REMARK INTER:                  -8.070
REMARK INTRA:                  -8.670
REMARK UNBOUND:                -5.759
REMARK SMILES CC(=O)N[C@@H]1[C@@H](O)C[C@](O)(C(=O)O)O[C@H]1C(O)[C@H](O)CNC(=O)OCc1cn(CC(=O)NCC(O)Cn2ccnc2[N+](=O)[O-])nn1
REMARK SMILES IDX 25 1 24 2 22 3 21 4 23 6 20 7 18 8 16 9 15 10 9 11 8 12
REMARK SMILES IDX 14 13 6 14 5 15 10 16 11 18 12 19 13 20 7 22 4 24 2 25 1 27
REMARK SMILES IDX 3 28 17 29 19 31 26 33 27 34 46 35 28 36 45 37 29 38 30 39
REMARK SMILES IDX 31 40 32 41 33 43 34 44 35 45 36 47 37 48 38 49 41 50 39 51
REMARK SMILES IDX 40 52 42 53 43 54 44 55
REMARK H PARENT 21 5 10 17 13 21 7 23 4 26 17 30 19 32 32 42 35 46
REMARK Flexibility Score: inf
ROOT
ATOM      1  C   UNL     1      28.383  37.169  19.031  1.00  0.00     0.294 C 
ENDROOT
BRANCH   1   2
ATOM      2  O   UNL     1      27.731  37.270  17.781  1.00  0.00    -0.443 OA
BRANCH   2   3
ATOM      3  C   UNL     1      27.020  36.211  17.245  1.00  0.00     0.407 C 
ATOM      4  N   UNL     1      27.354  35.664  15.958  1.00  0.00    -0.319 N 
ATOM      5  H   UNL     1      28.147  36.115  15.462  1.00  0.00     0.167 HD
ATOM      6  O   UNL     1      26.077  35.737  17.902  1.00  0.00    -0.225 OA
BRANCH   4   7
ATOM      7  C   UNL     1      26.660  34.571  15.369  1.00  0.00     0.154 C 
BRANCH   7   8
ATOM      8  C   UNL     1      27.506  33.380  15.081  1.00  0.00     0.165 C 
BRANCH   8   9
ATOM      9  C   UNL     1      27.757  32.629  16.379  1.00  0.00     0.176 C 
BRANCH   9  10
ATOM     10  C   UNL     1      27.826  31.148  16.187  1.00  0.00     0.178 C 
ATOM     11  C   UNL     1      25.679  30.252  16.065  1.00  0.00     0.269 C 
ATOM     12  C   UNL     1      25.982  29.016  16.899  1.00  0.00     0.112 C 
ATOM     13  O   UNL     1      26.787  30.710  15.408  1.00  0.00    -0.332 OA
ATOM     14  C   UNL     1      27.476  28.947  17.183  1.00  0.00     0.145 C 
ATOM     15  C   UNL     1      27.914  30.388  17.470  1.00  0.00     0.142 C 
BRANCH  11  16
ATOM     16  O   UNL     1      25.233  31.213  16.954  1.00  0.00    -0.357 OA
ATOM     17  H   UNL     1      25.977  31.543  17.518  1.00  0.00     0.214 HD
ENDBRANCH  11  16
BRANCH  11  18
ATOM     18  C   UNL     1      24.591  29.992  15.087  1.00  0.00     0.364 C 
ATOM     19  O   UNL     1      23.551  29.349  15.404  1.00  0.00    -0.246 OA
BRANCH  18  20
ATOM     20  O   UNL     1      24.678  30.449  13.783  1.00  0.00    -0.477 OA
ATOM     21  H   UNL     1      24.709  29.872  12.962  1.00  0.00     0.296 HD
ENDBRANCH  18  20
ENDBRANCH  11  18
BRANCH  14  22
ATOM     22  O   UNL     1      27.655  28.140  18.293  1.00  0.00    -0.391 OA
ATOM     23  H   UNL     1      26.948  28.243  18.968  1.00  0.00     0.211 HD
ENDBRANCH  14  22
BRANCH  15  24
ATOM     24  N   UNL     1      29.270  30.385  18.003  1.00  0.00    -0.348 N 
ATOM     25  C   UNL     1      29.467  30.479  19.395  1.00  0.00     0.217 C 
ATOM     26  H   UNL     1      30.065  30.320  17.363  1.00  0.00     0.163 HD
ATOM     27  C   UNL     1      30.854  30.479  19.990  1.00  0.00     0.114 C 
ATOM     28  O   UNL     1      28.529  30.569  20.222  1.00  0.00    -0.275 OA
ENDBRANCH  15  24
ENDBRANCH   9  10
BRANCH   9  29
ATOM     29  O   UNL     1      28.916  33.069  16.997  1.00  0.00    -0.388 OA
ATOM     30  H   UNL     1      28.815  33.928  17.446  1.00  0.00     0.211 HD
ENDBRANCH   9  29
ENDBRANCH   8   9
BRANCH   8  31
ATOM     31  O   UNL     1      28.721  33.663  14.480  1.00  0.00    -0.388 OA
ATOM     32  H   UNL     1      28.690  34.489  13.926  1.00  0.00     0.211 HD
ENDBRANCH   8  31
ENDBRANCH   7   8
ENDBRANCH   4   7
ENDBRANCH   2   3
ENDBRANCH   1   2
BRANCH   1  33
ATOM     33  C   UNL     1      29.428  36.131  18.856  1.00  0.00     0.120 A 
ATOM     34  C   UNL     1      30.586  36.314  18.134  1.00  0.00     0.138 A 
ATOM     35  N   UNL     1      29.507  34.869  19.304  1.00  0.00    -0.132 NA
ATOM     36  N   UNL     1      31.338  35.170  18.158  1.00  0.00    -0.243 N 
ATOM     37  N   UNL     1      30.656  34.313  18.877  1.00  0.00    -0.067 NA
BRANCH  36  38
ATOM     38  C   UNL     1      32.608  35.073  17.472  1.00  0.00     0.245 C 
BRANCH  38  39
ATOM     39  C   UNL     1      32.281  34.826  16.012  1.00  0.00     0.241 C 
ATOM     40  O   UNL     1      31.506  33.899  15.692  1.00  0.00    -0.273 OA
ATOM     41  N   UNL     1      32.821  35.606  14.986  1.00  0.00    -0.352 N 
ATOM     42  H   UNL     1      33.466  36.402  15.358  1.00  0.00     0.163 HD
BRANCH  41  43
ATOM     43  C   UNL     1      32.659  35.512  13.582  1.00  0.00     0.151 C 
BRANCH  43  44
ATOM     44  C   UNL     1      31.331  35.583  12.980  1.00  0.00     0.168 C 
BRANCH  44  45
ATOM     45  O   UNL     1      30.769  34.303  12.720  1.00  0.00    -0.388 OA
ATOM     46  H   UNL     1      30.761  33.777  13.556  1.00  0.00     0.211 HD
ENDBRANCH  44  45
BRANCH  44  47
ATOM     47  C   UNL     1      30.347  36.604  13.377  1.00  0.00     0.239 C 
BRANCH  47  48
ATOM     48  N   UNL     1      29.745  37.299  12.256  1.00  0.00    -0.227 N 
ATOM     49  C   UNL     1      30.245  38.406  11.651  1.00  0.00     0.204 A 
ATOM     50  C   UNL     1      28.589  36.970  11.651  1.00  0.00     0.434 A 
ATOM     51  C   UNL     1      29.353  38.747  10.652  1.00  0.00     0.245 A 
ATOM     52  N   UNL     1      28.345  37.873  10.653  1.00  0.00    -0.074 NA
BRANCH  50  53
ATOM     53  N   UNL     1      27.710  35.894  11.927  1.00  0.00    -0.047 N 
ATOM     54  O   UNL     1      26.537  36.179  12.312  1.00  0.00    -0.390 OA
ATOM     55  O   UNL     1      27.997  34.575  11.822  1.00  0.00    -0.390 OA
ENDBRANCH  50  53
ENDBRANCH  47  48
ENDBRANCH  44  47
ENDBRANCH  43  44
ENDBRANCH  41  43
ENDBRANCH  38  39
ENDBRANCH  36  38
ENDBRANCH   1  33
TORSDOF 22
BEGIN_RES LYS A 131
REMARK  4 active torsions:
REMARK  status: ('A' for Active; 'I' for Inactive)
REMARK    1  A    between atoms: CA   and  CB  
REMARK    2  A    between atoms: CB   and  CG  
REMARK    3  A    between atoms: CG   and  CD  
REMARK    4  A    between atoms: CD   and  CE  
ROOT
ATOM      1  CA  LYS A 131      29.867  25.555  16.977  1.00 20.52     0.186 C 
ENDROOT
BRANCH   1   2
ATOM      2  CB  LYS A 131      28.345  25.722  17.026  1.00 20.94     0.034 C 
BRANCH   2   3
ATOM      3  CG  LYS A 131      27.600  24.407  16.854  1.00 22.96     0.005 C 
BRANCH   3   4
ATOM      4  CD  LYS A 131      26.772  24.063  18.060  1.00 24.33     0.041 C 
BRANCH   4   5
ATOM      5  CE  LYS A 131      25.653  25.087  18.219  1.00 26.91     0.338 C 
ATOM      6  NZ  LYS A 131      25.629  25.619  19.602  1.00 27.40     0.618 N 
ENDBRANCH   4   5
ENDBRANCH   3   4
ENDBRANCH   2   3
ENDBRANCH   1   2
END_RES LYS A 131
BEGIN_RES LYS A 135
REMARK  4 active torsions:
REMARK  status: ('A' for Active; 'I' for Inactive)
REMARK    5  A    between atoms: CA   and  CB  
REMARK    6  A    between atoms: CB   and  CG  
REMARK    7  A    between atoms: CG   and  CD  
REMARK    8  A    between atoms: CD   and  CE  
ROOT
ATOM      7  CA  LYS A 135      33.193  34.663   9.290  1.00 25.02     0.186 C 
ENDROOT
BRANCH   7   8
ATOM      8  CB  LYS A 135      32.060  35.360  10.034  1.00 26.63     0.034 C 
BRANCH   8   9
ATOM      9  CG  LYS A 135      30.823  35.561   9.197  1.00 29.45     0.005 C 
BRANCH   9  10
ATOM     10  CD  LYS A 135      30.067  34.252   9.034  1.00 32.00     0.041 C 
BRANCH  10  11
ATOM     11  CE  LYS A 135      28.727  34.490   8.363  1.00 34.25     0.338 C 
ATOM     12  NZ  LYS A 135      28.874  35.371   7.171  1.00 35.99     0.618 N 
ENDBRANCH  10  11
ENDBRANCH   9  10
ENDBRANCH   8   9
ENDBRANCH   7   8
END_RES LYS A 135
