REMARK VINA RESULT:    -4.717      6.242     10.359
REMARK INTER + INTRA:         -14.052
REMARK INTER:                  -9.267
REMARK INTRA:                  -4.785
REMARK UNBOUND:                -4.785
REMARK SMILES C=CCCCCn1cc(COC(=O)NC[C@@H](O)C(O)[C@@H]2O[C@@](O)(C(=O)O)C[C@H](O)[C@H]2NC(C)=O)nn1
REMARK SMILES IDX 11 1 12 2 14 3 13 5 15 6 16 7 18 8 20 9 22 10 27 11 21 12
REMARK SMILES IDX 28 13 30 14 23 15 24 17 25 18 26 19 29 21 31 23 32 24 33 26
REMARK SMILES IDX 34 27 19 28 17 30 10 32 9 33 8 34 35 35 7 36 36 37 6 38 5 39
REMARK SMILES IDX 4 40 3 41 2 42 1 43
REMARK H PARENT 14 4 23 16 26 20 29 22 31 25 19 29 17 31
REMARK Flexibility Score: inf
ROOT
ATOM      1  O   UNL     1      27.848  40.355  10.008  1.00  0.00    -0.443 OA
ENDROOT
BRANCH   1   2
ATOM      2  C   UNL     1      26.796  39.533  10.360  1.00  0.00     0.407 C 
ATOM      3  N   UNL     1      26.972  38.123  10.163  1.00  0.00    -0.319 N 
ATOM      4  H   UNL     1      27.872  37.788   9.770  1.00  0.00     0.167 HD
ATOM      5  O   UNL     1      25.712  39.998  10.840  1.00  0.00    -0.225 OA
BRANCH   3   6
ATOM      6  C   UNL     1      25.951  37.187  10.492  1.00  0.00     0.154 C 
BRANCH   6   7
ATOM      7  C   UNL     1      25.361  36.467   9.277  1.00  0.00     0.165 C 
BRANCH   7   8
ATOM      8  C   UNL     1      24.473  37.477   8.595  1.00  0.00     0.176 C 
BRANCH   8   9
ATOM      9  C   UNL     1      23.066  37.487   9.095  1.00  0.00     0.178 C 
ATOM     10  C   UNL     1      21.078  36.524   8.383  1.00  0.00     0.269 C 
ATOM     11  C   UNL     1      20.443  37.522   9.329  1.00  0.00     0.112 C 
ATOM     12  O   UNL     1      22.414  36.350   8.699  1.00  0.00    -0.332 OA
ATOM     13  C   UNL     1      20.983  38.888   8.973  1.00  0.00     0.145 C 
ATOM     14  C   UNL     1      22.415  38.749   8.512  1.00  0.00     0.142 C 
BRANCH  10  15
ATOM     15  O   UNL     1      20.891  36.901   7.056  1.00  0.00    -0.357 OA
ATOM     16  H   UNL     1      21.274  36.225   6.454  1.00  0.00     0.214 HD
ENDBRANCH  10  15
BRANCH  10  17
ATOM     17  C   UNL     1      20.364  35.237   8.573  1.00  0.00     0.364 C 
ATOM     18  O   UNL     1      19.854  34.907   9.675  1.00  0.00    -0.246 OA
BRANCH  17  19
ATOM     19  O   UNL     1      20.213  34.306   7.531  1.00  0.00    -0.477 OA
ATOM     20  H   UNL     1      20.418  33.332   7.742  1.00  0.00     0.296 HD
ENDBRANCH  17  19
ENDBRANCH  10  17
BRANCH  13  21
ATOM     21  O   UNL     1      20.250  39.400   7.919  1.00  0.00    -0.391 OA
ATOM     22  H   UNL     1      20.841  39.544   7.140  1.00  0.00     0.211 HD
ENDBRANCH  13  21
BRANCH  14  23
ATOM     23  N   UNL     1      23.223  39.886   8.915  1.00  0.00    -0.348 N 
ATOM     24  C   UNL     1      23.403  41.041   8.103  1.00  0.00     0.217 C 
ATOM     25  H   UNL     1      23.724  39.910   9.847  1.00  0.00     0.163 HD
ATOM     26  C   UNL     1      24.237  42.205   8.529  1.00  0.00     0.114 C 
ATOM     27  O   UNL     1      22.818  41.044   6.985  1.00  0.00    -0.275 OA
ENDBRANCH  14  23
ENDBRANCH   8   9
BRANCH   8  28
ATOM     28  O   UNL     1      24.555  37.200   7.220  1.00  0.00    -0.388 OA
ATOM     29  H   UNL     1      24.209  37.949   6.674  1.00  0.00     0.211 HD
ENDBRANCH   8  28
ENDBRANCH   7   8
BRANCH   7  30
ATOM     30  O   UNL     1      24.713  35.305   9.639  1.00  0.00    -0.388 OA
ATOM     31  H   UNL     1      24.518  35.210  10.586  1.00  0.00     0.211 HD
ENDBRANCH   7  30
ENDBRANCH   6   7
ENDBRANCH   3   6
ENDBRANCH   1   2
BRANCH   1  32
ATOM     32  C   UNL     1      27.845  41.024   8.774  1.00  0.00     0.294 C 
BRANCH  32  33
ATOM     33  C   UNL     1      27.665  39.977   7.716  1.00  0.00     0.120 A 
ATOM     34  C   UNL     1      28.673  39.125   7.294  1.00  0.00     0.138 A 
ATOM     35  N   UNL     1      26.590  39.651   6.998  1.00  0.00    -0.132 NA
ATOM     36  N   UNL     1      28.179  38.320   6.345  1.00  0.00    -0.252 N 
ATOM     37  N   UNL     1      26.915  38.661   6.186  1.00  0.00    -0.067 NA
BRANCH  36  38
ATOM     38  C   UNL     1      28.836  37.261   5.594  1.00  0.00     0.146 C 
BRANCH  38  39
ATOM     39  C   UNL     1      28.412  35.917   6.123  1.00  0.00     0.024 C 
BRANCH  39  40
ATOM     40  C   UNL     1      28.640  35.813   7.610  1.00  0.00     0.006 C 
BRANCH  40  41
ATOM     41  C   UNL     1      29.620  34.725   7.964  1.00  0.00     0.027 C 
BRANCH  41  42
ATOM     42  C   UNL     1      29.251  34.110   9.259  1.00  0.00    -0.035 C 
ATOM     43  C   UNL     1      28.017  33.777   9.565  1.00  0.00     0.004 C 
ENDBRANCH  41  42
ENDBRANCH  40  41
ENDBRANCH  39  40
ENDBRANCH  38  39
ENDBRANCH  36  38
ENDBRANCH  32  33
ENDBRANCH   1  32
TORSDOF 19
BEGIN_RES LYS A 131
REMARK  4 active torsions:
REMARK  status: ('A' for Active; 'I' for Inactive)
REMARK    1  A    between atoms: CA   and  CB  
REMARK    2  A    between atoms: CB   and  CG  
REMARK    3  A    between atoms: CG   and  CD  
REMARK    4  A    between atoms: CD   and  CE  
ROOT
ATOM      1  CA  LYS A 131      29.867  25.555  16.977  1.00 20.52     0.186 C 
ENDROOT
BRANCH   1   2
ATOM      2  CB  LYS A 131      28.345  25.722  17.026  1.00 20.94     0.034 C 
BRANCH   2   3
ATOM      3  CG  LYS A 131      27.599  24.473  16.581  1.00 22.96     0.005 C 
BRANCH   3   4
ATOM      4  CD  LYS A 131      27.138  23.644  17.748  1.00 24.33     0.041 C 
BRANCH   4   5
ATOM      5  CE  LYS A 131      25.740  24.087  18.167  1.00 26.91     0.338 C 
ATOM      6  NZ  LYS A 131      24.907  24.373  16.975  1.00 27.40     0.618 N 
ENDBRANCH   4   5
ENDBRANCH   3   4
ENDBRANCH   2   3
ENDBRANCH   1   2
END_RES LYS A 131
BEGIN_RES LYS A 135
REMARK  4 active torsions:
REMARK  status: ('A' for Active; 'I' for Inactive)
REMARK    5  A    between atoms: CA   and  CB  
REMARK    6  A    between atoms: CB   and  CG  
REMARK    7  A    between atoms: CG   and  CD  
REMARK    8  A    between atoms: CD   and  CE  
ROOT
ATOM      7  CA  LYS A 135      33.193  34.663   9.290  1.00 25.02     0.186 C 
ENDROOT
BRANCH   7   8
ATOM      8  CB  LYS A 135      32.060  35.360  10.034  1.00 26.63     0.034 C 
BRANCH   8   9
ATOM      9  CG  LYS A 135      32.474  35.927  11.367  1.00 29.45     0.005 C 
BRANCH   9  10
ATOM     10  CD  LYS A 135      31.898  37.322  11.559  1.00 32.00     0.041 C 
BRANCH  10  11
ATOM     11  CE  LYS A 135      31.111  37.400  12.853  1.00 34.25     0.338 C 
ATOM     12  NZ  LYS A 135      31.941  36.969  14.012  1.00 35.99     0.618 N 
ENDBRANCH  10  11
ENDBRANCH   9  10
ENDBRANCH   8   9
ENDBRANCH   7   8
END_RES LYS A 135
