REMARK VINA RESULT:    -5.181      4.338      8.961
REMARK INTER + INTRA:         -14.252
REMARK INTER:                  -7.652
REMARK INTRA:                  -6.600
REMARK UNBOUND:                -5.134
REMARK SMILES CC(=O)N[C@@H]1[C@@H](O)C[C@](O)(C(=O)O)O[C@H]1C(O)[C@H](O)CNC(=O)OCc1cn(-c2nc(C)nc(N)n2)nn1
REMARK SMILES IDX 21 1 22 2 23 3 20 5 18 6 16 7 15 8 9 9 8 10 14 11 6 12 5 13
REMARK SMILES IDX 10 14 11 16 12 17 13 18 7 20 4 22 2 23 1 25 3 26 17 27 19 29
REMARK SMILES IDX 24 31 25 32 26 33 27 34 38 35 28 36 37 37 29 38 36 39 30 40
REMARK SMILES IDX 34 41 31 42 33 43 32 44 35 45
REMARK H PARENT 21 4 10 15 13 19 7 21 4 24 17 28 19 30 35 46 35 47
REMARK Flexibility Score: inf
ROOT
ATOM      1  N   UNL     1      30.694  33.352  14.324  1.00  0.00    -0.319 N 
ATOM      2  C   UNL     1      31.160  32.786  15.527  1.00  0.00     0.407 C 
ATOM      3  O   UNL     1      31.864  33.396  16.362  1.00  0.00    -0.225 OA
ATOM      4  H   UNL     1      30.092  32.805  13.639  1.00  0.00     0.167 HD
ENDROOT
BRANCH   1   5
ATOM      5  C   UNL     1      31.037  34.719  13.993  1.00  0.00     0.154 C 
BRANCH   5   6
ATOM      6  C   UNL     1      29.853  35.593  14.261  1.00  0.00     0.165 C 
BRANCH   6   7
ATOM      7  C   UNL     1      28.976  35.679  13.028  1.00  0.00     0.176 C 
BRANCH   7   8
ATOM      8  C   UNL     1      27.534  35.811  13.491  1.00  0.00     0.178 C 
ATOM      9  C   UNL     1      27.078  34.669  15.501  1.00  0.00     0.269 C 
ATOM     10  C   UNL     1      26.420  33.547  14.761  1.00  0.00     0.112 C 
ATOM     11  O   UNL     1      27.498  35.730  14.820  1.00  0.00    -0.332 OA
ATOM     12  C   UNL     1      25.656  34.158  13.593  1.00  0.00     0.145 C 
ATOM     13  C   UNL     1      26.753  34.775  12.727  1.00  0.00     0.142 C 
BRANCH   9  14
ATOM     14  O   UNL     1      28.191  34.099  16.164  1.00  0.00    -0.357 OA
ATOM     15  H   UNL     1      29.040  34.389  15.756  1.00  0.00     0.214 HD
ENDBRANCH   9  14
BRANCH   9  16
ATOM     16  C   UNL     1      26.140  35.102  16.567  1.00  0.00     0.364 C 
ATOM     17  O   UNL     1      26.082  36.308  16.920  1.00  0.00    -0.246 OA
BRANCH  16  18
ATOM     18  O   UNL     1      25.298  34.213  17.214  1.00  0.00    -0.477 OA
ATOM     19  H   UNL     1      24.894  33.397  16.750  1.00  0.00     0.296 HD
ENDBRANCH  16  18
ENDBRANCH   9  16
BRANCH  12  20
ATOM     20  O   UNL     1      25.007  33.195  12.846  1.00  0.00    -0.391 OA
ATOM     21  H   UNL     1      25.330  32.305  13.165  1.00  0.00     0.211 HD
ENDBRANCH  12  20
BRANCH  13  22
ATOM     22  N   UNL     1      26.201  35.329  11.510  1.00  0.00    -0.348 N 
ATOM     23  C   UNL     1      26.535  34.789  10.242  1.00  0.00     0.217 C 
ATOM     24  H   UNL     1      25.551  36.139  11.628  1.00  0.00     0.163 HD
ATOM     25  C   UNL     1      25.936  35.402   9.036  1.00  0.00     0.114 C 
ATOM     26  O   UNL     1      27.313  33.819  10.114  1.00  0.00    -0.275 OA
ENDBRANCH  13  22
ENDBRANCH   7   8
BRANCH   7  27
ATOM     27  O   UNL     1      29.114  34.467  12.301  1.00  0.00    -0.388 OA
ATOM     28  H   UNL     1      29.851  34.659  11.653  1.00  0.00     0.211 HD
ENDBRANCH   7  27
ENDBRANCH   6   7
BRANCH   6  29
ATOM     29  O   UNL     1      30.303  36.863  14.650  1.00  0.00    -0.388 OA
ATOM     30  H   UNL     1      31.209  36.824  15.004  1.00  0.00     0.211 HD
ENDBRANCH   6  29
ENDBRANCH   5   6
ENDBRANCH   1   5
BRANCH   2  31
ATOM     31  O   UNL     1      30.818  31.455  15.818  1.00  0.00    -0.443 OA
BRANCH  31  32
ATOM     32  C   UNL     1      30.386  31.164  17.130  1.00  0.00     0.294 C 
BRANCH  32  33
ATOM     33  C   UNL     1      28.887  31.147  17.148  1.00  0.00     0.121 A 
ATOM     34  C   UNL     1      28.045  30.430  16.318  1.00  0.00     0.148 A 
ATOM     35  N   UNL     1      28.053  31.824  17.972  1.00  0.00    -0.131 NA
ATOM     36  N   UNL     1      26.761  30.677  16.645  1.00  0.00    -0.185 N 
ATOM     37  N   UNL     1      26.799  31.525  17.649  1.00  0.00    -0.059 NA
BRANCH  36  38
ATOM     38  C   UNL     1      25.600  30.123  16.017  1.00  0.00     0.257 A 
ATOM     39  N   UNL     1      25.225  30.481  14.776  1.00  0.00    -0.175 NA
ATOM     40  N   UNL     1      24.836  29.215  16.657  1.00  0.00    -0.196 NA
ATOM     41  C   UNL     1      24.144  29.985  14.153  1.00  0.00     0.225 A 
ATOM     42  C   UNL     1      23.731  28.677  16.081  1.00  0.00     0.133 A 
ATOM     43  N   UNL     1      23.409  29.072  14.845  1.00  0.00    -0.198 NA
ATOM     44  C   UNL     1      22.881  27.674  16.776  1.00  0.00     0.090 C 
BRANCH  41  45
ATOM     45  N   UNL     1      23.749  30.358  12.852  1.00  0.00    -0.368 N 
ATOM     46  H   UNL     1      23.651  31.352  12.608  1.00  0.00     0.159 HD
ATOM     47  H   UNL     1      23.557  29.632  12.147  1.00  0.00     0.159 HD
ENDBRANCH  41  45
ENDBRANCH  36  38
ENDBRANCH  32  33
ENDBRANCH  31  32
ENDBRANCH   2  31
TORSDOF 16
BEGIN_RES LYS A 131
REMARK  4 active torsions:
REMARK  status: ('A' for Active; 'I' for Inactive)
REMARK    1  A    between atoms: CA   and  CB  
REMARK    2  A    between atoms: CB   and  CG  
REMARK    3  A    between atoms: CG   and  CD  
REMARK    4  A    between atoms: CD   and  CE  
ROOT
ATOM      1  CA  LYS A 131      29.867  25.555  16.977  1.00 20.52     0.186 C 
ENDROOT
BRANCH   1   2
ATOM      2  CB  LYS A 131      28.345  25.722  17.026  1.00 20.94     0.034 C 
BRANCH   2   3
ATOM      3  CG  LYS A 131      27.602  24.397  16.941  1.00 22.96     0.005 C 
BRANCH   3   4
ATOM      4  CD  LYS A 131      26.130  24.556  17.203  1.00 24.33     0.041 C 
BRANCH   4   5
ATOM      5  CE  LYS A 131      25.905  25.731  18.150  1.00 26.91     0.338 C 
ATOM      6  NZ  LYS A 131      25.756  25.252  19.544  1.00 27.40     0.618 N 
ENDBRANCH   4   5
ENDBRANCH   3   4
ENDBRANCH   2   3
ENDBRANCH   1   2
END_RES LYS A 131
BEGIN_RES LYS A 135
REMARK  4 active torsions:
REMARK  status: ('A' for Active; 'I' for Inactive)
REMARK    5  A    between atoms: CA   and  CB  
REMARK    6  A    between atoms: CB   and  CG  
REMARK    7  A    between atoms: CG   and  CD  
REMARK    8  A    between atoms: CD   and  CE  
ROOT
ATOM      7  CA  LYS A 135      33.193  34.663   9.290  1.00 25.02     0.186 C 
ENDROOT
BRANCH   7   8
ATOM      8  CB  LYS A 135      32.060  35.360  10.034  1.00 26.63     0.034 C 
BRANCH   8   9
ATOM      9  CG  LYS A 135      30.692  34.848   9.664  1.00 29.45     0.005 C 
BRANCH   9  10
ATOM     10  CD  LYS A 135      30.626  34.515   8.182  1.00 32.00     0.041 C 
BRANCH  10  11
ATOM     11  CE  LYS A 135      29.421  35.176   7.540  1.00 34.25     0.338 C 
ATOM     12  NZ  LYS A 135      29.263  36.579   8.014  1.00 35.99     0.618 N 
ENDBRANCH  10  11
ENDBRANCH   9  10
ENDBRANCH   8   9
ENDBRANCH   7   8
END_RES LYS A 135
