REMARK VINA RESULT:    -6.777      3.035      8.196
REMARK INTER + INTRA:         -16.307
REMARK INTER:                  -9.655
REMARK INTRA:                  -6.652
REMARK UNBOUND:                -4.578
REMARK SMILES CC(=O)N[C@@H]1[C@@H](O)C[C@](O)(C(=O)O)O[C@H]1C(O)[C@H](O)CNC(=O)OCc1cn(C2c3ccccc3-c3ccccc32)nn1
REMARK SMILES IDX 20 1 18 2 16 3 15 4 9 5 8 6 14 7 6 8 5 9 10 10 11 12 12 13
REMARK SMILES IDX 13 14 7 16 4 18 2 19 1 21 3 22 17 23 19 25 21 27 22 28 23 30
REMARK SMILES IDX 24 31 25 32 26 33 27 34 43 35 28 36 42 37 29 38 30 39 41 40
REMARK SMILES IDX 31 41 35 42 36 43 40 44 32 45 34 46 37 47 39 48 33 49 38 50
REMARK H PARENT 10 11 13 15 7 17 4 20 17 24 19 26 21 29
REMARK Flexibility Score: inf
ROOT
ATOM      1  C   UNL     1      25.276  37.390  10.231  1.00  0.00     0.154 C 
ENDROOT
BRANCH   1   2
ATOM      2  C   UNL     1      26.297  37.747   9.215  1.00  0.00     0.165 C 
BRANCH   2   3
ATOM      3  C   UNL     1      27.483  38.460   9.781  1.00  0.00     0.176 C 
BRANCH   3   4
ATOM      4  C   UNL     1      28.815  37.799   9.563  1.00  0.00     0.178 C 
ATOM      5  C   UNL     1      30.447  38.660  11.005  1.00  0.00     0.269 C 
ATOM      6  C   UNL     1      31.621  38.268  10.133  1.00  0.00     0.112 C 
ATOM      7  O   UNL     1      29.435  37.774  10.813  1.00  0.00    -0.332 OA
ATOM      8  C   UNL     1      31.147  38.064   8.741  1.00  0.00     0.145 C 
ATOM      9  C   UNL     1      29.679  38.471   8.530  1.00  0.00     0.142 C 
BRANCH   5  10
ATOM     10  O   UNL     1      30.183  39.982  10.763  1.00  0.00    -0.357 OA
ATOM     11  H   UNL     1      29.549  40.106  10.022  1.00  0.00     0.214 HD
ENDBRANCH   5  10
BRANCH   5  12
ATOM     12  C   UNL     1      30.914  38.506  12.417  1.00  0.00     0.364 C 
ATOM     13  O   UNL     1      30.820  39.476  13.204  1.00  0.00    -0.246 OA
BRANCH  12  14
ATOM     14  O   UNL     1      31.456  37.324  12.901  1.00  0.00    -0.477 OA
ATOM     15  H   UNL     1      32.475  37.183  12.910  1.00  0.00     0.296 HD
ENDBRANCH  12  14
ENDBRANCH   5  12
BRANCH   8  16
ATOM     16  O   UNL     1      31.895  38.734   7.786  1.00  0.00    -0.391 OA
ATOM     17  H   UNL     1      31.601  39.661   7.636  1.00  0.00     0.211 HD
ENDBRANCH   8  16
BRANCH   9  18
ATOM     18  N   UNL     1      29.362  37.957   7.217  1.00  0.00    -0.348 N 
ATOM     19  C   UNL     1      28.525  38.606   6.273  1.00  0.00     0.217 C 
ATOM     20  H   UNL     1      29.780  37.044   6.941  1.00  0.00     0.163 HD
ATOM     21  C   UNL     1      28.243  38.007   4.928  1.00  0.00     0.114 C 
ATOM     22  O   UNL     1      28.022  39.710   6.603  1.00  0.00    -0.275 OA
ENDBRANCH   9  18
ENDBRANCH   3   4
BRANCH   3  23
ATOM     23  O   UNL     1      27.548  39.813   9.472  1.00  0.00    -0.388 OA
ATOM     24  H   UNL     1      26.690  40.258   9.382  1.00  0.00     0.211 HD
ENDBRANCH   3  23
ENDBRANCH   2   3
BRANCH   2  25
ATOM     25  O   UNL     1      25.732  38.596   8.265  1.00  0.00    -0.388 OA
ATOM     26  H   UNL     1      26.357  39.265   7.926  1.00  0.00     0.211 HD
ENDBRANCH   2  25
ENDBRANCH   1   2
BRANCH   1  27
ATOM     27  N   UNL     1      25.765  37.077  11.521  1.00  0.00    -0.319 N 
ATOM     28  C   UNL     1      25.872  35.771  12.031  1.00  0.00     0.407 C 
ATOM     29  H   UNL     1      26.080  37.871  12.169  1.00  0.00     0.167 HD
ATOM     30  O   UNL     1      25.554  34.781  11.380  1.00  0.00    -0.225 OA
BRANCH  28  31
ATOM     31  O   UNL     1      26.356  35.535  13.331  1.00  0.00    -0.443 OA
BRANCH  31  32
ATOM     32  C   UNL     1      27.405  36.256  13.902  1.00  0.00     0.294 C 
BRANCH  32  33
ATOM     33  C   UNL     1      28.666  35.484  14.020  1.00  0.00     0.120 A 
ATOM     34  C   UNL     1      29.332  35.066  15.147  1.00  0.00     0.139 A 
ATOM     35  N   UNL     1      29.370  35.062  12.967  1.00  0.00    -0.132 NA
ATOM     36  N   UNL     1      30.412  34.410  14.739  1.00  0.00    -0.240 N 
ATOM     37  N   UNL     1      30.419  34.416  13.422  1.00  0.00    -0.066 NA
BRANCH  36  38
ATOM     38  C   UNL     1      31.429  33.780  15.568  1.00  0.00     0.170 C 
ATOM     39  C   UNL     1      30.849  32.772  16.473  1.00  0.00    -0.011 A 
ATOM     40  C   UNL     1      32.127  34.729  16.421  1.00  0.00    -0.011 A 
ATOM     41  C   UNL     1      30.076  31.633  16.184  1.00  0.00     0.007 A 
ATOM     42  C   UNL     1      31.188  33.114  17.750  1.00  0.00    -0.012 A 
ATOM     43  C   UNL     1      31.987  34.338  17.726  1.00  0.00    -0.012 A 
ATOM     44  C   UNL     1      32.869  35.897  16.154  1.00  0.00     0.007 A 
ATOM     45  C   UNL     1      29.658  30.851  17.232  1.00  0.00     0.000 A 
ATOM     46  C   UNL     1      30.742  32.296  18.788  1.00  0.00     0.009 A 
ATOM     47  C   UNL     1      32.544  35.040  18.800  1.00  0.00     0.009 A 
ATOM     48  C   UNL     1      33.424  36.601  17.191  1.00  0.00     0.000 A 
ATOM     49  C   UNL     1      29.985  31.174  18.534  1.00  0.00     0.001 A 
ATOM     50  C   UNL     1      33.261  36.175  18.498  1.00  0.00     0.001 A 
ENDBRANCH  36  38
ENDBRANCH  32  33
ENDBRANCH  31  32
ENDBRANCH  28  31
ENDBRANCH   1  27
TORSDOF 15
BEGIN_RES LYS A 131
REMARK  4 active torsions:
REMARK  status: ('A' for Active; 'I' for Inactive)
REMARK    1  A    between atoms: CA   and  CB  
REMARK    2  A    between atoms: CB   and  CG  
REMARK    3  A    between atoms: CG   and  CD  
REMARK    4  A    between atoms: CD   and  CE  
ROOT
ATOM      1  CA  LYS A 131      29.867  25.555  16.977  1.00 20.52     0.186 C 
ENDROOT
BRANCH   1   2
ATOM      2  CB  LYS A 131      28.345  25.722  17.026  1.00 20.94     0.034 C 
BRANCH   2   3
ATOM      3  CG  LYS A 131      27.601  24.402  16.893  1.00 22.96     0.005 C 
BRANCH   3   4
ATOM      4  CD  LYS A 131      26.156  24.524  17.290  1.00 24.33     0.041 C 
BRANCH   4   5
ATOM      5  CE  LYS A 131      25.974  24.006  18.713  1.00 26.91     0.338 C 
ATOM      6  NZ  LYS A 131      25.283  25.017  19.549  1.00 27.40     0.618 N 
ENDBRANCH   4   5
ENDBRANCH   3   4
ENDBRANCH   2   3
ENDBRANCH   1   2
END_RES LYS A 131
BEGIN_RES LYS A 135
REMARK  4 active torsions:
REMARK  status: ('A' for Active; 'I' for Inactive)
REMARK    5  A    between atoms: CA   and  CB  
REMARK    6  A    between atoms: CB   and  CG  
REMARK    7  A    between atoms: CG   and  CD  
REMARK    8  A    between atoms: CD   and  CE  
ROOT
ATOM      7  CA  LYS A 135      33.193  34.663   9.290  1.00 25.02     0.186 C 
ENDROOT
BRANCH   7   8
ATOM      8  CB  LYS A 135      32.060  35.360  10.034  1.00 26.63     0.034 C 
BRANCH   8   9
ATOM      9  CG  LYS A 135      30.736  34.651   9.916  1.00 29.45     0.005 C 
BRANCH   9  10
ATOM     10  CD  LYS A 135      30.349  34.475   8.456  1.00 32.00     0.041 C 
BRANCH  10  11
ATOM     11  CE  LYS A 135      28.841  34.488   8.299  1.00 34.25     0.338 C 
ATOM     12  NZ  LYS A 135      28.176  33.811   9.446  1.00 35.99     0.618 N 
ENDBRANCH  10  11
ENDBRANCH   9  10
ENDBRANCH   8   9
ENDBRANCH   7   8
END_RES LYS A 135
