REMARK VINA RESULT:    -7.808      3.752      7.647
REMARK INTER + INTRA:         -13.221
REMARK INTER:                 -10.292
REMARK INTRA:                  -2.929
REMARK UNBOUND:                 3.032
REMARK SMILES CC(=O)N[C@@H]1[C@@H](O)C[C@](O)(C(=O)O)O[C@H]1C(O)[C@H](O)CNC(=O)OCc1cn(C2CC(O)C=C[C@@H](O)C2)nn1
REMARK SMILES IDX 21 1 22 2 23 3 20 5 18 6 16 7 15 8 9 9 8 10 14 11 6 12 5 13
REMARK SMILES IDX 10 14 11 16 12 17 13 18 7 20 4 22 2 23 1 25 3 26 17 27 19 29
REMARK SMILES IDX 24 31 25 32 26 33 27 34 39 35 28 36 38 37 29 38 30 39 31 40
REMARK SMILES IDX 32 42 37 44 35 45 34 46 33 47 36 49
REMARK H PARENT 21 4 10 15 13 19 7 21 4 24 17 28 19 30 32 43 36 50
REMARK Flexibility Score: 90.00
ROOT
ATOM      1  N   UNL     1      26.630  34.744  11.249  1.00  0.00    -0.319 N 
ATOM      2  C   UNL     1      27.242  35.140  12.476  1.00  0.00     0.407 C 
ATOM      3  O   UNL     1      26.704  35.950  13.275  1.00  0.00    -0.225 OA
ATOM      4  H   UNL     1      27.100  34.071  10.605  1.00  0.00     0.167 HD
ENDROOT
BRANCH   1   5
ATOM      5  C   UNL     1      25.324  35.338  10.962  1.00  0.00     0.154 C 
BRANCH   5   6
ATOM      6  C   UNL     1      25.222  35.446   9.452  1.00  0.00     0.165 C 
BRANCH   6   7
ATOM      7  C   UNL     1      25.909  36.678   8.909  1.00  0.00     0.176 C 
BRANCH   7   8
ATOM      8  C   UNL     1      27.084  36.342   8.045  1.00  0.00     0.178 C 
ATOM      9  C   UNL     1      29.308  35.866   7.896  1.00  0.00     0.269 C 
ATOM     10  C   UNL     1      28.891  35.626   6.460  1.00  0.00     0.112 C 
ATOM     11  O   UNL     1      28.216  36.013   8.741  1.00  0.00    -0.332 OA
ATOM     12  C   UNL     1      28.094  36.789   5.904  1.00  0.00     0.145 C 
ATOM     13  C   UNL     1      27.426  37.452   7.074  1.00  0.00     0.142 C 
BRANCH   9  14
ATOM     14  O   UNL     1      30.193  36.934   7.994  1.00  0.00    -0.357 OA
ATOM     15  H   UNL     1      31.002  36.799   7.433  1.00  0.00     0.214 HD
ENDBRANCH   9  14
BRANCH   9  16
ATOM     16  C   UNL     1      30.026  34.646   8.337  1.00  0.00     0.364 C 
ATOM     17  O   UNL     1      29.483  33.762   9.053  1.00  0.00    -0.246 OA
BRANCH  16  18
ATOM     18  O   UNL     1      31.336  34.461   7.956  1.00  0.00    -0.477 OA
ATOM     19  H   UNL     1      31.626  34.060   7.069  1.00  0.00     0.296 HD
ENDBRANCH  16  18
ENDBRANCH   9  16
BRANCH  12  20
ATOM     20  O   UNL     1      28.968  37.605   5.224  1.00  0.00    -0.391 OA
ATOM     21  H   UNL     1      29.219  37.130   4.372  1.00  0.00     0.211 HD
ENDBRANCH  12  20
BRANCH  13  22
ATOM     22  N   UNL     1      26.331  38.290   6.756  1.00  0.00    -0.348 N 
ATOM     23  C   UNL     1      26.412  39.670   6.430  1.00  0.00     0.217 C 
ATOM     24  H   UNL     1      25.376  37.871   6.757  1.00  0.00     0.163 HD
ATOM     25  C   UNL     1      25.192  40.470   6.108  1.00  0.00     0.114 C 
ATOM     26  O   UNL     1      27.543  40.194   6.421  1.00  0.00    -0.275 OA
ENDBRANCH  13  22
ENDBRANCH   7   8
BRANCH   7  27
ATOM     27  O   UNL     1      26.168  37.597   9.895  1.00  0.00    -0.388 OA
ATOM     28  H   UNL     1      26.979  38.098   9.654  1.00  0.00     0.211 HD
ENDBRANCH   7  27
ENDBRANCH   6   7
BRANCH   6  29
ATOM     29  O   UNL     1      23.861  35.584   9.089  1.00  0.00    -0.388 OA
ATOM     30  H   UNL     1      23.466  36.404   9.498  1.00  0.00     0.211 HD
ENDBRANCH   6  29
ENDBRANCH   5   6
ENDBRANCH   1   5
BRANCH   2  31
ATOM     31  O   UNL     1      28.469  34.626  12.817  1.00  0.00    -0.443 OA
BRANCH  31  32
ATOM     32  C   UNL     1      29.294  35.147  13.844  1.00  0.00     0.294 C 
BRANCH  32  33
ATOM     33  C   UNL     1      29.238  34.228  15.004  1.00  0.00     0.120 A 
ATOM     34  C   UNL     1      29.182  32.852  15.026  1.00  0.00     0.138 A 
ATOM     35  N   UNL     1      29.234  34.629  16.290  1.00  0.00    -0.132 NA
ATOM     36  N   UNL     1      29.145  32.451  16.310  1.00  0.00    -0.249 N 
ATOM     37  N   UNL     1      29.179  33.564  17.047  1.00  0.00    -0.067 NA
BRANCH  36  38
ATOM     38  C   UNL     1      29.082  31.068  16.785  1.00  0.00     0.115 C 
BRANCH  38  39
ATOM     39  C   UNL     1      27.647  30.732  17.010  1.00  0.00     0.063 C 
BRANCH  39  40
ATOM     40  C   UNL     1      27.380  29.303  17.328  1.00  0.00     0.139 CG0
ATOM     41  G   UNL     1      27.705  28.937  18.716  1.00  0.00     0.000 G0
BRANCH  40  42
ATOM     42  O   UNL     1      26.076  28.903  16.962  1.00  0.00    -0.389 OA
ATOM     43  H   UNL     1      26.043  28.806  15.986  1.00  0.00     0.211 HD
ENDBRANCH  40  42
ENDBRANCH  39  40
ENDBRANCH  38  39
BRANCH  38  44
ATOM     44  C   UNL     1      29.939  30.965  17.999  1.00  0.00     0.063 C 
BRANCH  44  45
ATOM     45  C   UNL     1      29.185  30.943  19.294  1.00  0.00     0.139 C 
BRANCH  45  46
ATOM     46  C   UNL     1      28.486  29.665  19.552  1.00  0.00     0.002 C 
ATOM     47  C   UNL     1      27.729  28.972  18.731  1.00  0.00     0.002 CG0
ATOM     48  G   UNL     1      27.364  29.267  17.336  1.00  0.00     0.000 G0
ENDBRANCH  45  46
BRANCH  45  49
ATOM     49  O   UNL     1      29.974  31.315  20.380  1.00  0.00    -0.389 OA
ATOM     50  H   UNL     1      30.329  32.234  20.275  1.00  0.00     0.211 HD
ENDBRANCH  45  49
ENDBRANCH  44  45
ENDBRANCH  38  44
ENDBRANCH  36  38
ENDBRANCH  32  33
ENDBRANCH  31  32
ENDBRANCH   2  31
TORSDOF 17
BEGIN_RES LYS A 131
REMARK  4 active torsions:
REMARK  status: ('A' for Active; 'I' for Inactive)
REMARK    1  A    between atoms: CA   and  CB  
REMARK    2  A    between atoms: CB   and  CG  
REMARK    3  A    between atoms: CG   and  CD  
REMARK    4  A    between atoms: CD   and  CE  
ROOT
ATOM      1  CA  LYS A 131      29.867  25.555  16.977  1.00 20.52     0.186 C 
ENDROOT
BRANCH   1   2
ATOM      2  CB  LYS A 131      28.345  25.722  17.026  1.00 20.94     0.034 C 
BRANCH   2   3
ATOM      3  CG  LYS A 131      27.602  24.400  16.914  1.00 22.96     0.005 C 
BRANCH   3   4
ATOM      4  CD  LYS A 131      26.546  24.252  17.974  1.00 24.33     0.041 C 
BRANCH   4   5
ATOM      5  CE  LYS A 131      25.171  24.176  17.316  1.00 26.91     0.338 C 
ATOM      6  NZ  LYS A 131      24.443  25.455  17.487  1.00 27.40     0.618 N 
ENDBRANCH   4   5
ENDBRANCH   3   4
ENDBRANCH   2   3
ENDBRANCH   1   2
END_RES LYS A 131
BEGIN_RES LYS A 135
REMARK  4 active torsions:
REMARK  status: ('A' for Active; 'I' for Inactive)
REMARK    5  A    between atoms: CA   and  CB  
REMARK    6  A    between atoms: CB   and  CG  
REMARK    7  A    between atoms: CG   and  CD  
REMARK    8  A    between atoms: CD   and  CE  
ROOT
ATOM      7  CA  LYS A 135      33.193  34.663   9.290  1.00 25.02     0.186 C 
ENDROOT
BRANCH   7   8
ATOM      8  CB  LYS A 135      32.060  35.360  10.034  1.00 26.63     0.034 C 
BRANCH   8   9
ATOM      9  CG  LYS A 135      32.533  36.255  11.150  1.00 29.45     0.005 C 
BRANCH   9  10
ATOM     10  CD  LYS A 135      31.882  37.626  11.051  1.00 32.00     0.041 C 
BRANCH  10  11
ATOM     11  CE  LYS A 135      30.522  37.620  11.722  1.00 34.25     0.338 C 
ATOM     12  NZ  LYS A 135      29.533  38.409  10.937  1.00 35.99     0.618 N 
ENDBRANCH  10  11
ENDBRANCH   9  10
ENDBRANCH   8   9
ENDBRANCH   7   8
END_RES LYS A 135
