REMARK VINA RESULT:    -6.143      2.634      4.203
REMARK INTER + INTRA:         -15.165
REMARK INTER:                  -9.364
REMARK INTRA:                  -5.800
REMARK UNBOUND:                -4.533
REMARK SMILES CC(=O)N[C@@H]1[C@@H](O)C[C@](O)(C(=O)O)O[C@H]1C(O)[C@H](O)CNC(=O)OCc1cn(-c2cnc3ccccc3c2)nn1
REMARK SMILES IDX 20 1 18 2 16 3 15 4 9 5 8 6 14 7 6 8 5 9 10 10 11 12 12 13
REMARK SMILES IDX 13 14 7 16 4 18 2 19 1 21 3 22 17 23 19 25 21 27 22 28 23 30
REMARK SMILES IDX 24 31 25 32 26 33 27 34 40 35 28 36 39 37 29 38 30 39 38 40
REMARK SMILES IDX 31 41 37 42 32 43 36 44 33 45 35 46 34 47
REMARK H PARENT 10 11 13 15 7 17 4 20 17 24 19 26 21 29
REMARK Flexibility Score: inf
ROOT
ATOM      1  C   UNL     1      25.420  28.157  19.090  1.00  0.00     0.154 C 
ENDROOT
BRANCH   1   2
ATOM      2  C   UNL     1      26.872  28.151  19.475  1.00  0.00     0.165 C 
BRANCH   2   3
ATOM      3  C   UNL     1      27.301  29.367  20.250  1.00  0.00     0.176 C 
BRANCH   3   4
ATOM      4  C   UNL     1      28.468  29.140  21.168  1.00  0.00     0.178 C 
ATOM      5  C   UNL     1      30.497  28.019  21.096  1.00  0.00     0.269 C 
ATOM      6  C   UNL     1      30.680  28.306  22.565  1.00  0.00     0.112 C 
ATOM      7  O   UNL     1      29.646  28.899  20.476  1.00  0.00    -0.332 OA
ATOM      8  C   UNL     1      29.362  28.326  23.265  1.00  0.00     0.145 C 
ATOM      9  C   UNL     1      28.192  28.173  22.268  1.00  0.00     0.142 C 
BRANCH   5  10
ATOM     10  O   UNL     1      30.128  26.684  20.964  1.00  0.00    -0.357 OA
ATOM     11  H   UNL     1      29.165  26.542  21.020  1.00  0.00     0.214 HD
ENDBRANCH   5  10
BRANCH   5  12
ATOM     12  C   UNL     1      31.837  28.163  20.452  1.00  0.00     0.364 C 
ATOM     13  O   UNL     1      32.544  29.150  20.778  1.00  0.00    -0.246 OA
BRANCH  12  14
ATOM     14  O   UNL     1      32.318  27.260  19.521  1.00  0.00    -0.477 OA
ATOM     15  H   UNL     1      33.079  26.624  19.777  1.00  0.00     0.296 HD
ENDBRANCH  12  14
ENDBRANCH   5  12
BRANCH   8  16
ATOM     16  O   UNL     1      29.289  27.298  24.222  1.00  0.00    -0.391 OA
ATOM     17  H   UNL     1      28.346  27.047  24.370  1.00  0.00     0.211 HD
ENDBRANCH   8  16
BRANCH   9  18
ATOM     18  N   UNL     1      26.967  28.602  22.949  1.00  0.00    -0.348 N 
ATOM     19  C   UNL     1      26.073  27.699  23.581  1.00  0.00     0.217 C 
ATOM     20  H   UNL     1      26.722  29.608  22.981  1.00  0.00     0.163 HD
ATOM     21  C   UNL     1      24.832  28.152  24.264  1.00  0.00     0.114 C 
ATOM     22  O   UNL     1      26.311  26.465  23.581  1.00  0.00    -0.275 OA
ENDBRANCH   9  18
ENDBRANCH   3   4
BRANCH   3  23
ATOM     23  O   UNL     1      27.590  30.371  19.304  1.00  0.00    -0.388 OA
ATOM     24  H   UNL     1      28.442  30.785  19.588  1.00  0.00     0.211 HD
ENDBRANCH   3  23
ENDBRANCH   2   3
BRANCH   2  25
ATOM     25  O   UNL     1      27.689  27.962  18.342  1.00  0.00    -0.388 OA
ATOM     26  H   UNL     1      27.688  28.864  17.887  1.00  0.00     0.211 HD
ENDBRANCH   2  25
ENDBRANCH   1   2
BRANCH   1  27
ATOM     27  N   UNL     1      25.266  28.797  17.804  1.00  0.00    -0.319 N 
ATOM     28  C   UNL     1      24.805  30.119  17.647  1.00  0.00     0.407 C 
ATOM     29  H   UNL     1      25.498  28.288  16.906  1.00  0.00     0.167 HD
ATOM     30  O   UNL     1      24.496  30.827  18.628  1.00  0.00    -0.225 OA
BRANCH  28  31
ATOM     31  O   UNL     1      24.664  30.722  16.390  1.00  0.00    -0.443 OA
BRANCH  31  32
ATOM     32  C   UNL     1      25.600  30.421  15.343  1.00  0.00     0.294 C 
BRANCH  32  33
ATOM     33  C   UNL     1      26.980  30.699  15.793  1.00  0.00     0.121 A 
ATOM     34  C   UNL     1      27.609  31.900  15.890  1.00  0.00     0.144 A 
ATOM     35  N   UNL     1      27.847  29.761  16.188  1.00  0.00    -0.131 NA
ATOM     36  N   UNL     1      28.866  31.635  16.351  1.00  0.00    -0.219 N 
ATOM     37  N   UNL     1      28.988  30.340  16.523  1.00  0.00    -0.062 NA
BRANCH  36  38
ATOM     38  C   UNL     1      29.878  32.590  16.604  1.00  0.00     0.085 A 
ATOM     39  C   UNL     1      30.000  33.118  17.877  1.00  0.00     0.140 A 
ATOM     40  C   UNL     1      30.718  32.971  15.583  1.00  0.00     0.040 A 
ATOM     41  N   UNL     1      30.961  34.025  18.117  1.00  0.00    -0.254 NA
ATOM     42  C   UNL     1      31.707  33.912  15.852  1.00  0.00     0.002 A 
ATOM     43  C   UNL     1      31.808  34.424  17.129  1.00  0.00     0.070 A 
ATOM     44  C   UNL     1      32.551  34.308  14.860  1.00  0.00     0.010 A 
ATOM     45  C   UNL     1      32.789  35.357  17.399  1.00  0.00     0.029 A 
ATOM     46  C   UNL     1      33.545  35.250  15.125  1.00  0.00     0.001 A 
ATOM     47  C   UNL     1      33.656  35.768  16.393  1.00  0.00     0.002 A 
ENDBRANCH  36  38
ENDBRANCH  32  33
ENDBRANCH  31  32
ENDBRANCH  28  31
ENDBRANCH   1  27
TORSDOF 15
BEGIN_RES LYS A 131
REMARK  4 active torsions:
REMARK  status: ('A' for Active; 'I' for Inactive)
REMARK    1  A    between atoms: CA   and  CB  
REMARK    2  A    between atoms: CB   and  CG  
REMARK    3  A    between atoms: CG   and  CD  
REMARK    4  A    between atoms: CD   and  CE  
ROOT
ATOM      1  CA  LYS A 131      29.867  25.555  16.977  1.00 20.52     0.186 C 
ENDROOT
BRANCH   1   2
ATOM      2  CB  LYS A 131      28.345  25.722  17.026  1.00 20.94     0.034 C 
BRANCH   2   3
ATOM      3  CG  LYS A 131      27.599  24.435  16.710  1.00 22.96     0.005 C 
BRANCH   3   4
ATOM      4  CD  LYS A 131      27.025  23.795  17.943  1.00 24.33     0.041 C 
BRANCH   4   5
ATOM      5  CE  LYS A 131      25.783  24.562  18.384  1.00 26.91     0.338 C 
ATOM      6  NZ  LYS A 131      25.423  24.211  19.778  1.00 27.40     0.618 N 
ENDBRANCH   4   5
ENDBRANCH   3   4
ENDBRANCH   2   3
ENDBRANCH   1   2
END_RES LYS A 131
BEGIN_RES LYS A 135
REMARK  4 active torsions:
REMARK  status: ('A' for Active; 'I' for Inactive)
REMARK    5  A    between atoms: CA   and  CB  
REMARK    6  A    between atoms: CB   and  CG  
REMARK    7  A    between atoms: CG   and  CD  
REMARK    8  A    between atoms: CD   and  CE  
ROOT
ATOM      7  CA  LYS A 135      33.193  34.663   9.290  1.00 25.02     0.186 C 
ENDROOT
BRANCH   7   8
ATOM      8  CB  LYS A 135      32.060  35.360  10.034  1.00 26.63     0.034 C 
BRANCH   8   9
ATOM      9  CG  LYS A 135      30.691  35.007   9.513  1.00 29.45     0.005 C 
BRANCH   9  10
ATOM     10  CD  LYS A 135      29.609  35.596  10.406  1.00 32.00     0.041 C 
BRANCH  10  11
ATOM     11  CE  LYS A 135      30.077  35.647  11.847  1.00 34.25     0.338 C 
ATOM     12  NZ  LYS A 135      29.406  34.600  12.666  1.00 35.99     0.618 N 
ENDBRANCH  10  11
ENDBRANCH   9  10
ENDBRANCH   8   9
ENDBRANCH   7   8
END_RES LYS A 135
