REMARK VINA RESULT:    -4.117      2.117      5.297
REMARK INTER + INTRA:         -14.409
REMARK INTER:                  -9.057
REMARK INTRA:                  -5.352
REMARK UNBOUND:                -7.042
REMARK SMILES CC(=O)N[C@@H]1[C@@H](O)C[C@](O)(C(=O)O)O[C@H]1C(O)[C@H](O)CNC(=O)OCc1cn(-c2ncccc2C#N)nn1
REMARK SMILES IDX 21 1 22 2 23 3 20 5 18 6 16 7 15 8 9 9 8 10 14 11 6 12 5 13
REMARK SMILES IDX 10 14 11 16 12 17 13 18 7 20 4 22 2 23 1 25 3 26 17 27 19 29
REMARK SMILES IDX 24 31 25 32 26 33 27 34 38 35 28 36 37 37 29 38 30 39 34 40
REMARK SMILES IDX 31 41 33 42 32 43 35 44 36 45
REMARK H PARENT 21 4 10 15 13 19 7 21 4 24 17 28 19 30
REMARK Flexibility Score: inf
ROOT
ATOM      1  N   UNL     1      29.982  38.535  11.561  1.00  0.00    -0.319 N 
ATOM      2  C   UNL     1      28.737  38.620  12.273  1.00  0.00     0.407 C 
ATOM      3  O   UNL     1      28.130  39.690  12.389  1.00  0.00    -0.225 OA
ATOM      4  H   UNL     1      30.372  37.535  11.528  1.00  0.00     0.167 HD
ENDROOT
BRANCH   1   5
ATOM      5  C   UNL     1      30.615  39.591  10.930  1.00  0.00     0.154 C 
BRANCH   5   6
ATOM      6  C   UNL     1      30.388  39.774   9.408  1.00  0.00     0.165 C 
BRANCH   6   7
ATOM      7  C   UNL     1      30.363  38.391   8.881  1.00  0.00     0.176 C 
BRANCH   7   8
ATOM      8  C   UNL     1      29.062  37.708   8.655  1.00  0.00     0.178 C 
ATOM      9  C   UNL     1      29.066  35.407   8.168  1.00  0.00     0.269 C 
ATOM     10  C   UNL     1      27.701  35.424   7.525  1.00  0.00     0.112 C 
ATOM     11  O   UNL     1      29.192  36.384   9.158  1.00  0.00    -0.332 OA
ATOM     12  C   UNL     1      27.173  36.871   7.440  1.00  0.00     0.145 C 
ATOM     13  C   UNL     1      28.468  37.711   7.321  1.00  0.00     0.142 C 
BRANCH   9  14
ATOM     14  O   UNL     1      30.059  35.451   7.202  1.00  0.00    -0.357 OA
ATOM     15  H   UNL     1      29.887  36.057   6.466  1.00  0.00     0.214 HD
ENDBRANCH   9  14
BRANCH   9  16
ATOM     16  C   UNL     1      29.145  34.133   8.912  1.00  0.00     0.364 C 
ATOM     17  O   UNL     1      30.044  33.435   9.182  1.00  0.00    -0.246 OA
BRANCH  16  18
ATOM     18  O   UNL     1      27.816  33.696   9.392  1.00  0.00    -0.477 OA
ATOM     19  H   UNL     1      27.166  34.450   9.626  1.00  0.00     0.296 HD
ENDBRANCH  16  18
ENDBRANCH   9  16
BRANCH  12  20
ATOM     20  O   UNL     1      26.359  37.038   6.349  1.00  0.00    -0.391 OA
ATOM     21  H   UNL     1      26.055  36.187   5.988  1.00  0.00     0.211 HD
ENDBRANCH  12  20
BRANCH  13  22
ATOM     22  N   UNL     1      28.061  39.043   6.850  1.00  0.00    -0.348 N 
ATOM     23  C   UNL     1      28.783  39.631   5.801  1.00  0.00     0.217 C 
ATOM     24  H   UNL     1      27.272  39.499   7.267  1.00  0.00     0.163 HD
ATOM     25  C   UNL     1      28.696  40.836   5.062  1.00  0.00     0.114 C 
ATOM     26  O   UNL     1      29.788  38.785   5.435  1.00  0.00    -0.275 OA
ENDBRANCH  13  22
ENDBRANCH   7   8
BRANCH   7  27
ATOM     27  O   UNL     1      31.350  38.184   7.961  1.00  0.00    -0.388 OA
ATOM     28  H   UNL     1      32.173  37.795   8.361  1.00  0.00     0.211 HD
ENDBRANCH   7  27
ENDBRANCH   6   7
BRANCH   6  29
ATOM     29  O   UNL     1      31.382  40.614   8.996  1.00  0.00    -0.388 OA
ATOM     30  H   UNL     1      31.992  40.803   9.752  1.00  0.00     0.211 HD
ENDBRANCH   6  29
ENDBRANCH   5   6
ENDBRANCH   1   5
BRANCH   2  31
ATOM     31  O   UNL     1      28.208  37.458  12.838  1.00  0.00    -0.443 OA
BRANCH  31  32
ATOM     32  C   UNL     1      26.836  37.408  13.284  1.00  0.00     0.294 C 
BRANCH  32  33
ATOM     33  C   UNL     1      26.136  36.736  12.129  1.00  0.00     0.121 A 
ATOM     34  C   UNL     1      24.992  37.154  11.518  1.00  0.00     0.146 A 
ATOM     35  N   UNL     1      26.597  35.667  11.479  1.00  0.00    -0.131 NA
ATOM     36  N   UNL     1      24.798  36.292  10.472  1.00  0.00    -0.201 N 
ATOM     37  N   UNL     1      25.800  35.402  10.485  1.00  0.00    -0.060 NA
BRANCH  36  38
ATOM     38  C   UNL     1      23.771  36.325   9.534  1.00  0.00     0.173 A 
ATOM     39  N   UNL     1      23.885  37.118   8.389  1.00  0.00    -0.236 NA
ATOM     40  C   UNL     1      22.546  35.704   9.656  1.00  0.00     0.097 A 
ATOM     41  C   UNL     1      22.914  37.218   7.582  1.00  0.00     0.113 A 
ATOM     42  C   UNL     1      21.540  35.820   8.805  1.00  0.00     0.025 A 
ATOM     43  C   UNL     1      21.629  36.622   7.631  1.00  0.00     0.022 A 
BRANCH  40  44
ATOM     44  C   UNL     1      22.301  34.880  10.902  1.00  0.00     0.103 C 
ATOM     45  N   UNL     1      22.143  34.315  11.725  1.00  0.00    -0.192 NA
ENDBRANCH  40  44
ENDBRANCH  36  38
ENDBRANCH  32  33
ENDBRANCH  31  32
ENDBRANCH   2  31
TORSDOF 16
BEGIN_RES LYS A 131
REMARK  4 active torsions:
REMARK  status: ('A' for Active; 'I' for Inactive)
REMARK    1  A    between atoms: CA   and  CB  
REMARK    2  A    between atoms: CB   and  CG  
REMARK    3  A    between atoms: CG   and  CD  
REMARK    4  A    between atoms: CD   and  CE  
ROOT
ATOM      1  CA  LYS A 131      29.867  25.555  16.977  1.00 20.52     0.186 C 
ENDROOT
BRANCH   1   2
ATOM      2  CB  LYS A 131      28.345  25.722  17.026  1.00 20.94     0.034 C 
BRANCH   2   3
ATOM      3  CG  LYS A 131      27.601  24.403  16.887  1.00 22.96     0.005 C 
BRANCH   3   4
ATOM      4  CD  LYS A 131      26.620  24.185  18.005  1.00 24.33     0.041 C 
BRANCH   4   5
ATOM      5  CE  LYS A 131      25.744  22.978  17.686  1.00 26.91     0.338 C 
ATOM      6  NZ  LYS A 131      24.659  22.845  18.687  1.00 27.40     0.618 N 
ENDBRANCH   4   5
ENDBRANCH   3   4
ENDBRANCH   2   3
ENDBRANCH   1   2
END_RES LYS A 131
BEGIN_RES LYS A 135
REMARK  4 active torsions:
REMARK  status: ('A' for Active; 'I' for Inactive)
REMARK    5  A    between atoms: CA   and  CB  
REMARK    6  A    between atoms: CB   and  CG  
REMARK    7  A    between atoms: CG   and  CD  
REMARK    8  A    between atoms: CD   and  CE  
ROOT
ATOM      7  CA  LYS A 135      33.193  34.663   9.290  1.00 25.02     0.186 C 
ENDROOT
BRANCH   7   8
ATOM      8  CB  LYS A 135      32.060  35.360  10.034  1.00 26.63     0.034 C 
BRANCH   8   9
ATOM      9  CG  LYS A 135      32.525  36.178  11.211  1.00 29.45     0.005 C 
BRANCH   9  10
ATOM     10  CD  LYS A 135      31.954  35.626  12.508  1.00 32.00     0.041 C 
BRANCH  10  11
ATOM     11  CE  LYS A 135      30.639  34.914  12.250  1.00 34.25     0.338 C 
ATOM     12  NZ  LYS A 135      30.061  34.382  13.515  1.00 35.99     0.618 N 
ENDBRANCH  10  11
ENDBRANCH   9  10
ENDBRANCH   8   9
ENDBRANCH   7   8
END_RES LYS A 135
