REMARK VINA RESULT:    -5.056      3.328      6.467
REMARK INTER + INTRA:         -15.808
REMARK INTER:                  -9.768
REMARK INTRA:                  -6.040
REMARK UNBOUND:                -6.317
REMARK SMILES CC(=O)N[C@@H]1[C@@H](O)C[C@](O)(C(=O)O)O[C@H]1C(O)[C@H](O)CNC(=O)OCc1cn(-c2cccc(C=CC(=O)O)c2)nn1
REMARK SMILES IDX 21 1 22 2 23 3 20 5 18 6 16 7 15 8 9 9 8 10 14 11 6 12 5 13
REMARK SMILES IDX 10 14 11 16 12 17 13 18 7 20 4 22 2 23 1 25 3 26 17 27 19 29
REMARK SMILES IDX 24 31 25 32 26 33 27 34 41 35 28 36 40 37 29 38 39 39 30 40
REMARK SMILES IDX 33 41 31 42 32 43 34 44 35 45 36 46 37 47 38 48
REMARK H PARENT 21 4 10 15 13 19 7 21 4 24 17 28 19 30 38 49
REMARK Flexibility Score: inf
ROOT
ATOM      1  N   UNL     1      23.575  36.974  10.346  1.00  0.00    -0.319 N 
ATOM      2  C   UNL     1      23.050  35.813  10.959  1.00  0.00     0.407 C 
ATOM      3  O   UNL     1      21.999  35.261  10.571  1.00  0.00    -0.225 OA
ATOM      4  H   UNL     1      24.483  37.358  10.781  1.00  0.00     0.167 HD
ENDROOT
BRANCH   1   5
ATOM      5  C   UNL     1      23.016  37.665   9.220  1.00  0.00     0.154 C 
BRANCH   5   6
ATOM      6  C   UNL     1      23.672  37.240   7.945  1.00  0.00     0.165 C 
BRANCH   6   7
ATOM      7  C   UNL     1      25.018  37.892   7.697  1.00  0.00     0.176 C 
BRANCH   7   8
ATOM      8  C   UNL     1      26.108  36.884   7.700  1.00  0.00     0.178 C 
ATOM      9  C   UNL     1      27.621  35.577   8.856  1.00  0.00     0.269 C 
ATOM     10  C   UNL     1      27.888  35.036   7.479  1.00  0.00     0.112 C 
ATOM     11  O   UNL     1      26.539  36.435   8.908  1.00  0.00    -0.332 OA
ATOM     12  C   UNL     1      27.985  36.053   6.402  1.00  0.00     0.145 C 
ATOM     13  C   UNL     1      27.293  37.321   6.840  1.00  0.00     0.142 C 
BRANCH   9  14
ATOM     14  O   UNL     1      28.789  36.143   9.364  1.00  0.00    -0.357 OA
ATOM     15  H   UNL     1      28.796  36.179  10.344  1.00  0.00     0.214 HD
ENDBRANCH   9  14
BRANCH   9  16
ATOM     16  C   UNL     1      27.292  34.413   9.725  1.00  0.00     0.364 C 
ATOM     17  O   UNL     1      28.015  33.362   9.661  1.00  0.00    -0.246 OA
BRANCH  16  18
ATOM     18  O   UNL     1      26.221  34.426  10.608  1.00  0.00    -0.477 OA
ATOM     19  H   UNL     1      25.613  33.643  10.738  1.00  0.00     0.296 HD
ENDBRANCH  16  18
ENDBRANCH   9  16
BRANCH  12  20
ATOM     20  O   UNL     1      29.289  36.297   5.981  1.00  0.00    -0.391 OA
ATOM     21  H   UNL     1      29.853  35.538   6.202  1.00  0.00     0.211 HD
ENDBRANCH  12  20
BRANCH  13  22
ATOM     22  N   UNL     1      26.904  38.151   5.743  1.00  0.00    -0.348 N 
ATOM     23  C   UNL     1      27.759  39.141   5.193  1.00  0.00     0.217 C 
ATOM     24  H   UNL     1      25.947  38.058   5.290  1.00  0.00     0.163 HD
ATOM     25  C   UNL     1      27.315  39.975   4.060  1.00  0.00     0.114 C 
ATOM     26  O   UNL     1      28.910  39.327   5.661  1.00  0.00    -0.275 OA
ENDBRANCH  13  22
ENDBRANCH   7   8
BRANCH   7  27
ATOM     27  O   UNL     1      25.232  38.989   8.525  1.00  0.00    -0.388 OA
ATOM     28  H   UNL     1      25.681  38.671   9.338  1.00  0.00     0.211 HD
ENDBRANCH   7  27
ENDBRANCH   6   7
BRANCH   6  29
ATOM     29  O   UNL     1      22.855  37.475   6.837  1.00  0.00    -0.388 OA
ATOM     30  H   UNL     1      23.437  37.701   6.060  1.00  0.00     0.211 HD
ENDBRANCH   6  29
ENDBRANCH   5   6
ENDBRANCH   1   5
BRANCH   2  31
ATOM     31  O   UNL     1      23.703  35.216  12.058  1.00  0.00    -0.443 OA
BRANCH  31  32
ATOM     32  C   UNL     1      24.160  36.028  13.092  1.00  0.00     0.294 C 
BRANCH  32  33
ATOM     33  C   UNL     1      25.634  36.185  13.093  1.00  0.00     0.121 A 
ATOM     34  C   UNL     1      26.412  37.286  12.823  1.00  0.00     0.144 A 
ATOM     35  N   UNL     1      26.504  35.202  13.381  1.00  0.00    -0.131 NA
ATOM     36  N   UNL     1      27.722  36.958  12.949  1.00  0.00    -0.220 N 
ATOM     37  N   UNL     1      27.744  35.683  13.289  1.00  0.00    -0.062 NA
BRANCH  36  38
ATOM     38  C   UNL     1      28.819  37.851  12.743  1.00  0.00     0.067 A 
ATOM     39  C   UNL     1      28.971  38.529  11.562  1.00  0.00     0.036 A 
ATOM     40  C   UNL     1      29.750  38.043  13.736  1.00  0.00     0.028 A 
ATOM     41  C   UNL     1      30.060  39.419  11.348  1.00  0.00    -0.023 A 
ATOM     42  C   UNL     1      30.816  38.881  13.594  1.00  0.00     0.003 A 
ATOM     43  C   UNL     1      30.953  39.569  12.376  1.00  0.00     0.008 A 
BRANCH  41  44
ATOM     44  C   UNL     1      30.139  40.125  10.118  1.00  0.00     0.015 C 
ATOM     45  C   UNL     1      30.584  39.955   8.934  1.00  0.00     0.094 C 
BRANCH  45  46
ATOM     46  C   UNL     1      31.242  38.925   8.235  1.00  0.00     0.328 C 
ATOM     47  O   UNL     1      32.244  39.264   7.425  1.00  0.00    -0.247 OA
BRANCH  46  48
ATOM     48  O   UNL     1      31.059  37.565   8.206  1.00  0.00    -0.478 OA
ATOM     49  H   UNL     1      31.637  36.914   8.713  1.00  0.00     0.297 HD
ENDBRANCH  46  48
ENDBRANCH  45  46
ENDBRANCH  41  44
ENDBRANCH  36  38
ENDBRANCH  32  33
ENDBRANCH  31  32
ENDBRANCH   2  31
TORSDOF 18
BEGIN_RES LYS A 131
REMARK  4 active torsions:
REMARK  status: ('A' for Active; 'I' for Inactive)
REMARK    1  A    between atoms: CA   and  CB  
REMARK    2  A    between atoms: CB   and  CG  
REMARK    3  A    between atoms: CG   and  CD  
REMARK    4  A    between atoms: CD   and  CE  
ROOT
ATOM      1  CA  LYS A 131      29.867  25.555  16.977  1.00 20.52     0.186 C 
ENDROOT
BRANCH   1   2
ATOM      2  CB  LYS A 131      28.345  25.722  17.026  1.00 20.94     0.034 C 
BRANCH   2   3
ATOM      3  CG  LYS A 131      27.599  24.476  16.574  1.00 22.96     0.005 C 
BRANCH   3   4
ATOM      4  CD  LYS A 131      27.085  23.671  17.736  1.00 24.33     0.041 C 
BRANCH   4   5
ATOM      5  CE  LYS A 131      25.716  24.197  18.154  1.00 26.91     0.338 C 
ATOM      6  NZ  LYS A 131      24.863  24.428  16.964  1.00 27.40     0.618 N 
ENDBRANCH   4   5
ENDBRANCH   3   4
ENDBRANCH   2   3
ENDBRANCH   1   2
END_RES LYS A 131
BEGIN_RES LYS A 135
REMARK  4 active torsions:
REMARK  status: ('A' for Active; 'I' for Inactive)
REMARK    5  A    between atoms: CA   and  CB  
REMARK    6  A    between atoms: CB   and  CG  
REMARK    7  A    between atoms: CG   and  CD  
REMARK    8  A    between atoms: CD   and  CE  
ROOT
ATOM      7  CA  LYS A 135      33.193  34.663   9.290  1.00 25.02     0.186 C 
ENDROOT
BRANCH   7   8
ATOM      8  CB  LYS A 135      32.060  35.360  10.034  1.00 26.63     0.034 C 
BRANCH   8   9
ATOM      9  CG  LYS A 135      32.518  36.127  11.248  1.00 29.45     0.005 C 
BRANCH   9  10
ATOM     10  CD  LYS A 135      31.934  35.523  12.516  1.00 32.00     0.041 C 
BRANCH  10  11
ATOM     11  CE  LYS A 135      33.023  35.297  13.548  1.00 34.25     0.338 C 
ATOM     12  NZ  LYS A 135      32.696  35.979  14.831  1.00 35.99     0.618 N 
ENDBRANCH  10  11
ENDBRANCH   9  10
ENDBRANCH   8   9
ENDBRANCH   7   8
END_RES LYS A 135
