REMARK VINA RESULT:    -4.592      7.074     11.974
REMARK INTER + INTRA:         -16.596
REMARK INTER:                  -9.780
REMARK INTRA:                  -6.816
REMARK UNBOUND:                -7.171
REMARK SMILES CCOCCc1c(-c2ccccc2)nc(N)nc1-n1cc(COC(=O)NC[C@@H](O)C(O)[C@@H]2O[C@@](O)(C(=O)O)C[C@H](O)[C@H]2NC(C)=O)nn1
REMARK SMILES IDX 23 1 24 2 26 3 25 5 27 6 28 7 30 8 32 9 34 10 39 11 33 12
REMARK SMILES IDX 40 13 42 14 35 15 36 17 37 18 38 19 41 21 43 23 44 24 45 26
REMARK SMILES IDX 46 27 31 28 29 30 22 32 21 33 20 34 47 35 19 36 48 37 18 38
REMARK SMILES IDX 17 39 6 40 15 41 7 42 14 43 5 44 4 45 3 46 2 47 1 48 16 49
REMARK SMILES IDX 8 52 9 53 13 54 10 55 12 56 11 57
REMARK H PARENT 26 4 35 16 38 20 41 22 43 25 31 29 29 31 16 50 16 51
REMARK Flexibility Score: inf
ROOT
ATOM      1  O   UNL     1      33.095  31.086  22.382  1.00  0.00    -0.443 OA
ENDROOT
BRANCH   1   2
ATOM      2  C   UNL     1      33.046  29.776  22.803  1.00  0.00     0.407 C 
ATOM      3  N   UNL     1      32.443  28.742  21.995  1.00  0.00    -0.319 N 
ATOM      4  H   UNL     1      32.056  29.075  21.089  1.00  0.00     0.167 HD
ATOM      5  O   UNL     1      33.544  29.493  23.921  1.00  0.00    -0.225 OA
BRANCH   3   6
ATOM      6  C   UNL     1      32.420  27.384  22.485  1.00  0.00     0.154 C 
BRANCH   6   7
ATOM      7  C   UNL     1      30.962  26.989  22.684  1.00  0.00     0.165 C 
BRANCH   7   8
ATOM      8  C   UNL     1      30.200  27.563  21.513  1.00  0.00     0.176 C 
BRANCH   8   9
ATOM      9  C   UNL     1      28.806  27.039  21.349  1.00  0.00     0.178 C 
ATOM     10  C   UNL     1      28.129  28.675  19.815  1.00  0.00     0.269 C 
ATOM     11  C   UNL     1      27.499  29.403  20.990  1.00  0.00     0.112 C 
ATOM     12  O   UNL     1      28.382  27.360  20.081  1.00  0.00    -0.332 OA
ATOM     13  C   UNL     1      26.802  28.379  21.862  1.00  0.00     0.145 C 
ATOM     14  C   UNL     1      27.837  27.381  22.420  1.00  0.00     0.142 C 
BRANCH  10  15
ATOM     15  O   UNL     1      29.282  29.402  19.493  1.00  0.00    -0.357 OA
ATOM     16  H   UNL     1      29.191  29.886  18.643  1.00  0.00     0.214 HD
ENDBRANCH  10  15
BRANCH  10  17
ATOM     17  C   UNL     1      27.237  28.726  18.637  1.00  0.00     0.364 C 
ATOM     18  O   UNL     1      26.181  29.384  18.698  1.00  0.00    -0.246 OA
BRANCH  17  19
ATOM     19  O   UNL     1      27.566  28.056  17.489  1.00  0.00    -0.477 OA
ATOM     20  H   UNL     1      28.280  27.341  17.420  1.00  0.00     0.296 HD
ENDBRANCH  17  19
ENDBRANCH  10  17
BRANCH  13  21
ATOM     21  O   UNL     1      26.097  28.986  22.875  1.00  0.00    -0.391 OA
ATOM     22  H   UNL     1      26.612  29.009  23.710  1.00  0.00     0.211 HD
ENDBRANCH  13  21
BRANCH  14  23
ATOM     23  N   UNL     1      27.035  26.225  22.844  1.00  0.00    -0.348 N 
ATOM     24  C   UNL     1      27.148  25.746  24.170  1.00  0.00     0.217 C 
ATOM     25  H   UNL     1      26.383  25.749  22.184  1.00  0.00     0.163 HD
ATOM     26  C   UNL     1      26.364  24.575  24.670  1.00  0.00     0.114 C 
ATOM     27  O   UNL     1      27.947  26.348  24.941  1.00  0.00    -0.275 OA
ENDBRANCH  14  23
ENDBRANCH   8   9
BRANCH   8  28
ATOM     28  O   UNL     1      30.910  27.034  20.385  1.00  0.00    -0.388 OA
ATOM     29  H   UNL     1      31.446  27.739  19.972  1.00  0.00     0.211 HD
ENDBRANCH   8  28
ENDBRANCH   7   8
BRANCH   7  30
ATOM     30  O   UNL     1      30.585  27.503  23.914  1.00  0.00    -0.388 OA
ATOM     31  H   UNL     1      29.929  26.932  24.368  1.00  0.00     0.211 HD
ENDBRANCH   7  30
ENDBRANCH   6   7
ENDBRANCH   3   6
ENDBRANCH   1   2
BRANCH   1  32
ATOM     32  C   UNL     1      32.128  32.075  22.660  1.00  0.00     0.294 C 
BRANCH  32  33
ATOM     33  C   UNL     1      31.220  32.235  21.480  1.00  0.00     0.121 A 
ATOM     34  C   UNL     1      31.512  32.038  20.154  1.00  0.00     0.146 A 
ATOM     35  N   UNL     1      29.924  32.615  21.508  1.00  0.00    -0.131 NA
ATOM     36  N   UNL     1      30.405  32.296  19.393  1.00  0.00    -0.202 N 
ATOM     37  N   UNL     1      29.470  32.641  20.269  1.00  0.00    -0.060 NA
BRANCH  36  38
ATOM     38  C   UNL     1      30.311  32.223  17.982  1.00  0.00     0.164 A 
ATOM     39  N   UNL     1      29.693  31.199  17.377  1.00  0.00    -0.193 NA
ATOM     40  C   UNL     1      30.889  33.211  17.175  1.00  0.00     0.026 A 
ATOM     41  C   UNL     1      29.624  31.112  16.024  1.00  0.00     0.222 A 
ATOM     42  C   UNL     1      30.824  33.124  15.814  1.00  0.00     0.081 A 
ATOM     43  N   UNL     1      30.174  32.047  15.242  1.00  0.00    -0.213 NA
BRANCH  40  44
ATOM     44  C   UNL     1      31.600  34.326  17.834  1.00  0.00     0.070 C 
BRANCH  44  45
ATOM     45  C   UNL     1      30.821  35.608  17.929  1.00  0.00     0.165 C 
BRANCH  45  46
ATOM     46  O   UNL     1      29.924  35.608  18.961  1.00  0.00    -0.381 OA
BRANCH  46  47
ATOM     47  C   UNL     1      30.162  36.566  19.918  1.00  0.00     0.156 C 
ATOM     48  C   UNL     1      30.990  36.022  21.064  1.00  0.00     0.035 C 
ENDBRANCH  46  47
ENDBRANCH  45  46
ENDBRANCH  44  45
ENDBRANCH  40  44
BRANCH  41  49
ATOM     49  N   UNL     1      28.961  30.014  15.429  1.00  0.00    -0.368 N 
ATOM     50  H   UNL     1      29.297  29.049  15.597  1.00  0.00     0.159 HD
ATOM     51  H   UNL     1      28.133  30.139  14.817  1.00  0.00     0.159 HD
ENDBRANCH  41  49
BRANCH  42  52
ATOM     52  C   UNL     1      31.499  34.051  14.927  1.00  0.00     0.001 A 
ATOM     53  C   UNL     1      32.818  34.181  14.692  1.00  0.00     0.010 A 
ATOM     54  C   UNL     1      30.646  34.915  14.203  1.00  0.00     0.010 A 
ATOM     55  C   UNL     1      33.303  35.129  13.770  1.00  0.00     0.001 A 
ATOM     56  C   UNL     1      31.104  35.839  13.306  1.00  0.00     0.001 A 
ATOM     57  C   UNL     1      32.463  35.962  13.073  1.00  0.00     0.000 A 
ENDBRANCH  42  52
ENDBRANCH  36  38
ENDBRANCH  32  33
ENDBRANCH   1  32
TORSDOF 21
BEGIN_RES LYS A 131
REMARK  4 active torsions:
REMARK  status: ('A' for Active; 'I' for Inactive)
REMARK    1  A    between atoms: CA   and  CB  
REMARK    2  A    between atoms: CB   and  CG  
REMARK    3  A    between atoms: CG   and  CD  
REMARK    4  A    between atoms: CD   and  CE  
ROOT
ATOM      1  CA  LYS A 131      29.867  25.555  16.977  1.00 20.52     0.186 C 
ENDROOT
BRANCH   1   2
ATOM      2  CB  LYS A 131      28.345  25.722  17.026  1.00 20.94     0.034 C 
BRANCH   2   3
ATOM      3  CG  LYS A 131      27.601  24.402  16.892  1.00 22.96     0.005 C 
BRANCH   3   4
ATOM      4  CD  LYS A 131      26.154  24.526  17.281  1.00 24.33     0.041 C 
BRANCH   4   5
ATOM      5  CE  LYS A 131      26.005  24.272  18.778  1.00 26.91     0.338 C 
ATOM      6  NZ  LYS A 131      25.582  25.510  19.474  1.00 27.40     0.618 N 
ENDBRANCH   4   5
ENDBRANCH   3   4
ENDBRANCH   2   3
ENDBRANCH   1   2
END_RES LYS A 131
BEGIN_RES LYS A 135
REMARK  4 active torsions:
REMARK  status: ('A' for Active; 'I' for Inactive)
REMARK    5  A    between atoms: CA   and  CB  
REMARK    6  A    between atoms: CB   and  CG  
REMARK    7  A    between atoms: CG   and  CD  
REMARK    8  A    between atoms: CD   and  CE  
ROOT
ATOM      7  CA  LYS A 135      33.193  34.663   9.290  1.00 25.02     0.186 C 
ENDROOT
BRANCH   7   8
ATOM      8  CB  LYS A 135      32.060  35.360  10.034  1.00 26.63     0.034 C 
BRANCH   8   9
ATOM      9  CG  LYS A 135      30.704  34.761   9.764  1.00 29.45     0.005 C 
BRANCH   9  10
ATOM     10  CD  LYS A 135      30.512  34.517   8.275  1.00 32.00     0.041 C 
BRANCH  10  11
ATOM     11  CE  LYS A 135      29.332  35.315   7.753  1.00 34.25     0.338 C 
ATOM     12  NZ  LYS A 135      29.406  36.735   8.195  1.00 35.99     0.618 N 
ENDBRANCH  10  11
ENDBRANCH   9  10
ENDBRANCH   8   9
ENDBRANCH   7   8
END_RES LYS A 135
