REMARK VINA RESULT:    -5.098      2.574      4.828
REMARK INTER + INTRA:         -14.581
REMARK INTER:                  -8.306
REMARK INTRA:                  -6.275
REMARK UNBOUND:                -5.012
REMARK SMILES CC(=O)N[C@@H]1[C@@H](O)C[C@](O)(C(=O)O)O[C@H]1C(O)[C@H](O)CNC(=O)OCc1cn(CC(O)c2ccccc2)nn1
REMARK SMILES IDX 21 1 22 2 23 3 20 5 18 6 16 7 15 8 9 9 8 10 14 11 6 12 5 13
REMARK SMILES IDX 10 14 11 16 12 17 13 18 7 20 4 22 2 23 1 25 3 26 17 27 19 29
REMARK SMILES IDX 24 31 25 32 26 33 27 34 39 35 28 36 38 37 29 38 30 39 31 40
REMARK SMILES IDX 32 42 33 43 37 44 34 45 36 46 35 47
REMARK H PARENT 21 4 10 15 13 19 7 21 4 24 17 28 19 30 31 41
REMARK Flexibility Score: inf
ROOT
ATOM      1  N   UNL     1      33.068  29.660  23.753  1.00  0.00    -0.319 N 
ATOM      2  C   UNL     1      32.605  30.934  24.164  1.00  0.00     0.407 C 
ATOM      3  O   UNL     1      32.289  31.103  25.363  1.00  0.00    -0.225 OA
ATOM      4  H   UNL     1      33.319  29.602  22.718  1.00  0.00     0.167 HD
ENDROOT
BRANCH   1   5
ATOM      5  C   UNL     1      33.207  28.511  24.619  1.00  0.00     0.154 C 
BRANCH   5   6
ATOM      6  C   UNL     1      32.808  27.224  23.929  1.00  0.00     0.165 C 
BRANCH   6   7
ATOM      7  C   UNL     1      31.905  27.524  22.731  1.00  0.00     0.176 C 
BRANCH   7   8
ATOM      8  C   UNL     1      30.587  26.798  22.767  1.00  0.00     0.178 C 
ATOM      9  C   UNL     1      29.656  27.931  20.943  1.00  0.00     0.269 C 
ATOM     10  C   UNL     1      29.373  29.066  21.842  1.00  0.00     0.112 C 
ATOM     11  O   UNL     1      30.085  26.758  21.464  1.00  0.00    -0.332 OA
ATOM     12  C   UNL     1      29.159  28.762  23.291  1.00  0.00     0.145 C 
ATOM     13  C   UNL     1      29.634  27.392  23.713  1.00  0.00     0.142 C 
BRANCH   9  14
ATOM     14  O   UNL     1      30.698  28.369  20.071  1.00  0.00    -0.357 OA
ATOM     15  H   UNL     1      31.500  27.884  20.366  1.00  0.00     0.214 HD
ENDBRANCH   9  14
BRANCH   9  16
ATOM     16  C   UNL     1      28.472  27.744  20.022  1.00  0.00     0.364 C 
ATOM     17  O   UNL     1      27.773  28.707  19.631  1.00  0.00    -0.246 OA
BRANCH  16  18
ATOM     18  O   UNL     1      28.134  26.466  19.585  1.00  0.00    -0.477 OA
ATOM     19  H   UNL     1      28.040  25.673  20.200  1.00  0.00     0.296 HD
ENDBRANCH  16  18
ENDBRANCH   9  16
BRANCH  12  20
ATOM     20  O   UNL     1      29.788  29.764  24.083  1.00  0.00    -0.391 OA
ATOM     21  H   UNL     1      29.635  30.614  23.628  1.00  0.00     0.211 HD
ENDBRANCH  12  20
BRANCH  13  22
ATOM     22  N   UNL     1      28.431  26.601  23.919  1.00  0.00    -0.348 N 
ATOM     23  C   UNL     1      28.311  25.580  24.892  1.00  0.00     0.217 C 
ATOM     24  H   UNL     1      27.631  26.834  23.290  1.00  0.00     0.163 HD
ATOM     25  C   UNL     1      27.068  24.792  25.077  1.00  0.00     0.114 C 
ATOM     26  O   UNL     1      29.330  25.376  25.602  1.00  0.00    -0.275 OA
ENDBRANCH  13  22
ENDBRANCH   7   8
BRANCH   7  27
ATOM     27  O   UNL     1      32.654  26.921  21.649  1.00  0.00    -0.388 OA
ATOM     28  H   UNL     1      32.239  26.096  21.354  1.00  0.00     0.211 HD
ENDBRANCH   7  27
ENDBRANCH   6   7
BRANCH   6  29
ATOM     29  O   UNL     1      32.226  26.385  24.851  1.00  0.00    -0.388 OA
ATOM     30  H   UNL     1      32.246  26.839  25.726  1.00  0.00     0.211 HD
ENDBRANCH   6  29
ENDBRANCH   5   6
ENDBRANCH   1   5
BRANCH   2  31
ATOM     31  O   UNL     1      32.484  32.010  23.297  1.00  0.00    -0.443 OA
BRANCH  31  32
ATOM     32  C   UNL     1      31.511  33.022  23.471  1.00  0.00     0.294 C 
BRANCH  32  33
ATOM     33  C   UNL     1      30.408  32.789  22.517  1.00  0.00     0.120 A 
ATOM     34  C   UNL     1      30.522  32.672  21.141  1.00  0.00     0.138 A 
ATOM     35  N   UNL     1      29.084  32.640  22.758  1.00  0.00    -0.132 NA
ATOM     36  N   UNL     1      29.306  32.464  20.605  1.00  0.00    -0.249 N 
ATOM     37  N   UNL     1      28.459  32.451  21.606  1.00  0.00    -0.067 NA
BRANCH  36  38
ATOM     38  C   UNL     1      29.027  32.290  19.174  1.00  0.00     0.182 C 
BRANCH  38  39
ATOM     39  C   UNL     1      30.150  31.498  18.552  1.00  0.00     0.166 C 
BRANCH  39  40
ATOM     40  O   UNL     1      29.577  30.319  18.024  1.00  0.00    -0.386 OA
ATOM     41  H   UNL     1      29.692  29.580  18.682  1.00  0.00     0.211 HD
ENDBRANCH  39  40
BRANCH  39  42
ATOM     42  C   UNL     1      30.734  32.256  17.427  1.00  0.00    -0.018 A 
ATOM     43  C   UNL     1      30.747  31.777  16.133  1.00  0.00     0.006 A 
ATOM     44  C   UNL     1      31.299  33.513  17.681  1.00  0.00     0.006 A 
ATOM     45  C   UNL     1      31.294  32.498  15.101  1.00  0.00     0.000 A 
ATOM     46  C   UNL     1      31.844  34.232  16.656  1.00  0.00     0.000 A 
ATOM     47  C   UNL     1      31.842  33.729  15.375  1.00  0.00     0.000 A 
ENDBRANCH  39  42
ENDBRANCH  38  39
ENDBRANCH  36  38
ENDBRANCH  32  33
ENDBRANCH  31  32
ENDBRANCH   2  31
TORSDOF 18
BEGIN_RES LYS A 131
REMARK  4 active torsions:
REMARK  status: ('A' for Active; 'I' for Inactive)
REMARK    1  A    between atoms: CA   and  CB  
REMARK    2  A    between atoms: CB   and  CG  
REMARK    3  A    between atoms: CG   and  CD  
REMARK    4  A    between atoms: CD   and  CE  
ROOT
ATOM      1  CA  LYS A 131      29.867  25.555  16.977  1.00 20.52     0.186 C 
ENDROOT
BRANCH   1   2
ATOM      2  CB  LYS A 131      28.345  25.722  17.026  1.00 20.94     0.034 C 
BRANCH   2   3
ATOM      3  CG  LYS A 131      27.599  24.477  16.571  1.00 22.96     0.005 C 
BRANCH   3   4
ATOM      4  CD  LYS A 131      27.015  23.713  17.727  1.00 24.33     0.041 C 
BRANCH   4   5
ATOM      5  CE  LYS A 131      25.554  24.111  17.914  1.00 26.91     0.338 C 
ATOM      6  NZ  LYS A 131      24.658  23.088  17.325  1.00 27.40     0.618 N 
ENDBRANCH   4   5
ENDBRANCH   3   4
ENDBRANCH   2   3
ENDBRANCH   1   2
END_RES LYS A 131
BEGIN_RES LYS A 135
REMARK  4 active torsions:
REMARK  status: ('A' for Active; 'I' for Inactive)
REMARK    5  A    between atoms: CA   and  CB  
REMARK    6  A    between atoms: CB   and  CG  
REMARK    7  A    between atoms: CG   and  CD  
REMARK    8  A    between atoms: CD   and  CE  
ROOT
ATOM      7  CA  LYS A 135      33.193  34.663   9.290  1.00 25.02     0.186 C 
ENDROOT
BRANCH   7   8
ATOM      8  CB  LYS A 135      32.060  35.360  10.034  1.00 26.63     0.034 C 
BRANCH   8   9
ATOM      9  CG  LYS A 135      30.714  34.718   9.820  1.00 29.45     0.005 C 
BRANCH   9  10
ATOM     10  CD  LYS A 135      30.033  35.295   8.588  1.00 32.00     0.041 C 
BRANCH  10  11
ATOM     11  CE  LYS A 135      28.726  34.576   8.315  1.00 34.25     0.338 C 
ATOM     12  NZ  LYS A 135      28.282  33.801   9.506  1.00 35.99     0.618 N 
ENDBRANCH  10  11
ENDBRANCH   9  10
ENDBRANCH   8   9
ENDBRANCH   7   8
END_RES LYS A 135
