REMARK VINA RESULT:    -5.046      4.091      7.293
REMARK INTER + INTRA:         -15.822
REMARK INTER:                  -8.593
REMARK INTRA:                  -7.229
REMARK UNBOUND:                -5.909
REMARK SMILES CC(=O)N[C@@H]1[C@@H](O)C[C@](O)(C(=O)O)O[C@H]1C(O)[C@H](O)CNC(=O)OCc1cn(CCNC(=O)NCc2ccco2)nn1
REMARK SMILES IDX 24 1 22 2 21 3 23 5 20 6 18 7 16 8 15 9 9 10 8 11 14 12 6 13
REMARK SMILES IDX 5 14 10 15 11 17 12 18 13 19 7 21 4 23 2 24 1 26 3 27 17 28
REMARK SMILES IDX 19 30 25 32 26 33 27 34 42 35 28 36 41 37 29 38 30 39 31 40
REMARK SMILES IDX 32 41 33 43 34 44 35 46 36 47 37 48 40 49 38 50 39 51
REMARK H PARENT 21 4 10 16 13 20 7 22 4 25 17 29 19 31 31 42 34 45
REMARK Flexibility Score: inf
ROOT
ATOM      1  O   UNL     1      27.308  35.513  14.406  1.00  0.00    -0.443 OA
ENDROOT
BRANCH   1   2
ATOM      2  C   UNL     1      28.026  36.430  13.644  1.00  0.00     0.407 C 
ATOM      3  N   UNL     1      28.536  37.641  14.132  1.00  0.00    -0.319 N 
ATOM      4  H   UNL     1      28.388  37.901  15.118  1.00  0.00     0.167 HD
ATOM      5  O   UNL     1      28.225  36.143  12.434  1.00  0.00    -0.225 OA
BRANCH   3   6
ATOM      6  C   UNL     1      29.280  38.535  13.239  1.00  0.00     0.154 C 
BRANCH   6   7
ATOM      7  C   UNL     1      30.754  38.342  13.477  1.00  0.00     0.165 C 
BRANCH   7   8
ATOM      8  C   UNL     1      31.089  38.207  14.936  1.00  0.00     0.176 C 
BRANCH   8   9
ATOM      9  C   UNL     1      31.776  36.911  15.257  1.00  0.00     0.178 C 
ATOM     10  C   UNL     1      31.996  34.771  14.345  1.00  0.00     0.269 C 
ATOM     11  C   UNL     1      32.300  34.188  15.687  1.00  0.00     0.112 C 
ATOM     12  O   UNL     1      31.306  35.940  14.354  1.00  0.00    -0.332 OA
ATOM     13  C   UNL     1      32.351  35.146  16.807  1.00  0.00     0.145 C 
ATOM     14  C   UNL     1      31.441  36.345  16.615  1.00  0.00     0.142 C 
BRANCH  10  15
ATOM     15  O   UNL     1      31.156  33.822  13.706  1.00  0.00    -0.357 OA
ATOM     16  H   UNL     1      30.644  33.302  14.374  1.00  0.00     0.214 HD
ENDBRANCH  10  15
BRANCH  10  17
ATOM     17  C   UNL     1      33.199  34.907  13.488  1.00  0.00     0.364 C 
ATOM     18  O   UNL     1      34.346  34.571  13.900  1.00  0.00    -0.246 OA
BRANCH  17  19
ATOM     19  O   UNL     1      33.146  35.408  12.193  1.00  0.00    -0.477 OA
ATOM     20  H   UNL     1      34.004  35.575  11.678  1.00  0.00     0.296 HD
ENDBRANCH  17  19
ENDBRANCH  10  17
BRANCH  13  21
ATOM     21  O   UNL     1      32.020  34.491  18.012  1.00  0.00    -0.391 OA
ATOM     22  H   UNL     1      31.561  35.088  18.636  1.00  0.00     0.211 HD
ENDBRANCH  13  21
BRANCH  14  23
ATOM     23  N   UNL     1      31.558  37.247  17.709  1.00  0.00    -0.348 N 
ATOM     24  C   UNL     1      30.408  37.499  18.519  1.00  0.00     0.217 C 
ATOM     25  H   UNL     1      32.434  37.743  17.977  1.00  0.00     0.163 HD
ATOM     26  C   UNL     1      30.426  38.418  19.677  1.00  0.00     0.114 C 
ATOM     27  O   UNL     1      29.315  36.920  18.252  1.00  0.00    -0.275 OA
ENDBRANCH  14  23
ENDBRANCH   8   9
BRANCH   8  28
ATOM     28  O   UNL     1      31.707  39.322  15.470  1.00  0.00    -0.388 OA
ATOM     29  H   UNL     1      31.735  39.330  16.460  1.00  0.00     0.211 HD
ENDBRANCH   8  28
ENDBRANCH   7   8
BRANCH   7  30
ATOM     30  O   UNL     1      31.366  39.558  13.067  1.00  0.00    -0.388 OA
ATOM     31  H   UNL     1      30.848  40.264  13.565  1.00  0.00     0.211 HD
ENDBRANCH   7  30
ENDBRANCH   6   7
ENDBRANCH   3   6
ENDBRANCH   1   2
BRANCH   1  32
ATOM     32  C   UNL     1      27.567  35.337  15.782  1.00  0.00     0.294 C 
BRANCH  32  33
ATOM     33  C   UNL     1      28.315  34.072  15.953  1.00  0.00     0.120 A 
ATOM     34  C   UNL     1      28.836  33.571  17.115  1.00  0.00     0.138 A 
ATOM     35  N   UNL     1      28.613  33.191  14.985  1.00  0.00    -0.132 NA
ATOM     36  N   UNL     1      29.434  32.402  16.823  1.00  0.00    -0.250 N 
ATOM     37  N   UNL     1      29.296  32.174  15.527  1.00  0.00    -0.067 NA
BRANCH  36  38
ATOM     38  C   UNL     1      30.127  31.509  17.755  1.00  0.00     0.167 C 
BRANCH  38  39
ATOM     39  C   UNL     1      29.077  30.716  18.488  1.00  0.00     0.141 C 
BRANCH  39  40
ATOM     40  N   UNL     1      28.290  29.972  17.537  1.00  0.00    -0.336 N 
ATOM     41  C   UNL     1      26.888  30.096  17.393  1.00  0.00     0.315 C 
ATOM     42  H   UNL     1      28.765  29.280  16.891  1.00  0.00     0.165 HD
ATOM     43  O   UNL     1      26.278  30.915  18.144  1.00  0.00    -0.249 OA
ATOM     44  N   UNL     1      26.202  29.315  16.427  1.00  0.00    -0.331 N 
ATOM     45  H   UNL     1      26.675  28.638  15.801  1.00  0.00     0.165 HD
BRANCH  44  46
ATOM     46  C   UNL     1      24.769  29.469  16.309  1.00  0.00     0.193 C 
BRANCH  46  47
ATOM     47  C   UNL     1      24.460  29.943  14.942  1.00  0.00     0.122 A 
ATOM     48  C   UNL     1      23.668  29.243  14.039  1.00  0.00     0.047 A 
ATOM     49  O   UNL     1      24.860  31.041  14.382  1.00  0.00    -0.467 OA
ATOM     50  C   UNL     1      23.634  30.020  12.902  1.00  0.00     0.042 A 
ATOM     51  C   UNL     1      24.399  31.136  13.173  1.00  0.00     0.195 A 
ENDBRANCH  46  47
ENDBRANCH  44  46
ENDBRANCH  39  40
ENDBRANCH  38  39
ENDBRANCH  36  38
ENDBRANCH  32  33
ENDBRANCH   1  32
TORSDOF 19
BEGIN_RES LYS A 131
REMARK  4 active torsions:
REMARK  status: ('A' for Active; 'I' for Inactive)
REMARK    1  A    between atoms: CA   and  CB  
REMARK    2  A    between atoms: CB   and  CG  
REMARK    3  A    between atoms: CG   and  CD  
REMARK    4  A    between atoms: CD   and  CE  
ROOT
ATOM      1  CA  LYS A 131      29.867  25.555  16.977  1.00 20.52     0.186 C 
ENDROOT
BRANCH   1   2
ATOM      2  CB  LYS A 131      28.345  25.722  17.026  1.00 20.94     0.034 C 
BRANCH   2   3
ATOM      3  CG  LYS A 131      27.599  24.481  16.561  1.00 22.96     0.005 C 
BRANCH   3   4
ATOM      4  CD  LYS A 131      27.296  23.543  17.697  1.00 24.33     0.041 C 
BRANCH   4   5
ATOM      5  CE  LYS A 131      25.794  23.288  17.759  1.00 26.91     0.338 C 
ATOM      6  NZ  LYS A 131      25.064  24.283  16.939  1.00 27.40     0.618 N 
ENDBRANCH   4   5
ENDBRANCH   3   4
ENDBRANCH   2   3
ENDBRANCH   1   2
END_RES LYS A 131
BEGIN_RES LYS A 135
REMARK  4 active torsions:
REMARK  status: ('A' for Active; 'I' for Inactive)
REMARK    5  A    between atoms: CA   and  CB  
REMARK    6  A    between atoms: CB   and  CG  
REMARK    7  A    between atoms: CG   and  CD  
REMARK    8  A    between atoms: CD   and  CE  
ROOT
ATOM      7  CA  LYS A 135      33.193  34.663   9.290  1.00 25.02     0.186 C 
ENDROOT
BRANCH   7   8
ATOM      8  CB  LYS A 135      32.060  35.360  10.034  1.00 26.63     0.034 C 
BRANCH   8   9
ATOM      9  CG  LYS A 135      30.900  35.736   9.149  1.00 29.45     0.005 C 
BRANCH   9  10
ATOM     10  CD  LYS A 135      30.166  34.493   8.669  1.00 32.00     0.041 C 
BRANCH  10  11
ATOM     11  CE  LYS A 135      29.030  34.871   7.738  1.00 34.25     0.338 C 
ATOM     12  NZ  LYS A 135      27.709  34.665   8.393  1.00 35.99     0.618 N 
ENDBRANCH  10  11
ENDBRANCH   9  10
ENDBRANCH   8   9
ENDBRANCH   7   8
END_RES LYS A 135
