REMARK VINA RESULT:    -5.512      3.890      7.860
REMARK INTER + INTRA:         -14.025
REMARK INTER:                  -9.444
REMARK INTRA:                  -4.581
REMARK UNBOUND:                -4.485
REMARK SMILES CC(=O)N[C@@H]1[C@@H](O)C[C@](O)(C(=O)O)O[C@H]1C(O)[C@H](O)CNC(=O)OCc1cn(-c2ccccc2)nn1
REMARK SMILES IDX 20 1 18 2 16 3 15 4 9 5 8 6 14 7 6 8 5 9 10 10 11 12 12 13
REMARK SMILES IDX 13 14 7 16 4 18 2 19 1 21 3 22 17 23 19 25 21 27 22 28 23 30
REMARK SMILES IDX 24 31 25 32 26 33 27 34 36 35 28 36 35 37 29 38 30 39 34 40
REMARK SMILES IDX 31 41 33 42 32 43
REMARK H PARENT 10 11 13 15 7 17 4 20 17 24 19 26 21 29
REMARK Flexibility Score: inf
ROOT
ATOM      1  C   UNL     1      24.473  39.351   8.456  1.00  0.00     0.154 C 
ENDROOT
BRANCH   1   2
ATOM      2  C   UNL     1      25.944  39.028   8.627  1.00  0.00     0.165 C 
BRANCH   2   3
ATOM      3  C   UNL     1      26.506  38.309   7.421  1.00  0.00     0.176 C 
BRANCH   3   4
ATOM      4  C   UNL     1      27.868  37.750   7.665  1.00  0.00     0.178 C 
ATOM      5  C   UNL     1      29.449  39.315   6.909  1.00  0.00     0.269 C 
ATOM      6  C   UNL     1      29.650  38.610   5.614  1.00  0.00     0.112 C 
ATOM      7  O   UNL     1      28.842  38.647   7.904  1.00  0.00    -0.332 OA
ATOM      8  C   UNL     1      28.718  37.461   5.370  1.00  0.00     0.145 C 
ATOM      9  C   UNL     1      28.305  36.760   6.625  1.00  0.00     0.142 C 
BRANCH   5  10
ATOM     10  O   UNL     1      28.682  40.465   6.622  1.00  0.00    -0.357 OA
ATOM     11  H   UNL     1      27.737  40.161   6.516  1.00  0.00     0.214 HD
ENDBRANCH   5  10
BRANCH   5  12
ATOM     12  C   UNL     1      30.752  39.827   7.413  1.00  0.00     0.364 C 
ATOM     13  O   UNL     1      30.930  41.023   7.730  1.00  0.00    -0.246 OA
BRANCH  12  14
ATOM     14  O   UNL     1      31.819  38.966   7.545  1.00  0.00    -0.477 OA
ATOM     15  H   UNL     1      32.149  38.593   8.426  1.00  0.00     0.296 HD
ENDBRANCH  12  14
ENDBRANCH   5  12
BRANCH   8  16
ATOM     16  O   UNL     1      27.580  37.899   4.670  1.00  0.00    -0.391 OA
ATOM     17  H   UNL     1      27.474  38.870   4.700  1.00  0.00     0.211 HD
ENDBRANCH   8  16
BRANCH   9  18
ATOM     18  N   UNL     1      29.486  36.072   7.152  1.00  0.00    -0.348 N 
ATOM     19  C   UNL     1      29.374  34.898   7.947  1.00  0.00     0.217 C 
ATOM     20  H   UNL     1      30.447  36.423   6.958  1.00  0.00     0.163 HD
ATOM     21  C   UNL     1      30.559  34.185   8.491  1.00  0.00     0.114 C 
ATOM     22  O   UNL     1      28.243  34.413   8.225  1.00  0.00    -0.275 OA
ENDBRANCH   9  18
ENDBRANCH   3   4
BRANCH   3  23
ATOM     23  O   UNL     1      25.585  37.287   7.138  1.00  0.00    -0.388 OA
ATOM     24  H   UNL     1      24.730  37.769   6.930  1.00  0.00     0.211 HD
ENDBRANCH   3  23
ENDBRANCH   2   3
BRANCH   2  25
ATOM     25  O   UNL     1      26.183  38.374   9.823  1.00  0.00    -0.388 OA
ATOM     26  H   UNL     1      25.589  37.611   9.973  1.00  0.00     0.211 HD
ENDBRANCH   2  25
ENDBRANCH   1   2
BRANCH   1  27
ATOM     27  N   UNL     1      23.613  38.571   9.289  1.00  0.00    -0.319 N 
ATOM     28  C   UNL     1      22.640  37.665   8.788  1.00  0.00     0.407 C 
ATOM     29  H   UNL     1      23.678  38.648  10.331  1.00  0.00     0.167 HD
ATOM     30  O   UNL     1      22.480  37.497   7.573  1.00  0.00    -0.225 OA
BRANCH  28  31
ATOM     31  O   UNL     1      21.827  36.931   9.645  1.00  0.00    -0.443 OA
BRANCH  31  32
ATOM     32  C   UNL     1      22.107  35.560   9.887  1.00  0.00     0.294 C 
BRANCH  32  33
ATOM     33  C   UNL     1      23.565  35.440  10.110  1.00  0.00     0.121 A 
ATOM     34  C   UNL     1      24.208  35.203  11.304  1.00  0.00     0.144 A 
ATOM     35  N   UNL     1      24.516  35.546   9.160  1.00  0.00    -0.131 NA
ATOM     36  N   UNL     1      25.521  35.176  11.022  1.00  0.00    -0.220 N 
ATOM     37  N   UNL     1      25.691  35.383   9.733  1.00  0.00    -0.062 NA
BRANCH  36  38
ATOM     38  C   UNL     1      26.552  34.958  11.978  1.00  0.00     0.066 A 
ATOM     39  C   UNL     1      26.211  34.669  13.288  1.00  0.00     0.028 A 
ATOM     40  C   UNL     1      27.883  35.033  11.610  1.00  0.00     0.028 A 
ATOM     41  C   UNL     1      27.238  34.463  14.191  1.00  0.00     0.002 A 
ATOM     42  C   UNL     1      28.889  34.824  12.519  1.00  0.00     0.002 A 
ATOM     43  C   UNL     1      28.556  34.536  13.825  1.00  0.00     0.000 A 
ENDBRANCH  36  38
ENDBRANCH  32  33
ENDBRANCH  31  32
ENDBRANCH  28  31
ENDBRANCH   1  27
TORSDOF 15
BEGIN_RES LYS A 131
REMARK  4 active torsions:
REMARK  status: ('A' for Active; 'I' for Inactive)
REMARK    1  A    between atoms: CA   and  CB  
REMARK    2  A    between atoms: CB   and  CG  
REMARK    3  A    between atoms: CG   and  CD  
REMARK    4  A    between atoms: CD   and  CE  
ROOT
ATOM      1  CA  LYS A 131      29.867  25.555  16.977  1.00 20.52     0.186 C 
ENDROOT
BRANCH   1   2
ATOM      2  CB  LYS A 131      28.345  25.722  17.026  1.00 20.94     0.034 C 
BRANCH   2   3
ATOM      3  CG  LYS A 131      27.602  24.398  16.933  1.00 22.96     0.005 C 
BRANCH   3   4
ATOM      4  CD  LYS A 131      26.545  24.266  17.993  1.00 24.33     0.041 C 
BRANCH   4   5
ATOM      5  CE  LYS A 131      26.147  25.652  18.491  1.00 26.91     0.338 C 
ATOM      6  NZ  LYS A 131      25.812  25.608  19.934  1.00 27.40     0.618 N 
ENDBRANCH   4   5
ENDBRANCH   3   4
ENDBRANCH   2   3
ENDBRANCH   1   2
END_RES LYS A 131
BEGIN_RES LYS A 135
REMARK  4 active torsions:
REMARK  status: ('A' for Active; 'I' for Inactive)
REMARK    5  A    between atoms: CA   and  CB  
REMARK    6  A    between atoms: CB   and  CG  
REMARK    7  A    between atoms: CG   and  CD  
REMARK    8  A    between atoms: CD   and  CE  
ROOT
ATOM      7  CA  LYS A 135      33.193  34.663   9.290  1.00 25.02     0.186 C 
ENDROOT
BRANCH   7   8
ATOM      8  CB  LYS A 135      32.060  35.360  10.034  1.00 26.63     0.034 C 
BRANCH   8   9
ATOM      9  CG  LYS A 135      32.535  36.378  11.038  1.00 29.45     0.005 C 
BRANCH   9  10
ATOM     10  CD  LYS A 135      32.512  35.798  12.443  1.00 32.00     0.041 C 
BRANCH  10  11
ATOM     11  CE  LYS A 135      31.937  36.801  13.425  1.00 34.25     0.338 C 
ATOM     12  NZ  LYS A 135      31.716  36.179  14.760  1.00 35.99     0.618 N 
ENDBRANCH  10  11
ENDBRANCH   9  10
ENDBRANCH   8   9
ENDBRANCH   7   8
END_RES LYS A 135
