REMARK VINA RESULT:    -5.782      4.232      8.312
REMARK INTER + INTRA:         -14.540
REMARK INTER:                 -10.007
REMARK INTRA:                  -4.533
REMARK UNBOUND:                -4.533
REMARK SMILES CC(=O)N[C@@H]1[C@@H](O)C[C@](O)(C(=O)O)O[C@H]1C(O)[C@H](O)CNC(=O)OCc1cn(-c2cnc3ccccc3c2)nn1
REMARK SMILES IDX 20 1 18 2 16 3 15 4 9 5 8 6 14 7 6 8 5 9 10 10 11 12 12 13
REMARK SMILES IDX 13 14 7 16 4 18 2 19 1 21 3 22 17 23 19 25 21 27 22 28 23 30
REMARK SMILES IDX 24 31 25 32 26 33 27 34 40 35 28 36 39 37 29 38 30 39 38 40
REMARK SMILES IDX 31 41 37 42 32 43 36 44 33 45 35 46 34 47
REMARK H PARENT 10 11 13 15 7 17 4 20 17 24 19 26 21 29
REMARK Flexibility Score: inf
ROOT
ATOM      1  C   UNL     1      24.988  31.606  14.849  1.00  0.00     0.154 C 
ENDROOT
BRANCH   1   2
ATOM      2  C   UNL     1      25.683  32.454  15.876  1.00  0.00     0.165 C 
BRANCH   2   3
ATOM      3  C   UNL     1      26.155  31.687  17.081  1.00  0.00     0.176 C 
BRANCH   3   4
ATOM      4  C   UNL     1      27.629  31.791  17.346  1.00  0.00     0.178 C 
ATOM      5  C   UNL     1      29.594  31.614  16.127  1.00  0.00     0.269 C 
ATOM      6  C   UNL     1      30.372  31.686  17.417  1.00  0.00     0.112 C 
ATOM      7  O   UNL     1      28.343  32.171  16.219  1.00  0.00    -0.332 OA
ATOM      8  C   UNL     1      29.607  31.051  18.529  1.00  0.00     0.145 C 
ATOM      9  C   UNL     1      28.197  30.618  18.069  1.00  0.00     0.142 C 
BRANCH   5  10
ATOM     10  O   UNL     1      29.596  30.289  15.701  1.00  0.00    -0.357 OA
ATOM     11  H   UNL     1      29.028  29.708  16.242  1.00  0.00     0.214 HD
ENDBRANCH   5  10
BRANCH   5  12
ATOM     12  C   UNL     1      30.359  32.396  15.110  1.00  0.00     0.364 C 
ATOM     13  O   UNL     1      29.745  33.285  14.467  1.00  0.00    -0.246 OA
BRANCH  12  14
ATOM     14  O   UNL     1      31.700  32.176  14.854  1.00  0.00    -0.477 OA
ATOM     15  H   UNL     1      32.019  31.240  14.585  1.00  0.00     0.296 HD
ENDBRANCH  12  14
ENDBRANCH   5  12
BRANCH   8  16
ATOM     16  O   UNL     1      30.292  29.929  19.030  1.00  0.00    -0.391 OA
ATOM     17  H   UNL     1      31.229  29.945  18.721  1.00  0.00     0.211 HD
ENDBRANCH   8  16
BRANCH   9  18
ATOM     18  N   UNL     1      27.386  30.390  19.268  1.00  0.00    -0.348 N 
ATOM     19  C   UNL     1      26.889  29.114  19.638  1.00  0.00     0.217 C 
ATOM     20  H   UNL     1      27.152  31.186  19.889  1.00  0.00     0.163 HD
ATOM     21  C   UNL     1      26.064  28.903  20.858  1.00  0.00     0.114 C 
ATOM     22  O   UNL     1      27.138  28.105  18.932  1.00  0.00    -0.275 OA
ENDBRANCH   9  18
ENDBRANCH   3   4
BRANCH   3  23
ATOM     23  O   UNL     1      25.408  32.158  18.180  1.00  0.00    -0.388 OA
ATOM     24  H   UNL     1      24.934  31.373  18.551  1.00  0.00     0.211 HD
ENDBRANCH   3  23
ENDBRANCH   2   3
BRANCH   2  25
ATOM     25  O   UNL     1      24.871  33.542  16.258  1.00  0.00    -0.388 OA
ATOM     26  H   UNL     1      24.493  33.262  17.151  1.00  0.00     0.211 HD
ENDBRANCH   2  25
ENDBRANCH   1   2
BRANCH   1  27
ATOM     27  N   UNL     1      24.032  32.411  14.127  1.00  0.00    -0.319 N 
ATOM     28  C   UNL     1      23.196  31.898  13.115  1.00  0.00     0.407 C 
ATOM     29  H   UNL     1      23.915  33.442  14.331  1.00  0.00     0.167 HD
ATOM     30  O   UNL     1      23.234  30.697  12.777  1.00  0.00    -0.225 OA
BRANCH  28  31
ATOM     31  O   UNL     1      22.272  32.697  12.426  1.00  0.00    -0.443 OA
BRANCH  31  32
ATOM     32  C   UNL     1      22.254  34.116  12.640  1.00  0.00     0.294 C 
BRANCH  32  33
ATOM     33  C   UNL     1      22.876  34.815  11.496  1.00  0.00     0.121 A 
ATOM     34  C   UNL     1      24.155  35.259  11.375  1.00  0.00     0.144 A 
ATOM     35  N   UNL     1      22.237  35.125  10.363  1.00  0.00    -0.131 NA
ATOM     36  N   UNL     1      24.242  35.836  10.142  1.00  0.00    -0.219 N 
ATOM     37  N   UNL     1      23.075  35.744   9.549  1.00  0.00    -0.062 NA
BRANCH  36  38
ATOM     38  C   UNL     1      25.394  36.437   9.583  1.00  0.00     0.085 A 
ATOM     39  C   UNL     1      26.086  37.381  10.322  1.00  0.00     0.140 A 
ATOM     40  C   UNL     1      25.801  36.072   8.320  1.00  0.00     0.040 A 
ATOM     41  N   UNL     1      27.179  37.952   9.791  1.00  0.00    -0.254 NA
ATOM     42  C   UNL     1      26.937  36.675   7.788  1.00  0.00     0.002 A 
ATOM     43  C   UNL     1      27.609  37.612   8.544  1.00  0.00     0.070 A 
ATOM     44  C   UNL     1      27.362  36.332   6.541  1.00  0.00     0.010 A 
ATOM     45  C   UNL     1      28.736  38.212   8.018  1.00  0.00     0.029 A 
ATOM     46  C   UNL     1      28.499  36.933   6.003  1.00  0.00     0.001 A 
ATOM     47  C   UNL     1      29.178  37.869   6.745  1.00  0.00     0.002 A 
ENDBRANCH  36  38
ENDBRANCH  32  33
ENDBRANCH  31  32
ENDBRANCH  28  31
ENDBRANCH   1  27
TORSDOF 15
BEGIN_RES LYS A 131
REMARK  4 active torsions:
REMARK  status: ('A' for Active; 'I' for Inactive)
REMARK    1  A    between atoms: CA   and  CB  
REMARK    2  A    between atoms: CB   and  CG  
REMARK    3  A    between atoms: CG   and  CD  
REMARK    4  A    between atoms: CD   and  CE  
ROOT
ATOM      1  CA  LYS A 131      29.867  25.555  16.977  1.00 20.52     0.186 C 
ENDROOT
BRANCH   1   2
ATOM      2  CB  LYS A 131      28.345  25.722  17.026  1.00 20.94     0.034 C 
BRANCH   2   3
ATOM      3  CG  LYS A 131      27.599  24.450  16.653  1.00 22.96     0.005 C 
BRANCH   3   4
ATOM      4  CD  LYS A 131      27.006  23.768  17.854  1.00 24.33     0.041 C 
BRANCH   4   5
ATOM      5  CE  LYS A 131      25.683  24.434  18.217  1.00 26.91     0.338 C 
ATOM      6  NZ  LYS A 131      24.741  24.374  17.075  1.00 27.40     0.618 N 
ENDBRANCH   4   5
ENDBRANCH   3   4
ENDBRANCH   2   3
ENDBRANCH   1   2
END_RES LYS A 131
BEGIN_RES LYS A 135
REMARK  4 active torsions:
REMARK  status: ('A' for Active; 'I' for Inactive)
REMARK    5  A    between atoms: CA   and  CB  
REMARK    6  A    between atoms: CB   and  CG  
REMARK    7  A    between atoms: CG   and  CD  
REMARK    8  A    between atoms: CD   and  CE  
ROOT
ATOM      7  CA  LYS A 135      33.193  34.663   9.290  1.00 25.02     0.186 C 
ENDROOT
BRANCH   7   8
ATOM      8  CB  LYS A 135      32.060  35.360  10.034  1.00 26.63     0.034 C 
BRANCH   8   9
ATOM      9  CG  LYS A 135      30.781  35.445   9.241  1.00 29.45     0.005 C 
BRANCH   9  10
ATOM     10  CD  LYS A 135      30.193  34.060   9.021  1.00 32.00     0.041 C 
BRANCH  10  11
ATOM     11  CE  LYS A 135      28.720  34.043   9.381  1.00 34.25     0.338 C 
ATOM     12  NZ  LYS A 135      28.506  34.488  10.787  1.00 35.99     0.618 N 
ENDBRANCH  10  11
ENDBRANCH   9  10
ENDBRANCH   8   9
ENDBRANCH   7   8
END_RES LYS A 135
