REMARK VINA RESULT:    -5.374      4.788      8.270
REMARK INTER + INTRA:         -13.848
REMARK INTER:                  -7.705
REMARK INTRA:                  -6.143
REMARK UNBOUND:                -4.548
REMARK SMILES CC(=O)N[C@@H]1[C@@H](O)C[C@](O)(C(=O)O)O[C@H]1C(O)[C@H](O)CNC(=O)OCc1cn(-c2ccc3c(c2)OCO3)nn1
REMARK SMILES IDX 20 1 18 2 16 3 15 4 9 5 8 6 14 7 6 8 5 9 10 10 11 12 12 13
REMARK SMILES IDX 13 14 7 16 4 18 2 19 1 21 3 22 17 23 19 25 21 27 22 28 23 30
REMARK SMILES IDX 24 31 25 32 26 33 27 34 39 35 28 36 38 37 29 38 30 39 34 40
REMARK SMILES IDX 31 41 33 42 32 43 35 44 37 45 36 46
REMARK H PARENT 10 11 13 15 7 17 4 20 17 24 19 26 21 29
REMARK Flexibility Score: inf
ROOT
ATOM      1  C   UNL     1      31.463  36.642  13.255  1.00  0.00     0.154 C 
ENDROOT
BRANCH   1   2
ATOM      2  C   UNL     1      31.916  35.221  13.243  1.00  0.00     0.165 C 
BRANCH   2   3
ATOM      3  C   UNL     1      32.978  34.973  14.327  1.00  0.00     0.176 C 
BRANCH   3   4
ATOM      4  C   UNL     1      32.276  34.420  15.515  1.00  0.00     0.178 C 
ATOM      5  C   UNL     1      30.295  33.664  16.352  1.00  0.00     0.269 C 
ATOM      6  C   UNL     1      31.215  33.364  17.516  1.00  0.00     0.112 C 
ATOM      7  O   UNL     1      30.948  34.119  15.233  1.00  0.00    -0.332 OA
ATOM      8  C   UNL     1      32.046  34.569  17.914  1.00  0.00     0.145 C 
ATOM      9  C   UNL     1      32.249  35.397  16.690  1.00  0.00     0.142 C 
BRANCH   5  10
ATOM     10  O   UNL     1      29.343  34.567  16.829  1.00  0.00    -0.357 OA
ATOM     11  H   UNL     1      28.652  34.016  17.286  1.00  0.00     0.214 HD
ENDBRANCH   5  10
BRANCH   5  12
ATOM     12  C   UNL     1      29.633  32.388  15.993  1.00  0.00     0.364 C 
ATOM     13  O   UNL     1      30.269  31.314  16.107  1.00  0.00    -0.246 OA
BRANCH  12  14
ATOM     14  O   UNL     1      28.329  32.325  15.533  1.00  0.00    -0.477 OA
ATOM     15  H   UNL     1      27.522  32.564  16.099  1.00  0.00     0.296 HD
ENDBRANCH  12  14
ENDBRANCH   5  12
BRANCH   8  16
ATOM     16  O   UNL     1      31.285  35.252  18.888  1.00  0.00    -0.391 OA
ATOM     17  H   UNL     1      30.346  35.290  18.633  1.00  0.00     0.211 HD
ENDBRANCH   8  16
BRANCH   9  18
ATOM     18  N   UNL     1      33.358  36.279  16.717  1.00  0.00    -0.348 N 
ATOM     19  C   UNL     1      33.379  37.603  17.232  1.00  0.00     0.217 C 
ATOM     20  H   UNL     1      34.260  35.934  16.321  1.00  0.00     0.163 HD
ATOM     21  C   UNL     1      34.607  38.453  17.212  1.00  0.00     0.114 C 
ATOM     22  O   UNL     1      32.312  38.045  17.715  1.00  0.00    -0.275 OA
ENDBRANCH   9  18
ENDBRANCH   3   4
BRANCH   3  23
ATOM     23  O   UNL     1      33.904  34.109  13.810  1.00  0.00    -0.388 OA
ATOM     24  H   UNL     1      33.629  33.212  13.593  1.00  0.00     0.211 HD
ENDBRANCH   3  23
ENDBRANCH   2   3
BRANCH   2  25
ATOM     25  O   UNL     1      32.457  34.864  12.036  1.00  0.00    -0.388 OA
ATOM     26  H   UNL     1      31.963  35.137  11.234  1.00  0.00     0.211 HD
ENDBRANCH   2  25
ENDBRANCH   1   2
BRANCH   1  27
ATOM     27  N   UNL     1      30.051  36.757  13.144  1.00  0.00    -0.319 N 
ATOM     28  C   UNL     1      29.202  36.996  14.237  1.00  0.00     0.407 C 
ATOM     29  H   UNL     1      29.575  36.661  12.196  1.00  0.00     0.167 HD
ATOM     30  O   UNL     1      29.571  37.123  15.417  1.00  0.00    -0.225 OA
BRANCH  28  31
ATOM     31  O   UNL     1      27.819  37.106  14.007  1.00  0.00    -0.443 OA
BRANCH  31  32
ATOM     32  C   UNL     1      26.941  37.074  15.091  1.00  0.00     0.294 C 
BRANCH  32  33
ATOM     33  C   UNL     1      26.357  35.712  15.204  1.00  0.00     0.121 A 
ATOM     34  C   UNL     1      25.477  35.115  14.308  1.00  0.00     0.144 A 
ATOM     35  N   UNL     1      26.550  34.794  16.167  1.00  0.00    -0.131 NA
ATOM     36  N   UNL     1      25.165  33.881  14.740  1.00  0.00    -0.220 N 
ATOM     37  N   UNL     1      25.836  33.726  15.867  1.00  0.00    -0.062 NA
BRANCH  36  38
ATOM     38  C   UNL     1      24.293  32.963  14.091  1.00  0.00     0.070 A 
ATOM     39  C   UNL     1      23.016  33.344  13.730  1.00  0.00     0.032 A 
ATOM     40  C   UNL     1      24.664  31.668  13.793  1.00  0.00     0.079 A 
ATOM     41  C   UNL     1      22.146  32.460  13.093  1.00  0.00     0.053 A 
ATOM     42  C   UNL     1      23.811  30.767  13.157  1.00  0.00     0.167 A 
ATOM     43  C   UNL     1      22.542  31.172  12.807  1.00  0.00     0.165 A 
ATOM     44  O   UNL     1      23.945  29.440  12.756  1.00  0.00    -0.454 OA
ATOM     45  O   UNL     1      21.925  30.068  12.192  1.00  0.00    -0.454 OA
ATOM     46  C   UNL     1      22.657  28.890  12.548  1.00  0.00     0.468 C 
ENDBRANCH  36  38
ENDBRANCH  32  33
ENDBRANCH  31  32
ENDBRANCH  28  31
ENDBRANCH   1  27
TORSDOF 15
BEGIN_RES LYS A 131
REMARK  4 active torsions:
REMARK  status: ('A' for Active; 'I' for Inactive)
REMARK    1  A    between atoms: CA   and  CB  
REMARK    2  A    between atoms: CB   and  CG  
REMARK    3  A    between atoms: CG   and  CD  
REMARK    4  A    between atoms: CD   and  CE  
ROOT
ATOM      1  CA  LYS A 131      29.867  25.555  16.977  1.00 20.52     0.186 C 
ENDROOT
BRANCH   1   2
ATOM      2  CB  LYS A 131      28.345  25.722  17.026  1.00 20.94     0.034 C 
BRANCH   2   3
ATOM      3  CG  LYS A 131      27.602  24.400  16.913  1.00 22.96     0.005 C 
BRANCH   3   4
ATOM      4  CD  LYS A 131      26.149  24.534  17.279  1.00 24.33     0.041 C 
BRANCH   4   5
ATOM      5  CE  LYS A 131      25.924  23.976  18.680  1.00 26.91     0.338 C 
ATOM      6  NZ  LYS A 131      25.647  25.073  19.637  1.00 27.40     0.618 N 
ENDBRANCH   4   5
ENDBRANCH   3   4
ENDBRANCH   2   3
ENDBRANCH   1   2
END_RES LYS A 131
BEGIN_RES LYS A 135
REMARK  4 active torsions:
REMARK  status: ('A' for Active; 'I' for Inactive)
REMARK    5  A    between atoms: CA   and  CB  
REMARK    6  A    between atoms: CB   and  CG  
REMARK    7  A    between atoms: CG   and  CD  
REMARK    8  A    between atoms: CD   and  CE  
ROOT
ATOM      7  CA  LYS A 135      33.193  34.663   9.290  1.00 25.02     0.186 C 
ENDROOT
BRANCH   7   8
ATOM      8  CB  LYS A 135      32.060  35.360  10.034  1.00 26.63     0.034 C 
BRANCH   8   9
ATOM      9  CG  LYS A 135      30.808  35.520   9.211  1.00 29.45     0.005 C 
BRANCH   9  10
ATOM     10  CD  LYS A 135      30.243  34.162   8.824  1.00 32.00     0.041 C 
BRANCH  10  11
ATOM     11  CE  LYS A 135      28.815  34.019   9.316  1.00 34.25     0.338 C 
ATOM     12  NZ  LYS A 135      28.672  34.535  10.705  1.00 35.99     0.618 N 
ENDBRANCH  10  11
ENDBRANCH   9  10
ENDBRANCH   8   9
ENDBRANCH   7   8
END_RES LYS A 135
