REMARK VINA RESULT:    -4.836      0.000      0.000
REMARK INTER + INTRA:         -17.043
REMARK INTER:                  -9.432
REMARK INTRA:                  -7.611
REMARK UNBOUND:                -7.118
REMARK SMILES CC(=O)N[C@@H]1[C@@H](O)C[C@](O)(C(=O)O)O[C@H]1C(O)[C@H](O)CNC(=O)OCc1cn(C[C@H](CC(=O)O)CC(C)C)nn1
REMARK SMILES IDX 24 1 22 2 21 3 23 5 20 6 18 7 16 8 15 9 9 10 8 11 14 12 6 13
REMARK SMILES IDX 5 14 10 15 11 17 12 18 13 19 7 21 4 23 2 24 1 26 3 27 17 28
REMARK SMILES IDX 19 30 25 32 26 33 27 34 40 35 28 36 39 37 29 38 30 39 31 40
REMARK SMILES IDX 32 41 33 42 34 43 35 45 36 46 37 47 38 48
REMARK H PARENT 21 4 10 16 13 20 7 22 4 25 17 29 19 31 34 44
REMARK Flexibility Score: inf
ROOT
ATOM      1  O   UNL     1      27.483  30.049  16.870  1.00  0.00    -0.443 OA
ENDROOT
BRANCH   1   2
ATOM      2  C   UNL     1      27.220  28.877  17.602  1.00  0.00     0.407 C 
ATOM      3  N   UNL     1      28.014  28.512  18.715  1.00  0.00    -0.319 N 
ATOM      4  H   UNL     1      28.813  29.179  18.960  1.00  0.00     0.167 HD
ATOM      5  O   UNL     1      26.257  28.163  17.235  1.00  0.00    -0.225 OA
BRANCH   3   6
ATOM      6  C   UNL     1      27.792  27.318  19.500  1.00  0.00     0.154 C 
BRANCH   6   7
ATOM      7  C   UNL     1      27.807  27.664  20.949  1.00  0.00     0.165 C 
BRANCH   7   8
ATOM      8  C   UNL     1      29.199  27.673  21.560  1.00  0.00     0.176 C 
BRANCH   8   9
ATOM      9  C   UNL     1      29.646  29.061  21.895  1.00  0.00     0.178 C 
ATOM     10  C   UNL     1      30.368  30.549  20.264  1.00  0.00     0.269 C 
ATOM     11  C   UNL     1      31.427  31.170  21.142  1.00  0.00     0.112 C 
ATOM     12  O   UNL     1      29.310  30.026  20.992  1.00  0.00    -0.332 OA
ATOM     13  C   UNL     1      31.430  30.567  22.531  1.00  0.00     0.145 C 
ATOM     14  C   UNL     1      31.111  29.081  22.321  1.00  0.00     0.142 C 
BRANCH  10  15
ATOM     15  O   UNL     1      30.927  29.603  19.400  1.00  0.00    -0.357 OA
ATOM     16  H   UNL     1      30.267  29.145  18.846  1.00  0.00     0.214 HD
ENDBRANCH  10  15
BRANCH  10  17
ATOM     17  C   UNL     1      29.811  31.633  19.411  1.00  0.00     0.364 C 
ATOM     18  O   UNL     1      28.552  31.733  19.295  1.00  0.00    -0.246 OA
BRANCH  17  19
ATOM     19  O   UNL     1      30.590  32.547  18.734  1.00  0.00    -0.477 OA
ATOM     20  H   UNL     1      31.590  32.341  18.585  1.00  0.00     0.296 HD
ENDBRANCH  17  19
ENDBRANCH  10  17
BRANCH  13  21
ATOM     21  O   UNL     1      32.612  30.757  23.203  1.00  0.00    -0.391 OA
ATOM     22  H   UNL     1      33.350  30.512  22.565  1.00  0.00     0.211 HD
ENDBRANCH  13  21
BRANCH  14  23
ATOM     23  N   UNL     1      31.248  28.348  23.555  1.00  0.00    -0.348 N 
ATOM     24  C   UNL     1      32.103  27.206  23.634  1.00  0.00     0.217 C 
ATOM     25  H   UNL     1      30.741  28.604  24.438  1.00  0.00     0.163 HD
ATOM     26  C   UNL     1      32.265  26.434  24.880  1.00  0.00     0.114 C 
ATOM     27  O   UNL     1      32.739  26.841  22.614  1.00  0.00    -0.275 OA
ENDBRANCH  14  23
ENDBRANCH   8   9
BRANCH   8  28
ATOM     28  O   UNL     1      30.080  26.961  20.781  1.00  0.00    -0.388 OA
ATOM     29  H   UNL     1      29.697  26.080  20.589  1.00  0.00     0.211 HD
ENDBRANCH   8  28
ENDBRANCH   7   8
BRANCH   7  30
ATOM     30  O   UNL     1      27.062  26.683  21.644  1.00  0.00    -0.388 OA
ATOM     31  H   UNL     1      26.307  26.361  21.101  1.00  0.00     0.211 HD
ENDBRANCH   7  30
ENDBRANCH   6   7
ENDBRANCH   3   6
ENDBRANCH   1   2
BRANCH   1  32
ATOM     32  C   UNL     1      28.512  30.000  15.914  1.00  0.00     0.294 C 
BRANCH  32  33
ATOM     33  C   UNL     1      29.215  31.288  15.777  1.00  0.00     0.120 A 
ATOM     34  C   UNL     1      28.710  32.562  15.566  1.00  0.00     0.138 A 
ATOM     35  N   UNL     1      30.542  31.449  15.838  1.00  0.00    -0.132 NA
ATOM     36  N   UNL     1      29.731  33.434  15.510  1.00  0.00    -0.252 N 
ATOM     37  N   UNL     1      30.826  32.737  15.676  1.00  0.00    -0.067 NA
BRANCH  36  38
ATOM     38  C   UNL     1      29.587  34.900  15.296  1.00  0.00     0.150 C 
BRANCH  38  39
ATOM     39  C   UNL     1      30.875  35.464  14.807  1.00  0.00     0.022 C 
BRANCH  39  40
ATOM     40  C   UNL     1      31.478  36.287  15.932  1.00  0.00     0.128 C 
BRANCH  40  41
ATOM     41  C   UNL     1      32.614  35.541  16.531  1.00  0.00     0.303 C 
ATOM     42  O   UNL     1      33.771  35.677  16.096  1.00  0.00    -0.252 OA
BRANCH  41  43
ATOM     43  O   UNL     1      32.328  34.683  17.597  1.00  0.00    -0.481 OA
ATOM     44  H   UNL     1      31.377  34.439  17.793  1.00  0.00     0.296 HD
ENDBRANCH  41  43
ENDBRANCH  40  41
ENDBRANCH  39  40
BRANCH  39  45
ATOM     45  C   UNL     1      30.760  36.172  13.521  1.00  0.00     0.009 C 
BRANCH  45  46
ATOM     46  C   UNL     1      31.965  36.836  12.973  1.00  0.00    -0.017 C 
ATOM     47  C   UNL     1      32.937  35.683  12.594  1.00  0.00     0.007 C 
ATOM     48  C   UNL     1      31.790  37.671  11.751  1.00  0.00     0.007 C 
ENDBRANCH  45  46
ENDBRANCH  39  45
ENDBRANCH  38  39
ENDBRANCH  36  38
ENDBRANCH  32  33
ENDBRANCH   1  32
TORSDOF 21
BEGIN_RES LYS A 131
REMARK  4 active torsions:
REMARK  status: ('A' for Active; 'I' for Inactive)
REMARK    1  A    between atoms: CA   and  CB  
REMARK    2  A    between atoms: CB   and  CG  
REMARK    3  A    between atoms: CG   and  CD  
REMARK    4  A    between atoms: CD   and  CE  
ROOT
ATOM      1  CA  LYS A 131      29.867  25.555  16.977  1.00 20.52     0.186 C 
ENDROOT
BRANCH   1   2
ATOM      2  CB  LYS A 131      28.345  25.722  17.026  1.00 20.94     0.034 C 
BRANCH   2   3
ATOM      3  CG  LYS A 131      27.601  24.403  16.880  1.00 22.96     0.005 C 
BRANCH   3   4
ATOM      4  CD  LYS A 131      26.516  24.249  17.909  1.00 24.33     0.041 C 
BRANCH   4   5
ATOM      5  CE  LYS A 131      25.160  24.177  17.213  1.00 26.91     0.338 C 
ATOM      6  NZ  LYS A 131      24.320  25.337  17.592  1.00 27.40     0.618 N 
ENDBRANCH   4   5
ENDBRANCH   3   4
ENDBRANCH   2   3
ENDBRANCH   1   2
END_RES LYS A 131
BEGIN_RES LYS A 135
REMARK  4 active torsions:
REMARK  status: ('A' for Active; 'I' for Inactive)
REMARK    5  A    between atoms: CA   and  CB  
REMARK    6  A    between atoms: CB   and  CG  
REMARK    7  A    between atoms: CG   and  CD  
REMARK    8  A    between atoms: CD   and  CE  
ROOT
ATOM      7  CA  LYS A 135      33.193  34.663   9.290  1.00 25.02     0.186 C 
ENDROOT
BRANCH   7   8
ATOM      8  CB  LYS A 135      32.060  35.360  10.034  1.00 26.63     0.034 C 
BRANCH   8   9
ATOM      9  CG  LYS A 135      30.704  34.762   9.763  1.00 29.45     0.005 C 
BRANCH   9  10
ATOM     10  CD  LYS A 135      30.545  34.440   8.285  1.00 32.00     0.041 C 
BRANCH  10  11
ATOM     11  CE  LYS A 135      29.254  35.028   7.748  1.00 34.25     0.338 C 
ATOM     12  NZ  LYS A 135      28.074  34.495   8.484  1.00 35.99     0.618 N 
ENDBRANCH  10  11
ENDBRANCH   9  10
ENDBRANCH   8   9
ENDBRANCH   7   8
END_RES LYS A 135
