REMARK VINA RESULT:    -3.829      2.415      4.446
REMARK INTER + INTRA:         -15.183
REMARK INTER:                  -7.745
REMARK INTRA:                  -7.438
REMARK UNBOUND:                -7.438
REMARK SMILES CC(=O)N[C@@H]1[C@@H](O)C[C@](O)(C(=O)O)O[C@H]1C(O)[C@H](O)CNC(=O)OCc1cn([C@@H](CCC(=O)O)C(=O)O)nn1
REMARK SMILES IDX 24 1 22 2 21 3 23 5 20 6 18 7 16 8 15 9 9 10 8 11 14 12 6 13
REMARK SMILES IDX 5 14 10 15 11 17 12 18 13 19 7 21 4 23 2 24 1 26 3 27 17 28
REMARK SMILES IDX 19 30 25 32 26 33 27 34 39 35 28 36 38 37 29 38 30 39 31 40
REMARK SMILES IDX 32 41 33 42 34 43 35 45 36 46 37 47
REMARK H PARENT 21 4 10 16 13 20 7 22 4 25 17 29 19 31 34 44 37 48
REMARK Flexibility Score: inf
ROOT
ATOM      1  O   UNL     1      28.752  41.155   8.942  1.00  0.00    -0.443 OA
ENDROOT
BRANCH   1   2
ATOM      2  C   UNL     1      27.453  41.386   8.475  1.00  0.00     0.407 C 
ATOM      3  N   UNL     1      27.082  41.179   7.138  1.00  0.00    -0.319 N 
ATOM      4  H   UNL     1      27.868  40.840   6.490  1.00  0.00     0.167 HD
ATOM      5  O   UNL     1      26.626  41.789   9.309  1.00  0.00    -0.225 OA
BRANCH   3   6
ATOM      6  C   UNL     1      25.783  41.372   6.559  1.00  0.00     0.154 C 
BRANCH   6   7
ATOM      7  C   UNL     1      25.016  40.110   6.497  1.00  0.00     0.165 C 
BRANCH   7   8
ATOM      8  C   UNL     1      23.950  40.002   7.571  1.00  0.00     0.176 C 
BRANCH   8   9
ATOM      9  C   UNL     1      24.227  38.795   8.474  1.00  0.00     0.178 C 
ATOM     10  C   UNL     1      22.232  37.585   8.659  1.00  0.00     0.269 C 
ATOM     11  C   UNL     1      21.837  38.647   9.646  1.00  0.00     0.112 C 
ATOM     12  O   UNL     1      23.491  37.702   8.157  1.00  0.00    -0.332 OA
ATOM     13  C   UNL     1      22.908  39.088  10.578  1.00  0.00     0.145 C 
ATOM     14  C   UNL     1      24.254  39.191   9.920  1.00  0.00     0.142 C 
BRANCH  10  15
ATOM     15  O   UNL     1      21.336  37.696   7.595  1.00  0.00    -0.357 OA
ATOM     16  H   UNL     1      20.883  36.848   7.407  1.00  0.00     0.214 HD
ENDBRANCH  10  15
BRANCH  10  17
ATOM     17  C   UNL     1      22.042  36.242   9.263  1.00  0.00     0.364 C 
ATOM     18  O   UNL     1      22.806  35.299   8.950  1.00  0.00    -0.246 OA
BRANCH  17  19
ATOM     19  O   UNL     1      21.029  35.982  10.181  1.00  0.00    -0.477 OA
ATOM     20  H   UNL     1      21.265  36.129  11.163  1.00  0.00     0.296 HD
ENDBRANCH  17  19
ENDBRANCH  10  17
BRANCH  13  21
ATOM     21  O   UNL     1      22.553  40.339  11.078  1.00  0.00    -0.391 OA
ATOM     22  H   UNL     1      23.242  40.684  11.706  1.00  0.00     0.211 HD
ENDBRANCH  13  21
BRANCH  14  23
ATOM     23  N   UNL     1      25.258  38.409  10.579  1.00  0.00    -0.348 N 
ATOM     24  C   UNL     1      25.853  38.892  11.772  1.00  0.00     0.217 C 
ATOM     25  H   UNL     1      25.556  37.472  10.178  1.00  0.00     0.163 HD
ATOM     26  C   UNL     1      26.889  38.089  12.453  1.00  0.00     0.114 C 
ATOM     27  O   UNL     1      25.533  39.998  12.286  1.00  0.00    -0.275 OA
ENDBRANCH  14  23
ENDBRANCH   8   9
BRANCH   8  28
ATOM     28  O   UNL     1      23.955  41.153   8.334  1.00  0.00    -0.388 OA
ATOM     29  H   UNL     1      23.709  41.917   7.754  1.00  0.00     0.211 HD
ENDBRANCH   8  28
ENDBRANCH   7   8
BRANCH   7  30
ATOM     30  O   UNL     1      25.802  39.008   6.404  1.00  0.00    -0.388 OA
ATOM     31  H   UNL     1      25.798  38.414   7.188  1.00  0.00     0.211 HD
ENDBRANCH   7  30
ENDBRANCH   6   7
ENDBRANCH   3   6
ENDBRANCH   1   2
BRANCH   1  32
ATOM     32  C   UNL     1      28.981  40.131   9.907  1.00  0.00     0.294 C 
BRANCH  32  33
ATOM     33  C   UNL     1      28.659  38.807   9.391  1.00  0.00     0.120 A 
ATOM     34  C   UNL     1      29.311  37.624   9.611  1.00  0.00     0.139 A 
ATOM     35  N   UNL     1      27.633  38.499   8.583  1.00  0.00    -0.132 NA
ATOM     36  N   UNL     1      28.692  36.633   8.953  1.00  0.00    -0.238 N 
ATOM     37  N   UNL     1      27.673  37.201   8.337  1.00  0.00    -0.066 NA
BRANCH  36  38
ATOM     38  C   UNL     1      28.986  35.214   8.862  1.00  0.00     0.219 C 
BRANCH  38  39
ATOM     39  C   UNL     1      27.729  34.424   8.841  1.00  0.00     0.051 C 
BRANCH  39  40
ATOM     40  C   UNL     1      27.176  34.034  10.160  1.00  0.00     0.125 C 
BRANCH  40  41
ATOM     41  C   UNL     1      26.067  34.874  10.608  1.00  0.00     0.303 C 
ATOM     42  O   UNL     1      25.646  34.835  11.816  1.00  0.00    -0.252 OA
BRANCH  41  43
ATOM     43  O   UNL     1      25.441  35.740   9.708  1.00  0.00    -0.481 OA
ATOM     44  H   UNL     1      24.490  35.527   9.444  1.00  0.00     0.296 HD
ENDBRANCH  41  43
ENDBRANCH  40  41
ENDBRANCH  39  40
ENDBRANCH  38  39
BRANCH  38  45
ATOM     45  C   UNL     1      30.001  34.889   7.875  1.00  0.00     0.328 C 
ATOM     46  O   UNL     1      31.054  34.291   8.088  1.00  0.00    -0.250 OA
BRANCH  45  47
ATOM     47  O   UNL     1      29.756  35.305   6.553  1.00  0.00    -0.480 OA
ATOM     48  H   UNL     1      29.305  36.191   6.403  1.00  0.00     0.296 HD
ENDBRANCH  45  47
ENDBRANCH  38  45
ENDBRANCH  36  38
ENDBRANCH  32  33
ENDBRANCH   1  32
TORSDOF 21
BEGIN_RES LYS A 131
REMARK  4 active torsions:
REMARK  status: ('A' for Active; 'I' for Inactive)
REMARK    1  A    between atoms: CA   and  CB  
REMARK    2  A    between atoms: CB   and  CG  
REMARK    3  A    between atoms: CG   and  CD  
REMARK    4  A    between atoms: CD   and  CE  
ROOT
ATOM      1  CA  LYS A 131      29.867  25.555  16.977  1.00 20.52     0.186 C 
ENDROOT
BRANCH   1   2
ATOM      2  CB  LYS A 131      28.345  25.722  17.026  1.00 20.94     0.034 C 
BRANCH   2   3
ATOM      3  CG  LYS A 131      27.599  24.431  16.725  1.00 22.96     0.005 C 
BRANCH   3   4
ATOM      4  CD  LYS A 131      26.938  23.860  17.949  1.00 24.33     0.041 C 
BRANCH   4   5
ATOM      5  CE  LYS A 131      25.602  23.235  17.561  1.00 26.91     0.338 C 
ATOM      6  NZ  LYS A 131      24.715  24.248  16.943  1.00 27.40     0.618 N 
ENDBRANCH   4   5
ENDBRANCH   3   4
ENDBRANCH   2   3
ENDBRANCH   1   2
END_RES LYS A 131
BEGIN_RES LYS A 135
REMARK  4 active torsions:
REMARK  status: ('A' for Active; 'I' for Inactive)
REMARK    5  A    between atoms: CA   and  CB  
REMARK    6  A    between atoms: CB   and  CG  
REMARK    7  A    between atoms: CG   and  CD  
REMARK    8  A    between atoms: CD   and  CE  
ROOT
ATOM      7  CA  LYS A 135      33.193  34.663   9.290  1.00 25.02     0.186 C 
ENDROOT
BRANCH   7   8
ATOM      8  CB  LYS A 135      32.060  35.360  10.034  1.00 26.63     0.034 C 
BRANCH   8   9
ATOM      9  CG  LYS A 135      32.525  36.172  11.215  1.00 29.45     0.005 C 
BRANCH   9  10
ATOM     10  CD  LYS A 135      31.435  36.252  12.274  1.00 32.00     0.041 C 
BRANCH  10  11
ATOM     11  CE  LYS A 135      30.814  34.887  12.503  1.00 34.25     0.338 C 
ATOM     12  NZ  LYS A 135      29.338  34.991  12.670  1.00 35.99     0.618 N 
ENDBRANCH  10  11
ENDBRANCH   9  10
ENDBRANCH   8   9
ENDBRANCH   7   8
END_RES LYS A 135
