REMARK VINA RESULT:    -5.198      5.355      9.133
REMARK INTER + INTRA:         -14.591
REMARK INTER:                  -9.194
REMARK INTRA:                  -5.397
REMARK UNBOUND:                -5.290
REMARK SMILES CC(=O)N[C@@H]1[C@@H](O)C[C@](O)(C(=O)O)O[C@H]1C(O)[C@H](O)CNC(=O)OCc1cn(Cc2ccccc2)nn1
REMARK SMILES IDX 21 1 22 2 23 3 20 5 18 6 16 7 15 8 9 9 8 10 14 11 6 12 5 13
REMARK SMILES IDX 10 14 11 16 12 17 13 18 7 20 4 22 2 23 1 25 3 26 17 27 19 29
REMARK SMILES IDX 24 31 25 32 26 33 27 34 37 35 28 36 36 37 29 38 30 39 31 40
REMARK SMILES IDX 35 41 32 42 34 43 33 44
REMARK H PARENT 21 4 10 15 13 19 7 21 4 24 17 28 19 30
REMARK Flexibility Score: inf
ROOT
ATOM      1  N   UNL     1      26.136  37.113  13.047  1.00  0.00    -0.319 N 
ATOM      2  C   UNL     1      26.281  37.138  11.645  1.00  0.00     0.407 C 
ATOM      3  O   UNL     1      27.390  37.085  11.090  1.00  0.00    -0.225 OA
ATOM      4  H   UNL     1      25.145  37.159  13.401  1.00  0.00     0.167 HD
ENDROOT
BRANCH   1   5
ATOM      5  C   UNL     1      27.245  37.031  13.947  1.00  0.00     0.154 C 
BRANCH   5   6
ATOM      6  C   UNL     1      27.114  35.796  14.809  1.00  0.00     0.165 C 
BRANCH   6   7
ATOM      7  C   UNL     1      27.992  34.683  14.314  1.00  0.00     0.176 C 
BRANCH   7   8
ATOM      8  C   UNL     1      29.157  34.383  15.228  1.00  0.00     0.178 C 
ATOM      9  C   UNL     1      31.467  34.663  15.014  1.00  0.00     0.269 C 
ATOM     10  C   UNL     1      31.563  33.750  16.246  1.00  0.00     0.112 C 
ATOM     11  O   UNL     1      30.220  35.212  15.037  1.00  0.00    -0.332 OA
ATOM     12  C   UNL     1      30.750  32.521  15.843  1.00  0.00     0.145 C 
ATOM     13  C   UNL     1      29.420  32.919  15.245  1.00  0.00     0.142 C 
BRANCH   9  14
ATOM     14  O   UNL     1      31.795  33.967  13.869  1.00  0.00    -0.357 OA
ATOM     15  H   UNL     1      31.568  33.022  14.002  1.00  0.00     0.214 HD
ENDBRANCH   9  14
BRANCH   9  16
ATOM     16  C   UNL     1      32.448  35.782  15.247  1.00  0.00     0.364 C 
ATOM     17  O   UNL     1      32.187  36.960  14.924  1.00  0.00    -0.246 OA
BRANCH  16  18
ATOM     18  O   UNL     1      33.672  35.519  15.831  1.00  0.00    -0.477 OA
ATOM     19  H   UNL     1      34.350  36.262  15.887  1.00  0.00     0.296 HD
ENDBRANCH  16  18
ENDBRANCH   9  16
BRANCH  12  20
ATOM     20  O   UNL     1      31.541  31.829  14.926  1.00  0.00    -0.391 OA
ATOM     21  H   UNL     1      31.431  32.231  14.037  1.00  0.00     0.211 HD
ENDBRANCH  12  20
BRANCH  13  22
ATOM     22  N   UNL     1      28.331  32.303  16.026  1.00  0.00    -0.348 N 
ATOM     23  C   UNL     1      28.075  30.910  16.012  1.00  0.00     0.217 C 
ATOM     24  H   UNL     1      27.710  32.922  16.623  1.00  0.00     0.163 HD
ATOM     25  C   UNL     1      26.993  30.246  16.779  1.00  0.00     0.114 C 
ATOM     26  O   UNL     1      28.815  30.183  15.303  1.00  0.00    -0.275 OA
ENDBRANCH  13  22
ENDBRANCH   7   8
BRANCH   7  27
ATOM     27  O   UNL     1      28.387  34.955  13.019  1.00  0.00    -0.388 OA
ATOM     28  H   UNL     1      27.815  34.437  12.404  1.00  0.00     0.211 HD
ENDBRANCH   7  27
ENDBRANCH   6   7
BRANCH   6  29
ATOM     29  O   UNL     1      25.760  35.458  14.780  1.00  0.00    -0.388 OA
ATOM     30  H   UNL     1      25.171  36.241  14.698  1.00  0.00     0.211 HD
ENDBRANCH   6  29
ENDBRANCH   5   6
ENDBRANCH   1   5
BRANCH   2  31
ATOM     31  O   UNL     1      25.159  37.223  10.821  1.00  0.00    -0.443 OA
BRANCH  31  32
ATOM     32  C   UNL     1      24.582  36.046  10.309  1.00  0.00     0.294 C 
BRANCH  32  33
ATOM     33  C   UNL     1      24.489  34.987  11.343  1.00  0.00     0.120 A 
ATOM     34  C   UNL     1      23.349  34.573  11.976  1.00  0.00     0.138 A 
ATOM     35  N   UNL     1      25.502  34.263  11.831  1.00  0.00    -0.132 NA
ATOM     36  N   UNL     1      23.699  33.603  12.837  1.00  0.00    -0.248 N 
ATOM     37  N   UNL     1      25.022  33.436  12.726  1.00  0.00    -0.067 NA
BRANCH  36  38
ATOM     38  C   UNL     1      22.864  32.847  13.735  1.00  0.00     0.181 C 
BRANCH  38  39
ATOM     39  C   UNL     1      22.595  31.486  13.200  1.00  0.00    -0.026 A 
ATOM     40  C   UNL     1      23.575  30.501  13.206  1.00  0.00     0.005 A 
ATOM     41  C   UNL     1      21.373  31.138  12.677  1.00  0.00     0.005 A 
ATOM     42  C   UNL     1      23.320  29.246  12.709  1.00  0.00     0.000 A 
ATOM     43  C   UNL     1      21.106  29.877  12.175  1.00  0.00     0.000 A 
ATOM     44  C   UNL     1      22.088  28.913  12.189  1.00  0.00     0.000 A 
ENDBRANCH  38  39
ENDBRANCH  36  38
ENDBRANCH  32  33
ENDBRANCH  31  32
ENDBRANCH   2  31
TORSDOF 16
BEGIN_RES LYS A 131
REMARK  4 active torsions:
REMARK  status: ('A' for Active; 'I' for Inactive)
REMARK    1  A    between atoms: CA   and  CB  
REMARK    2  A    between atoms: CB   and  CG  
REMARK    3  A    between atoms: CG   and  CD  
REMARK    4  A    between atoms: CD   and  CE  
ROOT
ATOM      1  CA  LYS A 131      29.867  25.555  16.977  1.00 20.52     0.186 C 
ENDROOT
BRANCH   1   2
ATOM      2  CB  LYS A 131      28.345  25.722  17.026  1.00 20.94     0.034 C 
BRANCH   2   3
ATOM      3  CG  LYS A 131      27.599  24.427  16.742  1.00 22.96     0.005 C 
BRANCH   3   4
ATOM      4  CD  LYS A 131      26.928  23.879  17.970  1.00 24.33     0.041 C 
BRANCH   4   5
ATOM      5  CE  LYS A 131      25.556  23.326  17.597  1.00 26.91     0.338 C 
ATOM      6  NZ  LYS A 131      24.766  24.348  16.871  1.00 27.40     0.618 N 
ENDBRANCH   4   5
ENDBRANCH   3   4
ENDBRANCH   2   3
ENDBRANCH   1   2
END_RES LYS A 131
BEGIN_RES LYS A 135
REMARK  4 active torsions:
REMARK  status: ('A' for Active; 'I' for Inactive)
REMARK    5  A    between atoms: CA   and  CB  
REMARK    6  A    between atoms: CB   and  CG  
REMARK    7  A    between atoms: CG   and  CD  
REMARK    8  A    between atoms: CD   and  CE  
ROOT
ATOM      7  CA  LYS A 135      33.193  34.663   9.290  1.00 25.02     0.186 C 
ENDROOT
BRANCH   7   8
ATOM      8  CB  LYS A 135      32.060  35.360  10.034  1.00 26.63     0.034 C 
BRANCH   8   9
ATOM      9  CG  LYS A 135      30.696  34.807   9.709  1.00 29.45     0.005 C 
BRANCH   9  10
ATOM     10  CD  LYS A 135      30.090  35.538   8.521  1.00 32.00     0.041 C 
BRANCH  10  11
ATOM     11  CE  LYS A 135      28.885  34.785   7.991  1.00 34.25     0.338 C 
ATOM     12  NZ  LYS A 135      28.290  35.482   6.817  1.00 35.99     0.618 N 
ENDBRANCH  10  11
ENDBRANCH   9  10
ENDBRANCH   8   9
ENDBRANCH   7   8
END_RES LYS A 135
