REMARK VINA RESULT:    -4.250      2.827      4.777
REMARK INTER + INTRA:         -14.640
REMARK INTER:                  -9.497
REMARK INTRA:                  -5.142
REMARK UNBOUND:                -5.918
REMARK SMILES CC(=O)N[C@@H]1[C@@H](O)C[C@](O)(C(=O)O)O[C@H]1C(O)[C@H](O)CNC(=O)OCc1cn(CCCCCC(=O)O)nn1
REMARK SMILES IDX 25 1 24 2 22 3 21 4 23 6 20 7 18 8 16 9 15 10 9 11 8 12
REMARK SMILES IDX 14 13 6 14 5 15 10 16 11 18 12 19 13 20 7 22 4 24 2 25 1 27
REMARK SMILES IDX 3 28 17 29 19 31 26 33 27 34 38 35 28 36 37 37 29 38 30 39
REMARK SMILES IDX 31 40 32 41 33 42 34 43 35 44 36 45
REMARK H PARENT 21 5 10 17 13 21 7 23 4 26 17 30 19 32 36 46
REMARK Flexibility Score: inf
ROOT
ATOM      1  C   UNL     1      26.779  35.324  11.036  1.00  0.00     0.294 C 
ENDROOT
BRANCH   1   2
ATOM      2  O   UNL     1      27.127  36.551  10.405  1.00  0.00    -0.443 OA
BRANCH   2   3
ATOM      3  C   UNL     1      26.295  37.011   9.377  1.00  0.00     0.407 C 
ATOM      4  N   UNL     1      24.994  36.446   9.264  1.00  0.00    -0.319 N 
ATOM      5  H   UNL     1      24.718  35.710   9.966  1.00  0.00     0.167 HD
ATOM      6  O   UNL     1      26.740  37.896   8.606  1.00  0.00    -0.225 OA
BRANCH   4   7
ATOM      7  C   UNL     1      24.128  36.895   8.220  1.00  0.00     0.154 C 
BRANCH   7   8
ATOM      8  C   UNL     1      22.913  37.656   8.690  1.00  0.00     0.165 C 
BRANCH   8   9
ATOM      9  C   UNL     1      21.685  37.014   8.074  1.00  0.00     0.176 C 
BRANCH   9  10
ATOM     10  C   UNL     1      21.317  35.689   8.654  1.00  0.00     0.178 C 
ATOM     11  C   UNL     1      19.083  35.850   7.968  1.00  0.00     0.269 C 
ATOM     12  C   UNL     1      18.761  36.274   9.410  1.00  0.00     0.112 C 
ATOM     13  O   UNL     1      20.265  35.168   7.928  1.00  0.00    -0.332 OA
ATOM     14  C   UNL     1      19.526  35.310  10.283  1.00  0.00     0.145 C 
ATOM     15  C   UNL     1      21.018  35.648  10.109  1.00  0.00     0.142 C 
BRANCH  11  16
ATOM     16  O   UNL     1      19.003  36.952   7.120  1.00  0.00    -0.357 OA
ATOM     17  H   UNL     1      18.590  36.703   6.233  1.00  0.00     0.214 HD
ENDBRANCH  11  16
BRANCH  11  18
ATOM     18  C   UNL     1      18.008  34.903   7.575  1.00  0.00     0.364 C 
ATOM     19  O   UNL     1      16.823  35.088   7.987  1.00  0.00    -0.246 OA
BRANCH  18  20
ATOM     20  O   UNL     1      18.326  33.831   6.762  1.00  0.00    -0.477 OA
ATOM     21  H   UNL     1      19.316  33.752   6.489  1.00  0.00     0.296 HD
ENDBRANCH  18  20
ENDBRANCH  11  18
BRANCH  14  22
ATOM     22  O   UNL     1      19.161  35.415  11.625  1.00  0.00    -0.391 OA
ATOM     23  H   UNL     1      18.632  34.602  11.840  1.00  0.00     0.211 HD
ENDBRANCH  14  22
BRANCH  15  24
ATOM     24  N   UNL     1      21.816  34.650  10.808  1.00  0.00    -0.348 N 
ATOM     25  C   UNL     1      22.894  34.982  11.652  1.00  0.00     0.217 C 
ATOM     26  H   UNL     1      21.567  33.629  10.675  1.00  0.00     0.163 HD
ATOM     27  C   UNL     1      23.702  33.924  12.360  1.00  0.00     0.114 C 
ATOM     28  O   UNL     1      23.182  36.208  11.809  1.00  0.00    -0.275 OA
ENDBRANCH  15  24
ENDBRANCH   9  10
BRANCH   9  29
ATOM     29  O   UNL     1      22.088  36.735   6.735  1.00  0.00    -0.388 OA
ATOM     30  H   UNL     1      22.949  36.262   6.814  1.00  0.00     0.211 HD
ENDBRANCH   9  29
ENDBRANCH   8   9
BRANCH   8  31
ATOM     31  O   UNL     1      23.073  38.979   8.342  1.00  0.00    -0.388 OA
ATOM     32  H   UNL     1      24.007  39.277   8.472  1.00  0.00     0.211 HD
ENDBRANCH   8  31
ENDBRANCH   7   8
ENDBRANCH   4   7
ENDBRANCH   2   3
ENDBRANCH   1   2
BRANCH   1  33
ATOM     33  C   UNL     1      27.325  35.399  12.411  1.00  0.00     0.120 A 
ATOM     34  C   UNL     1      28.674  35.389  12.701  1.00  0.00     0.138 A 
ATOM     35  N   UNL     1      26.665  35.488  13.566  1.00  0.00    -0.132 NA
ATOM     36  N   UNL     1      28.755  35.472  14.047  1.00  0.00    -0.252 N 
ATOM     37  N   UNL     1      27.545  35.531  14.558  1.00  0.00    -0.067 NA
BRANCH  36  38
ATOM     38  C   UNL     1      30.045  35.484  14.740  1.00  0.00     0.146 C 
BRANCH  38  39
ATOM     39  C   UNL     1      30.823  34.278  14.283  1.00  0.00     0.024 C 
BRANCH  39  40
ATOM     40  C   UNL     1      30.193  32.972  14.718  1.00  0.00     0.002 C 
BRANCH  40  41
ATOM     41  C   UNL     1      31.111  32.135  15.539  1.00  0.00     0.012 C 
BRANCH  41  42
ATOM     42  C   UNL     1      30.456  31.504  16.737  1.00  0.00     0.122 C 
BRANCH  42  43
ATOM     43  C   UNL     1      29.161  30.870  16.445  1.00  0.00     0.303 C 
ATOM     44  O   UNL     1      28.120  31.243  17.007  1.00  0.00    -0.252 OA
BRANCH  43  45
ATOM     45  O   UNL     1      29.072  29.819  15.515  1.00  0.00    -0.481 OA
ATOM     46  H   UNL     1      28.864  28.867  15.834  1.00  0.00     0.296 HD
ENDBRANCH  43  45
ENDBRANCH  42  43
ENDBRANCH  41  42
ENDBRANCH  40  41
ENDBRANCH  39  40
ENDBRANCH  38  39
ENDBRANCH  36  38
ENDBRANCH   1  33
TORSDOF 21
BEGIN_RES LYS A 131
REMARK  4 active torsions:
REMARK  status: ('A' for Active; 'I' for Inactive)
REMARK    1  A    between atoms: CA   and  CB  
REMARK    2  A    between atoms: CB   and  CG  
REMARK    3  A    between atoms: CG   and  CD  
REMARK    4  A    between atoms: CD   and  CE  
ROOT
ATOM      1  CA  LYS A 131      29.867  25.555  16.977  1.00 20.52     0.186 C 
ENDROOT
BRANCH   1   2
ATOM      2  CB  LYS A 131      28.345  25.722  17.026  1.00 20.94     0.034 C 
BRANCH   2   3
ATOM      3  CG  LYS A 131      27.603  24.396  16.956  1.00 22.96     0.005 C 
BRANCH   3   4
ATOM      4  CD  LYS A 131      26.264  24.460  17.639  1.00 24.33     0.041 C 
BRANCH   4   5
ATOM      5  CE  LYS A 131      25.541  23.128  17.467  1.00 26.91     0.338 C 
ATOM      6  NZ  LYS A 131      24.107  23.268  17.814  1.00 27.40     0.618 N 
ENDBRANCH   4   5
ENDBRANCH   3   4
ENDBRANCH   2   3
ENDBRANCH   1   2
END_RES LYS A 131
BEGIN_RES LYS A 135
REMARK  4 active torsions:
REMARK  status: ('A' for Active; 'I' for Inactive)
REMARK    5  A    between atoms: CA   and  CB  
REMARK    6  A    between atoms: CB   and  CG  
REMARK    7  A    between atoms: CG   and  CD  
REMARK    8  A    between atoms: CD   and  CE  
ROOT
ATOM      7  CA  LYS A 135      33.193  34.663   9.290  1.00 25.02     0.186 C 
ENDROOT
BRANCH   7   8
ATOM      8  CB  LYS A 135      32.060  35.360  10.034  1.00 26.63     0.034 C 
BRANCH   8   9
ATOM      9  CG  LYS A 135      30.705  34.754   9.773  1.00 29.45     0.005 C 
BRANCH   9  10
ATOM     10  CD  LYS A 135      30.459  34.612   8.279  1.00 32.00     0.041 C 
BRANCH  10  11
ATOM     11  CE  LYS A 135      28.995  34.839   7.957  1.00 34.25     0.338 C 
ATOM     12  NZ  LYS A 135      28.836  35.579   6.674  1.00 35.99     0.618 N 
ENDBRANCH  10  11
ENDBRANCH   9  10
ENDBRANCH   8   9
ENDBRANCH   7   8
END_RES LYS A 135
