REMARK VINA RESULT:    -4.275      8.008     12.981
REMARK INTER + INTRA:         -14.691
REMARK INTER:                  -9.726
REMARK INTRA:                  -4.966
REMARK UNBOUND:                -5.918
REMARK SMILES CC(=O)N[C@@H]1[C@@H](O)C[C@](O)(C(=O)O)O[C@H]1C(O)[C@H](O)CNC(=O)OCc1cn(CCCCCC(=O)O)nn1
REMARK SMILES IDX 25 1 24 2 22 3 21 4 23 6 20 7 18 8 16 9 15 10 9 11 8 12
REMARK SMILES IDX 14 13 6 14 5 15 10 16 11 18 12 19 13 20 7 22 4 24 2 25 1 27
REMARK SMILES IDX 3 28 17 29 19 31 26 33 27 34 38 35 28 36 37 37 29 38 30 39
REMARK SMILES IDX 31 40 32 41 33 42 34 43 35 44 36 45
REMARK H PARENT 21 5 10 17 13 21 7 23 4 26 17 30 19 32 36 46
REMARK Flexibility Score: inf
ROOT
ATOM      1  C   UNL     1      30.574  29.744  20.424  1.00  0.00     0.294 C 
ENDROOT
BRANCH   1   2
ATOM      2  O   UNL     1      29.592  30.757  20.239  1.00  0.00    -0.443 OA
BRANCH   2   3
ATOM      3  C   UNL     1      29.264  31.109  18.924  1.00  0.00     0.407 C 
ATOM      4  N   UNL     1      30.241  30.902  17.910  1.00  0.00    -0.319 N 
ATOM      5  H   UNL     1      31.166  30.488  18.199  1.00  0.00     0.167 HD
ATOM      6  O   UNL     1      28.125  31.591  18.707  1.00  0.00    -0.225 OA
BRANCH   4   7
ATOM      7  C   UNL     1      29.931  31.259  16.562  1.00  0.00     0.154 C 
BRANCH   7   8
ATOM      8  C   UNL     1      30.808  32.340  15.977  1.00  0.00     0.165 C 
BRANCH   8   9
ATOM      9  C   UNL     1      29.913  33.459  15.483  1.00  0.00     0.176 C 
BRANCH   9  10
ATOM     10  C   UNL     1      30.353  34.829  15.876  1.00  0.00     0.178 C 
ATOM     11  C   UNL     1      31.582  35.153  13.908  1.00  0.00     0.269 C 
ATOM     12  C   UNL     1      32.831  34.802  14.733  1.00  0.00     0.112 C 
ATOM     13  O   UNL     1      30.573  35.566  14.730  1.00  0.00    -0.332 OA
ATOM     14  C   UNL     1      32.683  35.577  16.019  1.00  0.00     0.145 C 
ATOM     15  C   UNL     1      31.520  34.928  16.792  1.00  0.00     0.142 C 
BRANCH  11  16
ATOM     16  O   UNL     1      31.262  34.098  13.058  1.00  0.00    -0.357 OA
ATOM     17  H   UNL     1      31.146  33.236  13.570  1.00  0.00     0.214 HD
ENDBRANCH  11  16
BRANCH  11  18
ATOM     18  C   UNL     1      31.969  36.310  13.060  1.00  0.00     0.364 C 
ATOM     19  O   UNL     1      31.393  37.429  13.217  1.00  0.00    -0.246 OA
BRANCH  18  20
ATOM     20  O   UNL     1      32.959  36.140  12.110  1.00  0.00    -0.477 OA
ATOM     21  H   UNL     1      33.128  36.945  11.489  1.00  0.00     0.296 HD
ENDBRANCH  18  20
ENDBRANCH  11  18
BRANCH  14  22
ATOM     22  O   UNL     1      33.848  35.547  16.786  1.00  0.00    -0.391 OA
ATOM     23  H   UNL     1      33.565  35.400  17.726  1.00  0.00     0.211 HD
ENDBRANCH  14  22
BRANCH  15  24
ATOM     24  N   UNL     1      31.229  35.729  17.973  1.00  0.00    -0.348 N 
ATOM     25  C   UNL     1      31.730  35.420  19.252  1.00  0.00     0.217 C 
ATOM     26  H   UNL     1      30.614  36.584  17.857  1.00  0.00     0.163 HD
ATOM     27  C   UNL     1      31.407  36.269  20.456  1.00  0.00     0.114 C 
ATOM     28  O   UNL     1      32.469  34.397  19.381  1.00  0.00    -0.275 OA
ENDBRANCH  15  24
ENDBRANCH   9  10
BRANCH   9  29
ATOM     29  O   UNL     1      28.690  33.245  16.183  1.00  0.00    -0.388 OA
ATOM     30  H   UNL     1      28.804  32.386  16.652  1.00  0.00     0.211 HD
ENDBRANCH   9  29
ENDBRANCH   8   9
BRANCH   8  31
ATOM     31  O   UNL     1      31.581  31.777  14.986  1.00  0.00    -0.388 OA
ATOM     32  H   UNL     1      31.349  30.827  14.840  1.00  0.00     0.211 HD
ENDBRANCH   8  31
ENDBRANCH   7   8
ENDBRANCH   4   7
ENDBRANCH   2   3
ENDBRANCH   1   2
BRANCH   1  33
ATOM     33  C   UNL     1      31.751  30.415  21.023  1.00  0.00     0.120 A 
ATOM     34  C   UNL     1      32.887  29.748  21.432  1.00  0.00     0.138 A 
ATOM     35  N   UNL     1      31.934  31.712  21.269  1.00  0.00    -0.132 NA
ATOM     36  N   UNL     1      33.712  30.702  21.915  1.00  0.00    -0.252 N 
ATOM     37  N   UNL     1      33.133  31.878  21.813  1.00  0.00    -0.067 NA
BRANCH  36  38
ATOM     38  C   UNL     1      35.035  30.375  22.453  1.00  0.00     0.146 C 
BRANCH  38  39
ATOM     39  C   UNL     1      35.825  31.654  22.537  1.00  0.00     0.024 C 
BRANCH  39  40
ATOM     40  C   UNL     1      37.154  31.574  21.818  1.00  0.00     0.002 C 
BRANCH  40  41
ATOM     41  C   UNL     1      37.337  32.666  20.822  1.00  0.00     0.012 C 
BRANCH  41  42
ATOM     42  C   UNL     1      38.567  32.516  19.968  1.00  0.00     0.122 C 
BRANCH  42  43
ATOM     43  C   UNL     1      38.467  33.176  18.658  1.00  0.00     0.303 C 
ATOM     44  O   UNL     1      37.819  34.225  18.513  1.00  0.00    -0.252 OA
BRANCH  43  45
ATOM     45  O   UNL     1      39.108  32.633  17.531  1.00  0.00    -0.481 OA
ATOM     46  H   UNL     1      39.615  33.244  16.883  1.00  0.00     0.296 HD
ENDBRANCH  43  45
ENDBRANCH  42  43
ENDBRANCH  41  42
ENDBRANCH  40  41
ENDBRANCH  39  40
ENDBRANCH  38  39
ENDBRANCH  36  38
ENDBRANCH   1  33
TORSDOF 21
BEGIN_RES LYS A 131
REMARK  4 active torsions:
REMARK  status: ('A' for Active; 'I' for Inactive)
REMARK    1  A    between atoms: CA   and  CB  
REMARK    2  A    between atoms: CB   and  CG  
REMARK    3  A    between atoms: CG   and  CD  
REMARK    4  A    between atoms: CD   and  CE  
ROOT
ATOM      1  CA  LYS A 131      29.867  25.555  16.977  1.00 20.52     0.186 C 
ENDROOT
BRANCH   1   2
ATOM      2  CB  LYS A 131      28.345  25.722  17.026  1.00 20.94     0.034 C 
BRANCH   2   3
ATOM      3  CG  LYS A 131      27.609  24.397  17.155  1.00 22.96     0.005 C 
BRANCH   3   4
ATOM      4  CD  LYS A 131      26.116  24.576  17.153  1.00 24.33     0.041 C 
BRANCH   4   5
ATOM      5  CE  LYS A 131      25.492  23.654  18.196  1.00 26.91     0.338 C 
ATOM      6  NZ  LYS A 131      24.602  22.663  17.546  1.00 27.40     0.618 N 
ENDBRANCH   4   5
ENDBRANCH   3   4
ENDBRANCH   2   3
ENDBRANCH   1   2
END_RES LYS A 131
BEGIN_RES LYS A 135
REMARK  4 active torsions:
REMARK  status: ('A' for Active; 'I' for Inactive)
REMARK    5  A    between atoms: CA   and  CB  
REMARK    6  A    between atoms: CB   and  CG  
REMARK    7  A    between atoms: CG   and  CD  
REMARK    8  A    between atoms: CD   and  CE  
ROOT
ATOM      7  CA  LYS A 135      33.193  34.663   9.290  1.00 25.02     0.186 C 
ENDROOT
BRANCH   7   8
ATOM      8  CB  LYS A 135      32.060  35.360  10.034  1.00 26.63     0.034 C 
BRANCH   8   9
ATOM      9  CG  LYS A 135      30.702  34.771   9.752  1.00 29.45     0.005 C 
BRANCH   9  10
ATOM     10  CD  LYS A 135      30.330  34.956   8.289  1.00 32.00     0.041 C 
BRANCH  10  11
ATOM     11  CE  LYS A 135      28.877  34.588   8.058  1.00 34.25     0.338 C 
ATOM     12  NZ  LYS A 135      28.128  34.527   9.344  1.00 35.99     0.618 N 
ENDBRANCH  10  11
ENDBRANCH   9  10
ENDBRANCH   8   9
ENDBRANCH   7   8
END_RES LYS A 135
