REMARK VINA RESULT:    -5.348      3.958     10.439
REMARK INTER + INTRA:         -17.756
REMARK INTER:                 -10.609
REMARK INTRA:                  -7.146
REMARK UNBOUND:                -7.717
REMARK SMILES CC(=O)N[C@@H]1[C@@H](O)C[C@](O)(C(=O)O)O[C@H]1C(O)[C@H](O)CNC(=O)OCc1cn(-c2ccc(-c3c4ccc(=O)cc-4oc4cc(O)ccc34)c(C(=O)[O-])c2)nn1
REMARK SMILES IDX 21 1 22 2 23 3 20 5 18 6 16 7 15 8 9 9 8 10 14 11 6 12 5 13
REMARK SMILES IDX 10 14 11 16 12 17 13 18 7 20 4 22 2 23 1 25 3 26 17 27 19 29
REMARK SMILES IDX 24 31 25 32 26 33 27 34 55 35 28 36 54 37 29 38 53 39 30 40
REMARK SMILES IDX 49 41 31 42 32 43 50 44 51 45 52 46 33 47 48 48 34 49 47 50
REMARK SMILES IDX 42 51 40 52 35 53 46 54 43 55 41 56 39 57 36 58 44 59 37 60
REMARK SMILES IDX 38 61 45 62
REMARK H PARENT 21 4 10 15 13 19 7 21 4 24 17 28 19 30 45 63
REMARK Flexibility Score: inf
ROOT
ATOM      1  N   UNL     1      17.567  33.246   9.458  1.00  0.00    -0.319 N 
ATOM      2  C   UNL     1      17.238  31.847   9.454  1.00  0.00     0.407 C 
ATOM      3  O   UNL     1      17.178  31.281   8.329  1.00  0.00    -0.225 OA
ATOM      4  H   UNL     1      17.629  33.762  10.354  1.00  0.00     0.167 HD
ENDROOT
BRANCH   1   5
ATOM      5  C   UNL     1      17.813  33.958   8.227  1.00  0.00     0.154 C 
BRANCH   5   6
ATOM      6  C   UNL     1      19.120  34.673   8.326  1.00  0.00     0.165 C 
BRANCH   6   7
ATOM      7  C   UNL     1      18.935  36.172   8.554  1.00  0.00     0.176 C 
BRANCH   7   8
ATOM      8  C   UNL     1      20.001  36.699   9.502  1.00  0.00     0.178 C 
ATOM      9  C   UNL     1      22.239  36.301   8.993  1.00  0.00     0.269 C 
ATOM     10  C   UNL     1      22.656  36.443  10.441  1.00  0.00     0.112 C 
ATOM     11  O   UNL     1      21.099  37.027   8.758  1.00  0.00    -0.332 OA
ATOM     12  C   UNL     1      21.555  36.042  11.353  1.00  0.00     0.145 C 
ATOM     13  C   UNL     1      20.246  35.782  10.649  1.00  0.00     0.142 C 
BRANCH   9  14
ATOM     14  O   UNL     1      22.130  34.961   8.720  1.00  0.00    -0.357 OA
ATOM     15  H   UNL     1      21.223  34.654   8.541  1.00  0.00     0.214 HD
ENDBRANCH   9  14
BRANCH   9  16
ATOM     16  C   UNL     1      23.327  36.888   8.174  1.00  0.00     0.364 C 
ATOM     17  O   UNL     1      24.522  36.770   8.542  1.00  0.00    -0.246 OA
BRANCH  16  18
ATOM     18  O   UNL     1      23.096  37.577   6.995  1.00  0.00    -0.477 OA
ATOM     19  H   UNL     1      22.155  37.919   6.745  1.00  0.00     0.296 HD
ENDBRANCH  16  18
ENDBRANCH   9  16
BRANCH  12  20
ATOM     20  O   UNL     1      21.876  34.906  12.093  1.00  0.00    -0.391 OA
ATOM     21  H   UNL     1      21.683  34.994  13.052  1.00  0.00     0.211 HD
ENDBRANCH  12  20
BRANCH  13  22
ATOM     22  N   UNL     1      19.201  35.958  11.669  1.00  0.00    -0.348 N 
ATOM     23  C   UNL     1      18.596  34.890  12.355  1.00  0.00     0.217 C 
ATOM     24  H   UNL     1      18.910  36.940  11.880  1.00  0.00     0.163 HD
ATOM     25  C   UNL     1      17.550  35.149  13.369  1.00  0.00     0.114 C 
ATOM     26  O   UNL     1      18.996  33.717  12.055  1.00  0.00    -0.275 OA
ENDBRANCH  13  22
ENDBRANCH   7   8
BRANCH   7  27
ATOM     27  O   UNL     1      17.658  36.319   9.106  1.00  0.00    -0.388 OA
ATOM     28  H   UNL     1      17.789  36.677  10.025  1.00  0.00     0.211 HD
ENDBRANCH   7  27
ENDBRANCH   6   7
BRANCH   6  29
ATOM     29  O   UNL     1      19.929  34.437   7.217  1.00  0.00    -0.388 OA
ATOM     30  H   UNL     1      20.125  35.261   6.711  1.00  0.00     0.211 HD
ENDBRANCH   6  29
ENDBRANCH   5   6
ENDBRANCH   1   5
BRANCH   2  31
ATOM     31  O   UNL     1      16.998  31.132  10.589  1.00  0.00    -0.443 OA
BRANCH  31  32
ATOM     32  C   UNL     1      17.140  29.732  10.626  1.00  0.00     0.294 C 
BRANCH  32  33
ATOM     33  C   UNL     1      18.430  29.398  11.261  1.00  0.00     0.121 A 
ATOM     34  C   UNL     1      19.367  30.293  11.782  1.00  0.00     0.144 A 
ATOM     35  N   UNL     1      18.958  28.182  11.456  1.00  0.00    -0.131 NA
ATOM     36  N   UNL     1      20.410  29.594  12.266  1.00  0.00    -0.220 N 
ATOM     37  N   UNL     1      20.134  28.325  12.054  1.00  0.00    -0.062 NA
BRANCH  36  38
ATOM     38  C   UNL     1      21.548  30.192  12.865  1.00  0.00     0.067 A 
ATOM     39  C   UNL     1      21.510  31.153  13.832  1.00  0.00     0.039 A 
ATOM     40  C   UNL     1      22.808  29.769  12.434  1.00  0.00     0.029 A 
ATOM     41  C   UNL     1      22.654  31.713  14.390  1.00  0.00     0.007 A 
ATOM     42  C   UNL     1      23.948  30.305  12.967  1.00  0.00     0.012 A 
ATOM     43  C   UNL     1      23.870  31.286  13.955  1.00  0.00    -0.008 A 
BRANCH  41  44
ATOM     44  C   UNL     1      22.573  32.742  15.425  1.00  0.00     0.072 C 
ATOM     45  O   UNL     1      22.746  32.455  16.651  1.00  0.00    -0.545 OA
ATOM     46  O   UNL     1      22.308  34.042  15.091  1.00  0.00    -0.545 OA
ENDBRANCH  41  44
BRANCH  43  47
ATOM     47  C   UNL     1      25.138  31.792  14.457  1.00  0.00     0.004 A 
ATOM     48  C   UNL     1      25.898  31.167  15.422  1.00  0.00     0.026 A 
ATOM     49  C   UNL     1      25.624  32.979  13.936  1.00  0.00     0.026 A 
ATOM     50  C   UNL     1      25.447  29.981  15.966  1.00  0.00     0.016 A 
ATOM     51  C   UNL     1      27.105  31.701  15.859  1.00  0.00     0.139 A 
ATOM     52  C   UNL     1      26.892  33.497  14.427  1.00  0.00     0.139 A 
ATOM     53  C   UNL     1      24.942  33.683  12.969  1.00  0.00     0.016 A 
ATOM     54  C   UNL     1      26.177  29.314  16.939  1.00  0.00     0.047 A 
ATOM     55  C   UNL     1      27.852  31.064  16.823  1.00  0.00     0.093 A 
ATOM     56  O   UNL     1      27.560  32.825  15.362  1.00  0.00    -0.456 OA
ATOM     57  C   UNL     1      27.380  34.665  13.919  1.00  0.00     0.099 A 
ATOM     58  C   UNL     1      25.471  34.848  12.493  1.00  0.00     0.053 A 
ATOM     59  C   UNL     1      27.372  29.869  17.354  1.00  0.00     0.119 A 
ATOM     60  C   UNL     1      26.679  35.352  12.951  1.00  0.00     0.182 A 
ATOM     61  O   UNL     1      27.126  36.431  12.479  1.00  0.00    -0.290 OA
BRANCH  59  62
ATOM     62  O   UNL     1      28.107  29.212  18.326  1.00  0.00    -0.508 OA
ATOM     63  H   UNL     1      29.018  28.821  18.176  1.00  0.00     0.293 HD
ENDBRANCH  59  62
ENDBRANCH  43  47
ENDBRANCH  36  38
ENDBRANCH  32  33
ENDBRANCH  31  32
ENDBRANCH   2  31
TORSDOF 18
BEGIN_RES LYS A 131
REMARK  4 active torsions:
REMARK  status: ('A' for Active; 'I' for Inactive)
REMARK    1  A    between atoms: CA   and  CB  
REMARK    2  A    between atoms: CB   and  CG  
REMARK    3  A    between atoms: CG   and  CD  
REMARK    4  A    between atoms: CD   and  CE  
ROOT
ATOM      1  CA  LYS A 131      29.867  25.555  16.977  1.00 20.52     0.186 C 
ENDROOT
BRANCH   1   2
ATOM      2  CB  LYS A 131      28.345  25.722  17.026  1.00 20.94     0.034 C 
BRANCH   2   3
ATOM      3  CG  LYS A 131      27.601  24.403  16.887  1.00 22.96     0.005 C 
BRANCH   3   4
ATOM      4  CD  LYS A 131      26.159  24.520  17.296  1.00 24.33     0.041 C 
BRANCH   4   5
ATOM      5  CE  LYS A 131      25.912  23.672  18.539  1.00 26.91     0.338 C 
ATOM      6  NZ  LYS A 131      25.552  24.533  19.691  1.00 27.40     0.618 N 
ENDBRANCH   4   5
ENDBRANCH   3   4
ENDBRANCH   2   3
ENDBRANCH   1   2
END_RES LYS A 131
BEGIN_RES LYS A 135
REMARK  4 active torsions:
REMARK  status: ('A' for Active; 'I' for Inactive)
REMARK    5  A    between atoms: CA   and  CB  
REMARK    6  A    between atoms: CB   and  CG  
REMARK    7  A    between atoms: CG   and  CD  
REMARK    8  A    between atoms: CD   and  CE  
ROOT
ATOM      7  CA  LYS A 135      33.193  34.663   9.290  1.00 25.02     0.186 C 
ENDROOT
BRANCH   7   8
ATOM      8  CB  LYS A 135      32.060  35.360  10.034  1.00 26.63     0.034 C 
BRANCH   8   9
ATOM      9  CG  LYS A 135      30.705  35.135   9.415  1.00 29.45     0.005 C 
BRANCH   9  10
ATOM     10  CD  LYS A 135      29.682  34.770  10.480  1.00 32.00     0.041 C 
BRANCH  10  11
ATOM     11  CE  LYS A 135      28.450  34.154   9.846  1.00 34.25     0.338 C 
ATOM     12  NZ  LYS A 135      28.404  34.430   8.383  1.00 35.99     0.618 N 
ENDBRANCH  10  11
ENDBRANCH   9  10
ENDBRANCH   8   9
ENDBRANCH   7   8
END_RES LYS A 135
