REMARK VINA RESULT:    -4.460      4.213      5.938
REMARK INTER + INTRA:         -14.734
REMARK INTER:                  -7.383
REMARK INTRA:                  -7.352
REMARK UNBOUND:                -6.624
REMARK SMILES CC(=O)N[C@@H]1[C@@H](O)C[C@](O)(C(=O)O)O[C@H]1C(O)[C@H](O)CNC(=O)OCc1cn(-c2cccc(S(N)(=O)=O)c2)nn1
REMARK SMILES IDX 21 1 22 2 23 3 20 5 18 6 16 7 15 8 9 9 8 10 14 11 6 12 5 13
REMARK SMILES IDX 10 14 11 16 12 17 13 18 7 20 4 22 2 23 1 25 3 26 17 27 19 29
REMARK SMILES IDX 24 31 25 32 26 33 27 34 40 35 28 36 39 37 29 38 38 39 30 40
REMARK SMILES IDX 33 41 31 42 32 43 34 44 36 45 37 46 35 47
REMARK H PARENT 21 4 10 15 13 19 7 21 4 24 17 28 19 30 35 48 35 49
REMARK Flexibility Score: inf
ROOT
ATOM      1  N   UNL     1      24.710  39.706   6.533  1.00  0.00    -0.319 N 
ATOM      2  C   UNL     1      23.542  39.466   7.300  1.00  0.00     0.407 C 
ATOM      3  O   UNL     1      22.747  40.402   7.492  1.00  0.00    -0.225 OA
ATOM      4  H   UNL     1      25.338  38.866   6.408  1.00  0.00     0.167 HD
ENDROOT
BRANCH   1   5
ATOM      5  C   UNL     1      25.021  40.992   5.963  1.00  0.00     0.154 C 
BRANCH   5   6
ATOM      6  C   UNL     1      25.907  40.846   4.744  1.00  0.00     0.165 C 
BRANCH   6   7
ATOM      7  C   UNL     1      27.298  41.373   5.072  1.00  0.00     0.176 C 
BRANCH   7   8
ATOM      8  C   UNL     1      28.277  40.202   5.034  1.00  0.00     0.178 C 
ATOM      9  C   UNL     1      27.947  38.390   6.442  1.00  0.00     0.269 C 
ATOM     10  C   UNL     1      29.427  38.122   6.585  1.00  0.00     0.112 C 
ATOM     11  O   UNL     1      27.629  39.027   5.260  1.00  0.00    -0.332 OA
ATOM     12  C   UNL     1      30.276  39.222   6.043  1.00  0.00     0.145 C 
ATOM     13  C   UNL     1      29.424  40.489   5.954  1.00  0.00     0.142 C 
BRANCH   9  14
ATOM     14  O   UNL     1      27.445  39.115   7.519  1.00  0.00    -0.357 OA
ATOM     15  H   UNL     1      27.819  38.725   8.370  1.00  0.00     0.214 HD
ENDBRANCH   9  14
BRANCH   9  16
ATOM     16  C   UNL     1      27.266  37.068   6.433  1.00  0.00     0.364 C 
ATOM     17  O   UNL     1      26.184  36.878   7.047  1.00  0.00    -0.246 OA
BRANCH  16  18
ATOM     18  O   UNL     1      27.793  35.974   5.744  1.00  0.00    -0.477 OA
ATOM     19  H   UNL     1      28.401  36.115   4.945  1.00  0.00     0.296 HD
ENDBRANCH  16  18
ENDBRANCH   9  16
BRANCH  12  20
ATOM     20  O   UNL     1      31.429  39.458   6.770  1.00  0.00    -0.391 OA
ATOM     21  H   UNL     1      31.268  39.980   7.606  1.00  0.00     0.211 HD
ENDBRANCH  12  20
BRANCH  13  22
ATOM     22  N   UNL     1      30.216  41.548   5.352  1.00  0.00    -0.348 N 
ATOM     23  C   UNL     1      30.597  42.720   6.069  1.00  0.00     0.217 C 
ATOM     24  H   UNL     1      30.520  41.443   4.344  1.00  0.00     0.163 HD
ATOM     25  C   UNL     1      31.408  43.737   5.352  1.00  0.00     0.114 C 
ATOM     26  O   UNL     1      30.232  42.826   7.252  1.00  0.00    -0.275 OA
ENDBRANCH  13  22
ENDBRANCH   7   8
BRANCH   7  27
ATOM     27  O   UNL     1      27.654  42.267   4.079  1.00  0.00    -0.388 OA
ATOM     28  H   UNL     1      27.962  41.799   3.267  1.00  0.00     0.211 HD
ENDBRANCH   7  27
ENDBRANCH   6   7
BRANCH   6  29
ATOM     29  O   UNL     1      25.345  41.605   3.704  1.00  0.00    -0.388 OA
ATOM     30  H   UNL     1      24.487  42.043   4.002  1.00  0.00     0.211 HD
ENDBRANCH   6  29
ENDBRANCH   5   6
ENDBRANCH   1   5
BRANCH   2  31
ATOM     31  O   UNL     1      23.269  38.205   7.840  1.00  0.00    -0.443 OA
BRANCH  31  32
ATOM     32  C   UNL     1      23.034  38.035   9.223  1.00  0.00     0.294 C 
BRANCH  32  33
ATOM     33  C   UNL     1      24.202  37.379   9.862  1.00  0.00     0.121 A 
ATOM     34  C   UNL     1      25.403  38.000  10.144  1.00  0.00     0.144 A 
ATOM     35  N   UNL     1      24.329  36.113  10.276  1.00  0.00    -0.131 NA
ATOM     36  N   UNL     1      26.173  37.059  10.712  1.00  0.00    -0.220 N 
ATOM     37  N   UNL     1      25.529  35.905  10.797  1.00  0.00    -0.062 NA
BRANCH  36  38
ATOM     38  C   UNL     1      27.510  37.253  11.170  1.00  0.00     0.068 A 
ATOM     39  C   UNL     1      28.351  38.203  10.633  1.00  0.00     0.050 A 
ATOM     40  C   UNL     1      28.018  36.473  12.195  1.00  0.00     0.028 A 
ATOM     41  C   UNL     1      29.656  38.386  11.086  1.00  0.00     0.084 A 
ATOM     42  C   UNL     1      29.296  36.634  12.657  1.00  0.00     0.004 A 
ATOM     43  C   UNL     1      30.112  37.590  12.101  1.00  0.00     0.022 A 
BRANCH  41  44
ATOM     44  S   UNL     1      30.710  39.583  10.406  1.00  0.00     0.238 S 
ATOM     45  O   UNL     1      31.795  38.875   9.635  1.00  0.00    -0.207 OA
ATOM     46  O   UNL     1      31.400  40.332  11.521  1.00  0.00    -0.207 OA
BRANCH  44  47
ATOM     47  N   UNL     1      29.871  40.646   9.351  1.00  0.00    -0.225 NA
ATOM     48  H   UNL     1      30.550  41.200   8.800  1.00  0.00     0.137 HD
ATOM     49  H   UNL     1      29.199  41.261   9.855  1.00  0.00     0.137 HD
ENDBRANCH  44  47
ENDBRANCH  41  44
ENDBRANCH  36  38
ENDBRANCH  32  33
ENDBRANCH  31  32
ENDBRANCH   2  31
TORSDOF 17
BEGIN_RES LYS A 131
REMARK  4 active torsions:
REMARK  status: ('A' for Active; 'I' for Inactive)
REMARK    1  A    between atoms: CA   and  CB  
REMARK    2  A    between atoms: CB   and  CG  
REMARK    3  A    between atoms: CG   and  CD  
REMARK    4  A    between atoms: CD   and  CE  
ROOT
ATOM      1  CA  LYS A 131      29.867  25.555  16.977  1.00 20.52     0.186 C 
ENDROOT
BRANCH   1   2
ATOM      2  CB  LYS A 131      28.345  25.722  17.026  1.00 20.94     0.034 C 
BRANCH   2   3
ATOM      3  CG  LYS A 131      27.601  24.401  16.907  1.00 22.96     0.005 C 
BRANCH   3   4
ATOM      4  CD  LYS A 131      26.157  24.525  17.307  1.00 24.33     0.041 C 
BRANCH   4   5
ATOM      5  CE  LYS A 131      25.874  23.599  18.485  1.00 26.91     0.338 C 
ATOM      6  NZ  LYS A 131      25.489  24.385  19.681  1.00 27.40     0.618 N 
ENDBRANCH   4   5
ENDBRANCH   3   4
ENDBRANCH   2   3
ENDBRANCH   1   2
END_RES LYS A 131
BEGIN_RES LYS A 135
REMARK  4 active torsions:
REMARK  status: ('A' for Active; 'I' for Inactive)
REMARK    5  A    between atoms: CA   and  CB  
REMARK    6  A    between atoms: CB   and  CG  
REMARK    7  A    between atoms: CG   and  CD  
REMARK    8  A    between atoms: CD   and  CE  
ROOT
ATOM      7  CA  LYS A 135      33.193  34.663   9.290  1.00 25.02     0.186 C 
ENDROOT
BRANCH   7   8
ATOM      8  CB  LYS A 135      32.060  35.360  10.034  1.00 26.63     0.034 C 
BRANCH   8   9
ATOM      9  CG  LYS A 135      30.838  35.597   9.185  1.00 29.45     0.005 C 
BRANCH   9  10
ATOM     10  CD  LYS A 135      30.184  34.277   8.805  1.00 32.00     0.041 C 
BRANCH  10  11
ATOM     11  CE  LYS A 135      28.685  34.448   8.657  1.00 34.25     0.338 C 
ATOM     12  NZ  LYS A 135      27.950  33.648   9.675  1.00 35.99     0.618 N 
ENDBRANCH  10  11
ENDBRANCH   9  10
ENDBRANCH   8   9
ENDBRANCH   7   8
END_RES LYS A 135
