REMARK VINA RESULT:    -4.437      3.817      6.848
REMARK INTER + INTRA:         -15.364
REMARK INTER:                 -10.293
REMARK INTRA:                  -5.071
REMARK UNBOUND:                -7.426
REMARK SMILES CC(=O)N[C@@H]1[C@@H](O)C[C@](O)(C(=O)O)O[C@H]1C(O)[C@H](O)CNC(=O)OCc1cn(Cc2ccccc2Br)nn1
REMARK SMILES IDX 21 1 22 2 23 3 20 5 18 6 16 7 15 8 9 9 8 10 14 11 6 12 5 13
REMARK SMILES IDX 10 14 11 16 12 17 13 18 7 20 4 22 2 23 1 25 3 26 17 27 19 29
REMARK SMILES IDX 24 31 25 32 26 33 27 34 38 35 28 36 37 37 29 38 30 39 31 40
REMARK SMILES IDX 35 41 32 42 34 43 36 44 33 45
REMARK H PARENT 21 4 10 15 13 19 7 21 4 24 17 28 19 30
REMARK Flexibility Score: inf
ROOT
ATOM      1  N   UNL     1      28.655  31.434  16.881  1.00  0.00    -0.319 N 
ATOM      2  C   UNL     1      27.955  30.572  16.030  1.00  0.00     0.407 C 
ATOM      3  O   UNL     1      28.580  29.649  15.439  1.00  0.00    -0.225 OA
ATOM      4  H   UNL     1      28.095  32.194  17.359  1.00  0.00     0.167 HD
ENDROOT
BRANCH   1   5
ATOM      5  C   UNL     1      30.074  31.361  17.150  1.00  0.00     0.154 C 
BRANCH   5   6
ATOM      6  C   UNL     1      30.805  32.349  16.266  1.00  0.00     0.165 C 
BRANCH   6   7
ATOM      7  C   UNL     1      30.084  33.679  16.212  1.00  0.00     0.176 C 
BRANCH   7   8
ATOM      8  C   UNL     1      30.908  34.746  15.520  1.00  0.00     0.178 C 
ATOM      9  C   UNL     1      32.887  34.955  14.303  1.00  0.00     0.269 C 
ATOM     10  C   UNL     1      33.399  36.020  15.196  1.00  0.00     0.112 C 
ATOM     11  O   UNL     1      32.006  34.136  14.992  1.00  0.00    -0.332 OA
ATOM     12  C   UNL     1      32.666  36.272  16.455  1.00  0.00     0.145 C 
ATOM     13  C   UNL     1      31.214  35.887  16.448  1.00  0.00     0.142 C 
BRANCH   9  14
ATOM     14  O   UNL     1      33.967  34.107  13.946  1.00  0.00    -0.357 OA
ATOM     15  H   UNL     1      34.796  34.632  13.788  1.00  0.00     0.214 HD
ENDBRANCH   9  14
BRANCH   9  16
ATOM     16  C   UNL     1      32.330  35.502  13.064  1.00  0.00     0.364 C 
ATOM     17  O   UNL     1      32.244  36.739  12.831  1.00  0.00    -0.246 OA
BRANCH  16  18
ATOM     18  O   UNL     1      31.867  34.634  12.086  1.00  0.00    -0.477 OA
ATOM     19  H   UNL     1      30.920  34.274  12.071  1.00  0.00     0.296 HD
ENDBRANCH  16  18
ENDBRANCH   9  16
BRANCH  12  20
ATOM     20  O   UNL     1      33.335  35.672  17.539  1.00  0.00    -0.391 OA
ATOM     21  H   UNL     1      34.240  36.118  17.550  1.00  0.00     0.211 HD
ENDBRANCH  12  20
BRANCH  13  22
ATOM     22  N   UNL     1      30.364  37.033  16.213  1.00  0.00    -0.348 N 
ATOM     23  C   UNL     1      29.440  37.512  17.176  1.00  0.00     0.217 C 
ATOM     24  H   UNL     1      30.422  37.536  15.305  1.00  0.00     0.163 HD
ATOM     25  C   UNL     1      28.556  38.690  16.950  1.00  0.00     0.114 C 
ATOM     26  O   UNL     1      29.388  36.877  18.284  1.00  0.00    -0.275 OA
ENDBRANCH  13  22
ENDBRANCH   7   8
BRANCH   7  27
ATOM     27  O   UNL     1      29.701  34.060  17.493  1.00  0.00    -0.388 OA
ATOM     28  H   UNL     1      30.522  34.356  17.996  1.00  0.00     0.211 HD
ENDBRANCH   7  27
ENDBRANCH   6   7
BRANCH   6  29
ATOM     29  O   UNL     1      30.827  31.753  14.982  1.00  0.00    -0.388 OA
ATOM     30  H   UNL     1      31.008  32.399  14.282  1.00  0.00     0.211 HD
ENDBRANCH   6  29
ENDBRANCH   5   6
ENDBRANCH   1   5
BRANCH   2  31
ATOM     31  O   UNL     1      26.593  30.652  15.779  1.00  0.00    -0.443 OA
BRANCH  31  32
ATOM     32  C   UNL     1      25.884  31.847  16.061  1.00  0.00     0.294 C 
BRANCH  32  33
ATOM     33  C   UNL     1      25.695  32.666  14.846  1.00  0.00     0.120 A 
ATOM     34  C   UNL     1      26.446  33.785  14.459  1.00  0.00     0.138 A 
ATOM     35  N   UNL     1      24.791  32.535  13.868  1.00  0.00    -0.132 NA
ATOM     36  N   UNL     1      26.003  34.280  13.316  1.00  0.00    -0.248 N 
ATOM     37  N   UNL     1      24.967  33.479  12.969  1.00  0.00    -0.067 NA
BRANCH  36  38
ATOM     38  C   UNL     1      26.380  35.399  12.485  1.00  0.00     0.182 C 
BRANCH  38  39
ATOM     39  C   UNL     1      26.606  35.097  11.078  1.00  0.00    -0.012 A 
ATOM     40  C   UNL     1      27.565  34.158  10.689  1.00  0.00     0.007 A 
ATOM     41  C   UNL     1      25.881  35.684  10.082  1.00  0.00     0.023 A 
ATOM     42  C   UNL     1      27.741  33.863   9.365  1.00  0.00     0.000 A 
ATOM     43  C   UNL     1      26.063  35.384   8.744  1.00  0.00     0.016 A 
ATOM     44  Br  UNL     1      24.560  37.035  10.475  1.00  0.00    -0.050 Br
ATOM     45  C   UNL     1      27.006  34.459   8.371  1.00  0.00     0.001 A 
ENDBRANCH  38  39
ENDBRANCH  36  38
ENDBRANCH  32  33
ENDBRANCH  31  32
ENDBRANCH   2  31
TORSDOF 16
BEGIN_RES LYS A 131
REMARK  4 active torsions:
REMARK  status: ('A' for Active; 'I' for Inactive)
REMARK    1  A    between atoms: CA   and  CB  
REMARK    2  A    between atoms: CB   and  CG  
REMARK    3  A    between atoms: CG   and  CD  
REMARK    4  A    between atoms: CD   and  CE  
ROOT
ATOM      1  CA  LYS A 131      29.867  25.555  16.977  1.00 20.52     0.186 C 
ENDROOT
BRANCH   1   2
ATOM      2  CB  LYS A 131      28.345  25.722  17.026  1.00 20.94     0.034 C 
BRANCH   2   3
ATOM      3  CG  LYS A 131      27.601  24.403  16.886  1.00 22.96     0.005 C 
BRANCH   3   4
ATOM      4  CD  LYS A 131      26.146  24.533  17.241  1.00 24.33     0.041 C 
BRANCH   4   5
ATOM      5  CE  LYS A 131      25.966  24.313  18.740  1.00 26.91     0.338 C 
ATOM      6  NZ  LYS A 131      25.552  25.572  19.403  1.00 27.40     0.618 N 
ENDBRANCH   4   5
ENDBRANCH   3   4
ENDBRANCH   2   3
ENDBRANCH   1   2
END_RES LYS A 131
BEGIN_RES LYS A 135
REMARK  4 active torsions:
REMARK  status: ('A' for Active; 'I' for Inactive)
REMARK    5  A    between atoms: CA   and  CB  
REMARK    6  A    between atoms: CB   and  CG  
REMARK    7  A    between atoms: CG   and  CD  
REMARK    8  A    between atoms: CD   and  CE  
ROOT
ATOM      7  CA  LYS A 135      33.193  34.663   9.290  1.00 25.02     0.186 C 
ENDROOT
BRANCH   7   8
ATOM      8  CB  LYS A 135      32.060  35.360  10.034  1.00 26.63     0.034 C 
BRANCH   8   9
ATOM      9  CG  LYS A 135      30.810  35.526   9.209  1.00 29.45     0.005 C 
BRANCH   9  10
ATOM     10  CD  LYS A 135      30.103  36.826   9.560  1.00 32.00     0.041 C 
BRANCH  10  11
ATOM     11  CE  LYS A 135      31.091  37.977   9.592  1.00 34.25     0.338 C 
ATOM     12  NZ  LYS A 135      30.757  38.940  10.677  1.00 35.99     0.618 N 
ENDBRANCH  10  11
ENDBRANCH   9  10
ENDBRANCH   8   9
ENDBRANCH   7   8
END_RES LYS A 135
