REMARK VINA RESULT:    -4.268      3.006      7.092
REMARK INTER + INTRA:         -14.085
REMARK INTER:                  -8.056
REMARK INTRA:                  -6.029
REMARK UNBOUND:                -5.949
REMARK SMILES CCOC(=O)Cn1cc(COC(=O)NC[C@@H](O)C(O)[C@@H]2O[C@@](O)(C(=O)O)C[C@H](O)[C@H]2NC(C)=O)nn1
REMARK SMILES IDX 14 1 12 2 13 3 15 5 16 6 18 7 20 8 22 9 27 10 21 11 28 12
REMARK SMILES IDX 30 13 23 14 24 16 25 17 26 18 29 20 31 22 32 23 33 25 34 26
REMARK SMILES IDX 19 27 17 29 11 31 10 32 9 33 8 34 35 35 7 36 36 37 6 38 4 39
REMARK SMILES IDX 5 40 3 41 2 42 1 43
REMARK H PARENT 14 4 23 15 26 19 29 21 31 24 19 28 17 30
REMARK Flexibility Score: inf
ROOT
ATOM      1  N   UNL     1      25.377  32.826  15.945  1.00  0.00    -0.319 N 
ATOM      2  C   UNL     1      25.048  32.916  14.573  1.00  0.00     0.407 C 
ATOM      3  O   UNL     1      24.121  32.274  14.068  1.00  0.00    -0.225 OA
ATOM      4  H   UNL     1      26.203  33.450  16.228  1.00  0.00     0.167 HD
ENDROOT
BRANCH   1   5
ATOM      5  C   UNL     1      24.731  32.011  16.921  1.00  0.00     0.154 C 
BRANCH   5   6
ATOM      6  C   UNL     1      25.153  30.585  17.006  1.00  0.00     0.165 C 
BRANCH   6   7
ATOM      7  C   UNL     1      26.593  30.351  16.717  1.00  0.00     0.176 C 
BRANCH   7   8
ATOM      8  C   UNL     1      27.570  30.994  17.663  1.00  0.00     0.178 C 
ATOM      9  C   UNL     1      29.559  31.566  16.574  1.00  0.00     0.269 C 
ATOM     10  C   UNL     1      30.410  31.546  17.825  1.00  0.00     0.112 C 
ATOM     11  O   UNL     1      28.288  31.917  16.905  1.00  0.00    -0.332 OA
ATOM     12  C   UNL     1      29.724  30.756  18.878  1.00  0.00     0.145 C 
ATOM     13  C   UNL     1      28.473  30.022  18.369  1.00  0.00     0.142 C 
BRANCH   9  14
ATOM     14  O   UNL     1      29.719  30.336  15.961  1.00  0.00    -0.357 OA
ATOM     15  H   UNL     1      28.937  30.184  15.382  1.00  0.00     0.214 HD
ENDBRANCH   9  14
BRANCH   9  16
ATOM     16  C   UNL     1      30.122  32.620  15.701  1.00  0.00     0.364 C 
ATOM     17  O   UNL     1      29.809  33.810  15.920  1.00  0.00    -0.246 OA
BRANCH  16  18
ATOM     18  O   UNL     1      30.972  32.323  14.666  1.00  0.00    -0.477 OA
ATOM     19  H   UNL     1      30.813  31.533  14.041  1.00  0.00     0.296 HD
ENDBRANCH  16  18
ENDBRANCH   9  16
BRANCH  12  20
ATOM     20  O   UNL     1      30.550  29.832  19.511  1.00  0.00    -0.391 OA
ATOM     21  H   UNL     1      31.311  29.543  18.968  1.00  0.00     0.211 HD
ENDBRANCH  12  20
BRANCH  13  22
ATOM     22  N   UNL     1      27.862  29.501  19.573  1.00  0.00    -0.348 N 
ATOM     23  C   UNL     1      27.476  28.164  19.778  1.00  0.00     0.217 C 
ATOM     24  H   UNL     1      27.697  30.177  20.351  1.00  0.00     0.163 HD
ATOM     25  C   UNL     1      26.852  27.651  21.021  1.00  0.00     0.114 C 
ATOM     26  O   UNL     1      27.684  27.352  18.824  1.00  0.00    -0.275 OA
ENDBRANCH  13  22
ENDBRANCH   7   8
BRANCH   7  27
ATOM     27  O   UNL     1      26.854  29.020  16.502  1.00  0.00    -0.388 OA
ATOM     28  H   UNL     1      26.897  28.471  17.325  1.00  0.00     0.211 HD
ENDBRANCH   7  27
ENDBRANCH   6   7
BRANCH   6  29
ATOM     29  O   UNL     1      24.437  29.864  16.028  1.00  0.00    -0.388 OA
ATOM     30  H   UNL     1      24.539  28.878  16.182  1.00  0.00     0.211 HD
ENDBRANCH   6  29
ENDBRANCH   5   6
ENDBRANCH   1   5
BRANCH   2  31
ATOM     31  O   UNL     1      25.782  33.761  13.710  1.00  0.00    -0.443 OA
BRANCH  31  32
ATOM     32  C   UNL     1      26.157  35.064  14.113  1.00  0.00     0.294 C 
BRANCH  32  33
ATOM     33  C   UNL     1      27.533  35.293  13.597  1.00  0.00     0.120 A 
ATOM     34  C   UNL     1      28.440  36.248  13.993  1.00  0.00     0.139 A 
ATOM     35  N   UNL     1      28.173  34.593  12.620  1.00  0.00    -0.132 NA
ATOM     36  N   UNL     1      29.566  36.080  13.245  1.00  0.00    -0.241 N 
ATOM     37  N   UNL     1      29.370  35.066  12.421  1.00  0.00    -0.066 NA
BRANCH  36  38
ATOM     38  C   UNL     1      30.787  36.849  13.304  1.00  0.00     0.268 C 
BRANCH  38  39
ATOM     39  C   UNL     1      31.961  35.993  13.074  1.00  0.00     0.327 C 
ATOM     40  O   UNL     1      32.710  36.232  12.102  1.00  0.00    -0.250 OA
BRANCH  39  41
ATOM     41  O   UNL     1      32.197  34.937  13.955  1.00  0.00    -0.465 OA
BRANCH  41  42
ATOM     42  C   UNL     1      33.494  34.913  14.559  1.00  0.00     0.229 C 
ATOM     43  C   UNL     1      33.410  35.670  15.860  1.00  0.00     0.049 C 
ENDBRANCH  41  42
ENDBRANCH  39  41
ENDBRANCH  38  39
ENDBRANCH  36  38
ENDBRANCH  32  33
ENDBRANCH  31  32
ENDBRANCH   2  31
TORSDOF 18
BEGIN_RES LYS A 131
REMARK  4 active torsions:
REMARK  status: ('A' for Active; 'I' for Inactive)
REMARK    1  A    between atoms: CA   and  CB  
REMARK    2  A    between atoms: CB   and  CG  
REMARK    3  A    between atoms: CG   and  CD  
REMARK    4  A    between atoms: CD   and  CE  
ROOT
ATOM      1  CA  LYS A 131      29.867  25.555  16.977  1.00 20.52     0.186 C 
ENDROOT
BRANCH   1   2
ATOM      2  CB  LYS A 131      28.345  25.722  17.026  1.00 20.94     0.034 C 
BRANCH   2   3
ATOM      3  CG  LYS A 131      27.599  24.425  16.753  1.00 22.96     0.005 C 
BRANCH   3   4
ATOM      4  CD  LYS A 131      26.616  24.096  17.842  1.00 24.33     0.041 C 
BRANCH   4   5
ATOM      5  CE  LYS A 131      25.197  24.192  17.292  1.00 26.91     0.338 C 
ATOM      6  NZ  LYS A 131      24.525  22.872  17.358  1.00 27.40     0.618 N 
ENDBRANCH   4   5
ENDBRANCH   3   4
ENDBRANCH   2   3
ENDBRANCH   1   2
END_RES LYS A 131
BEGIN_RES LYS A 135
REMARK  4 active torsions:
REMARK  status: ('A' for Active; 'I' for Inactive)
REMARK    5  A    between atoms: CA   and  CB  
REMARK    6  A    between atoms: CB   and  CG  
REMARK    7  A    between atoms: CG   and  CD  
REMARK    8  A    between atoms: CD   and  CE  
ROOT
ATOM      7  CA  LYS A 135      33.193  34.663   9.290  1.00 25.02     0.186 C 
ENDROOT
BRANCH   7   8
ATOM      8  CB  LYS A 135      32.060  35.360  10.034  1.00 26.63     0.034 C 
BRANCH   8   9
ATOM      9  CG  LYS A 135      30.821  35.555   9.199  1.00 29.45     0.005 C 
BRANCH   9  10
ATOM     10  CD  LYS A 135      30.075  34.241   9.029  1.00 32.00     0.041 C 
BRANCH  10  11
ATOM     11  CE  LYS A 135      28.739  34.471   8.350  1.00 34.25     0.338 C 
ATOM     12  NZ  LYS A 135      27.868  35.362   9.166  1.00 35.99     0.618 N 
ENDBRANCH  10  11
ENDBRANCH   9  10
ENDBRANCH   8   9
ENDBRANCH   7   8
END_RES LYS A 135
