REMARK VINA RESULT:    -4.858      3.787      6.425
REMARK INTER + INTRA:         -14.694
REMARK INTER:                  -8.086
REMARK INTRA:                  -6.608
REMARK UNBOUND:                -6.003
REMARK SMILES CC(=O)N[C@@H]1[C@@H](O)C[C@](O)(C(=O)O)O[C@H]1C(O)[C@H](O)CNC(=O)OCc1cn(Cc2ccc3c(c2)OCO3)nn1
REMARK SMILES IDX 21 1 22 2 23 3 20 5 18 6 16 7 15 8 9 9 8 10 14 11 6 12 5 13
REMARK SMILES IDX 10 14 11 16 12 17 13 18 7 20 4 22 2 23 1 25 3 26 17 27 19 29
REMARK SMILES IDX 24 31 25 32 26 33 27 34 40 35 28 36 39 37 29 38 30 39 31 40
REMARK SMILES IDX 35 41 32 42 34 43 33 44 36 45 38 46 37 47
REMARK H PARENT 21 4 10 15 13 19 7 21 4 24 17 28 19 30
REMARK Flexibility Score: inf
ROOT
ATOM      1  N   UNL     1      23.789  37.479  10.253  1.00  0.00    -0.319 N 
ATOM      2  C   UNL     1      23.736  36.168  10.804  1.00  0.00     0.407 C 
ATOM      3  O   UNL     1      22.972  35.296  10.277  1.00  0.00    -0.225 OA
ATOM      4  H   UNL     1      24.417  38.162  10.701  1.00  0.00     0.167 HD
ENDROOT
BRANCH   1   5
ATOM      5  C   UNL     1      22.960  37.750   9.107  1.00  0.00     0.154 C 
BRANCH   5   6
ATOM      6  C   UNL     1      23.724  37.854   7.825  1.00  0.00     0.165 C 
BRANCH   6   7
ATOM      7  C   UNL     1      24.038  39.284   7.447  1.00  0.00     0.176 C 
BRANCH   7   8
ATOM      8  C   UNL     1      25.541  39.539   7.515  1.00  0.00     0.178 C 
ATOM      9  C   UNL     1      26.636  39.585   9.561  1.00  0.00     0.269 C 
ATOM     10  C   UNL     1      27.589  40.681   9.141  1.00  0.00     0.112 C 
ATOM     11  O   UNL     1      26.142  38.847   8.524  1.00  0.00    -0.332 OA
ATOM     12  C   UNL     1      27.335  41.144   7.721  1.00  0.00     0.145 C 
ATOM     13  C   UNL     1      25.849  41.013   7.479  1.00  0.00     0.142 C 
BRANCH   9  14
ATOM     14  O   UNL     1      25.597  40.112  10.352  1.00  0.00    -0.357 OA
ATOM     15  H   UNL     1      24.754  39.639  10.225  1.00  0.00     0.214 HD
ENDBRANCH   9  14
BRANCH   9  16
ATOM     16  C   UNL     1      27.403  38.670  10.450  1.00  0.00     0.364 C 
ATOM     17  O   UNL     1      28.592  38.953  10.786  1.00  0.00    -0.246 OA
BRANCH  16  18
ATOM     18  O   UNL     1      26.890  37.487  10.954  1.00  0.00    -0.477 OA
ATOM     19  H   UNL     1      27.550  36.730  11.153  1.00  0.00     0.296 HD
ENDBRANCH  16  18
ENDBRANCH   9  16
BRANCH  12  20
ATOM     20  O   UNL     1      27.798  42.439   7.514  1.00  0.00    -0.391 OA
ATOM     21  H   UNL     1      27.780  42.609   6.541  1.00  0.00     0.211 HD
ENDBRANCH  12  20
BRANCH  13  22
ATOM     22  N   UNL     1      25.411  41.584   6.256  1.00  0.00    -0.348 N 
ATOM     23  C   UNL     1      24.456  42.632   6.202  1.00  0.00     0.217 C 
ATOM     24  H   UNL     1      25.830  41.194   5.360  1.00  0.00     0.163 HD
ATOM     25  C   UNL     1      24.016  43.213   4.893  1.00  0.00     0.114 C 
ATOM     26  O   UNL     1      24.006  43.040   7.303  1.00  0.00    -0.275 OA
ENDBRANCH  13  22
ENDBRANCH   7   8
BRANCH   7  27
ATOM     27  O   UNL     1      23.442  40.113   8.396  1.00  0.00    -0.388 OA
ATOM     28  H   UNL     1      22.888  39.572   9.011  1.00  0.00     0.211 HD
ENDBRANCH   7  27
ENDBRANCH   6   7
BRANCH   6  29
ATOM     29  O   UNL     1      22.956  37.258   6.825  1.00  0.00    -0.388 OA
ATOM     30  H   UNL     1      23.451  37.177   5.974  1.00  0.00     0.211 HD
ENDBRANCH   6  29
ENDBRANCH   5   6
ENDBRANCH   1   5
BRANCH   2  31
ATOM     31  O   UNL     1      24.490  35.786  11.909  1.00  0.00    -0.443 OA
BRANCH  31  32
ATOM     32  C   UNL     1      25.044  34.475  11.930  1.00  0.00     0.294 C 
BRANCH  32  33
ATOM     33  C   UNL     1      26.464  34.506  11.511  1.00  0.00     0.120 A 
ATOM     34  C   UNL     1      26.912  34.216  10.255  1.00  0.00     0.138 A 
ATOM     35  N   UNL     1      27.542  34.803  12.236  1.00  0.00    -0.132 NA
ATOM     36  N   UNL     1      28.246  34.346  10.254  1.00  0.00    -0.248 N 
ATOM     37  N   UNL     1      28.614  34.703  11.462  1.00  0.00    -0.067 NA
BRANCH  36  38
ATOM     38  C   UNL     1      29.107  34.127   9.112  1.00  0.00     0.181 C 
BRANCH  38  39
ATOM     39  C   UNL     1      29.071  35.372   8.294  1.00  0.00    -0.023 A 
ATOM     40  C   UNL     1      29.902  36.413   8.640  1.00  0.00     0.010 A 
ATOM     41  C   UNL     1      28.238  35.511   7.213  1.00  0.00     0.056 A 
ATOM     42  C   UNL     1      29.885  37.585   7.890  1.00  0.00     0.051 A 
ATOM     43  C   UNL     1      28.224  36.676   6.472  1.00  0.00     0.166 A 
ATOM     44  C   UNL     1      29.045  37.720   6.804  1.00  0.00     0.165 A 
ATOM     45  O   UNL     1      27.480  37.030   5.363  1.00  0.00    -0.454 OA
ATOM     46  O   UNL     1      28.844  38.758   5.918  1.00  0.00    -0.454 OA
ATOM     47  C   UNL     1      28.022  38.240   4.882  1.00  0.00     0.468 C 
ENDBRANCH  38  39
ENDBRANCH  36  38
ENDBRANCH  32  33
ENDBRANCH  31  32
ENDBRANCH   2  31
TORSDOF 16
BEGIN_RES LYS A 131
REMARK  4 active torsions:
REMARK  status: ('A' for Active; 'I' for Inactive)
REMARK    1  A    between atoms: CA   and  CB  
REMARK    2  A    between atoms: CB   and  CG  
REMARK    3  A    between atoms: CG   and  CD  
REMARK    4  A    between atoms: CD   and  CE  
ROOT
ATOM      1  CA  LYS A 131      29.867  25.555  16.977  1.00 20.52     0.186 C 
ENDROOT
BRANCH   1   2
ATOM      2  CB  LYS A 131      28.345  25.722  17.026  1.00 20.94     0.034 C 
BRANCH   2   3
ATOM      3  CG  LYS A 131      27.601  24.402  16.889  1.00 22.96     0.005 C 
BRANCH   3   4
ATOM      4  CD  LYS A 131      26.654  24.165  18.032  1.00 24.33     0.041 C 
BRANCH   4   5
ATOM      5  CE  LYS A 131      25.429  25.060  17.873  1.00 26.91     0.338 C 
ATOM      6  NZ  LYS A 131      24.518  24.514  16.839  1.00 27.40     0.618 N 
ENDBRANCH   4   5
ENDBRANCH   3   4
ENDBRANCH   2   3
ENDBRANCH   1   2
END_RES LYS A 131
BEGIN_RES LYS A 135
REMARK  4 active torsions:
REMARK  status: ('A' for Active; 'I' for Inactive)
REMARK    5  A    between atoms: CA   and  CB  
REMARK    6  A    between atoms: CB   and  CG  
REMARK    7  A    between atoms: CG   and  CD  
REMARK    8  A    between atoms: CD   and  CE  
ROOT
ATOM      7  CA  LYS A 135      33.193  34.663   9.290  1.00 25.02     0.186 C 
ENDROOT
BRANCH   7   8
ATOM      8  CB  LYS A 135      32.060  35.360  10.034  1.00 26.63     0.034 C 
BRANCH   8   9
ATOM      9  CG  LYS A 135      32.473  35.922  11.370  1.00 29.45     0.005 C 
BRANCH   9  10
ATOM     10  CD  LYS A 135      31.923  37.329  11.553  1.00 32.00     0.041 C 
BRANCH  10  11
ATOM     11  CE  LYS A 135      31.209  37.452  12.885  1.00 34.25     0.338 C 
ATOM     12  NZ  LYS A 135      31.114  36.132  13.567  1.00 35.99     0.618 N 
ENDBRANCH  10  11
ENDBRANCH   9  10
ENDBRANCH   8   9
ENDBRANCH   7   8
END_RES LYS A 135
