REMARK VINA RESULT:    -7.874      4.783      9.433
REMARK INTER + INTRA:         -13.357
REMARK INTER:                  -8.116
REMARK INTRA:                  -5.240
REMARK UNBOUND:                 3.032
REMARK SMILES CC(=O)N[C@@H]1[C@@H](O)C[C@](O)(C(=O)O)O[C@H]1C(O)[C@H](O)CNC(=O)OCc1cn(C2CC(O)C=C[C@@H](O)C2)nn1
REMARK SMILES IDX 21 1 22 2 23 3 20 5 18 6 16 7 15 8 9 9 8 10 14 11 6 12 5 13
REMARK SMILES IDX 10 14 11 16 12 17 13 18 7 20 4 22 2 23 1 25 3 26 17 27 19 29
REMARK SMILES IDX 24 31 25 32 26 33 27 34 39 35 28 36 38 37 29 38 30 39 31 40
REMARK SMILES IDX 32 42 37 44 35 45 34 46 33 47 36 49
REMARK H PARENT 21 4 10 15 13 19 7 21 4 24 17 28 19 30 32 43 36 50
REMARK Flexibility Score: 90.00
ROOT
ATOM      1  N   UNL     1      22.323  35.721  13.348  1.00  0.00    -0.319 N 
ATOM      2  C   UNL     1      23.003  36.933  13.672  1.00  0.00     0.407 C 
ATOM      3  O   UNL     1      22.409  38.035  13.798  1.00  0.00    -0.225 OA
ATOM      4  H   UNL     1      22.841  34.821  13.249  1.00  0.00     0.167 HD
ENDROOT
BRANCH   1   5
ATOM      5  C   UNL     1      20.874  35.827  13.167  1.00  0.00     0.154 C 
BRANCH   5   6
ATOM      6  C   UNL     1      20.530  34.993  11.947  1.00  0.00     0.165 C 
BRANCH   6   7
ATOM      7  C   UNL     1      20.905  35.675  10.651  1.00  0.00     0.176 C 
BRANCH   7   8
ATOM      8  C   UNL     1      19.775  35.700   9.671  1.00  0.00     0.178 C 
ATOM      9  C   UNL     1      18.568  34.607   8.075  1.00  0.00     0.269 C 
ATOM     10  C   UNL     1      17.744  35.870   8.209  1.00  0.00     0.112 C 
ATOM     11  O   UNL     1      19.515  34.490   9.084  1.00  0.00    -0.332 OA
ATOM     12  C   UNL     1      18.603  37.115   8.112  1.00  0.00     0.145 C 
ATOM     13  C   UNL     1      19.977  36.726   8.577  1.00  0.00     0.142 C 
BRANCH   9  14
ATOM     14  O   UNL     1      19.135  34.505   6.810  1.00  0.00    -0.357 OA
ATOM     15  H   UNL     1      19.618  33.645   6.687  1.00  0.00     0.214 HD
ENDBRANCH   9  14
BRANCH   9  16
ATOM     16  C   UNL     1      17.629  33.471   8.240  1.00  0.00     0.364 C 
ATOM     17  O   UNL     1      16.923  33.032   7.292  1.00  0.00    -0.246 OA
BRANCH  16  18
ATOM     18  O   UNL     1      17.516  32.864   9.471  1.00  0.00    -0.477 OA
ATOM     19  H   UNL     1      17.330  31.876   9.610  1.00  0.00     0.296 HD
ENDBRANCH  16  18
ENDBRANCH   9  16
BRANCH  12  20
ATOM     20  O   UNL     1      18.557  37.552   6.809  1.00  0.00    -0.391 OA
ATOM     21  H   UNL     1      18.168  38.482   6.819  1.00  0.00     0.211 HD
ENDBRANCH  12  20
BRANCH  13  22
ATOM     22  N   UNL     1      20.820  37.801   8.952  1.00  0.00    -0.348 N 
ATOM     23  C   UNL     1      22.137  38.025   8.472  1.00  0.00     0.217 C 
ATOM     24  H   UNL     1      20.455  38.494   9.640  1.00  0.00     0.163 HD
ATOM     25  C   UNL     1      22.949  39.193   8.931  1.00  0.00     0.114 C 
ATOM     26  O   UNL     1      22.597  37.210   7.648  1.00  0.00    -0.275 OA
ENDBRANCH  13  22
ENDBRANCH   7   8
BRANCH   7  27
ATOM     27  O   UNL     1      22.091  35.200  10.146  1.00  0.00    -0.388 OA
ATOM     28  H   UNL     1      22.020  35.153   9.167  1.00  0.00     0.211 HD
ENDBRANCH   7  27
ENDBRANCH   6   7
BRANCH   6  29
ATOM     29  O   UNL     1      19.128  34.817  11.887  1.00  0.00    -0.388 OA
ATOM     30  H   UNL     1      18.653  35.644  12.183  1.00  0.00     0.211 HD
ENDBRANCH   6  29
ENDBRANCH   5   6
ENDBRANCH   1   5
BRANCH   2  31
ATOM     31  O   UNL     1      24.364  36.915  13.858  1.00  0.00    -0.443 OA
BRANCH  31  32
ATOM     32  C   UNL     1      25.229  35.929  13.323  1.00  0.00     0.294 C 
BRANCH  32  33
ATOM     33  C   UNL     1      25.312  36.120  11.857  1.00  0.00     0.120 A 
ATOM     34  C   UNL     1      25.868  37.157  11.142  1.00  0.00     0.138 A 
ATOM     35  N   UNL     1      24.824  35.251  10.950  1.00  0.00    -0.132 NA
ATOM     36  N   UNL     1      25.708  36.900   9.830  1.00  0.00    -0.249 N 
ATOM     37  N   UNL     1      25.069  35.730   9.758  1.00  0.00    -0.067 NA
BRANCH  36  38
ATOM     38  C   UNL     1      26.154  37.744   8.721  1.00  0.00     0.115 C 
BRANCH  38  39
ATOM     39  C   UNL     1      26.731  36.850   7.675  1.00  0.00     0.063 C 
BRANCH  39  40
ATOM     40  C   UNL     1      27.251  37.551   6.470  1.00  0.00     0.139 CG0
ATOM     41  G   UNL     1      28.589  38.135   6.659  1.00  0.00     0.000 G0
BRANCH  40  42
ATOM     42  O   UNL     1      27.176  36.753   5.308  1.00  0.00    -0.389 OA
ATOM     43  H   UNL     1      26.232  36.657   5.057  1.00  0.00     0.211 HD
ENDBRANCH  40  42
ENDBRANCH  39  40
ENDBRANCH  38  39
BRANCH  38  44
ATOM     44  C   UNL     1      27.108  38.748   9.271  1.00  0.00     0.063 C 
BRANCH  44  45
ATOM     45  C   UNL     1      28.549  38.343   9.198  1.00  0.00     0.139 C 
BRANCH  45  46
ATOM     46  C   UNL     1      29.132  38.462   7.844  1.00  0.00     0.002 C 
ATOM     47  C   UNL     1      28.592  38.130   6.694  1.00  0.00     0.002 CG0
ATOM     48  G   UNL     1      27.265  37.551   6.427  1.00  0.00     0.000 G0
ENDBRANCH  45  46
BRANCH  45  49
ATOM     49  O   UNL     1      29.336  38.994  10.147  1.00  0.00    -0.389 OA
ATOM     50  H   UNL     1      29.781  39.791   9.765  1.00  0.00     0.211 HD
ENDBRANCH  45  49
ENDBRANCH  44  45
ENDBRANCH  38  44
ENDBRANCH  36  38
ENDBRANCH  32  33
ENDBRANCH  31  32
ENDBRANCH   2  31
TORSDOF 17
BEGIN_RES LYS A 131
REMARK  4 active torsions:
REMARK  status: ('A' for Active; 'I' for Inactive)
REMARK    1  A    between atoms: CA   and  CB  
REMARK    2  A    between atoms: CB   and  CG  
REMARK    3  A    between atoms: CG   and  CD  
REMARK    4  A    between atoms: CD   and  CE  
ROOT
ATOM      1  CA  LYS A 131      29.867  25.555  16.977  1.00 20.52     0.186 C 
ENDROOT
BRANCH   1   2
ATOM      2  CB  LYS A 131      28.345  25.722  17.026  1.00 20.94     0.034 C 
BRANCH   2   3
ATOM      3  CG  LYS A 131      27.602  24.398  16.935  1.00 22.96     0.005 C 
BRANCH   3   4
ATOM      4  CD  LYS A 131      26.152  24.535  17.309  1.00 24.33     0.041 C 
BRANCH   4   5
ATOM      5  CE  LYS A 131      25.985  24.269  18.801  1.00 26.91     0.338 C 
ATOM      6  NZ  LYS A 131      25.700  25.531  19.525  1.00 27.40     0.618 N 
ENDBRANCH   4   5
ENDBRANCH   3   4
ENDBRANCH   2   3
ENDBRANCH   1   2
END_RES LYS A 131
BEGIN_RES LYS A 135
REMARK  4 active torsions:
REMARK  status: ('A' for Active; 'I' for Inactive)
REMARK    5  A    between atoms: CA   and  CB  
REMARK    6  A    between atoms: CB   and  CG  
REMARK    7  A    between atoms: CG   and  CD  
REMARK    8  A    between atoms: CD   and  CE  
ROOT
ATOM      7  CA  LYS A 135      33.193  34.663   9.290  1.00 25.02     0.186 C 
ENDROOT
BRANCH   7   8
ATOM      8  CB  LYS A 135      32.060  35.360  10.034  1.00 26.63     0.034 C 
BRANCH   8   9
ATOM      9  CG  LYS A 135      30.806  35.516   9.213  1.00 29.45     0.005 C 
BRANCH   9  10
ATOM     10  CD  LYS A 135      30.095  34.180   9.060  1.00 32.00     0.041 C 
BRANCH  10  11
ATOM     11  CE  LYS A 135      28.708  34.242   9.670  1.00 34.25     0.338 C 
ATOM     12  NZ  LYS A 135      28.705  35.062  10.913  1.00 35.99     0.618 N 
ENDBRANCH  10  11
ENDBRANCH   9  10
ENDBRANCH   8   9
ENDBRANCH   7   8
END_RES LYS A 135
