REMARK VINA RESULT:    -3.625      7.500     15.191
REMARK INTER + INTRA:         -15.673
REMARK INTER:                  -8.720
REMARK INTRA:                  -6.953
REMARK UNBOUND:                -8.446
REMARK SMILES CC(=O)N[C@@H]1[C@@H](O)C[C@](O)(C(=O)O)O[C@H]1C(O)[C@H](O)CNC(=O)OCc1cn(CC(O)Cn2ccnc2[N+](=O)[O-])nn1
REMARK SMILES IDX 24 1 22 2 21 3 23 5 20 6 18 7 16 8 15 9 9 10 8 11 14 12 6 13
REMARK SMILES IDX 5 14 10 15 11 17 12 18 13 19 7 21 4 23 2 24 1 26 3 27 17 28
REMARK SMILES IDX 19 30 25 32 26 33 27 34 42 35 28 36 41 37 29 38 30 39 31 40
REMARK SMILES IDX 32 42 33 43 34 44 37 45 35 46 36 47 38 48 39 49 40 50
REMARK H PARENT 21 4 10 16 13 20 7 22 4 25 17 29 19 31 31 41
REMARK Flexibility Score: inf
ROOT
ATOM      1  O   UNL     1      24.784  40.321   7.735  1.00  0.00    -0.443 OA
ENDROOT
BRANCH   1   2
ATOM      2  C   UNL     1      25.614  40.120   6.619  1.00  0.00     0.407 C 
ATOM      3  N   UNL     1      26.781  39.351   6.666  1.00  0.00    -0.319 N 
ATOM      4  H   UNL     1      27.036  38.909   7.601  1.00  0.00     0.167 HD
ATOM      5  O   UNL     1      25.255  40.667   5.567  1.00  0.00    -0.225 OA
BRANCH   3   6
ATOM      6  C   UNL     1      27.658  39.118   5.544  1.00  0.00     0.154 C 
BRANCH   6   7
ATOM      7  C   UNL     1      29.068  39.014   6.059  1.00  0.00     0.165 C 
BRANCH   7   8
ATOM      8  C   UNL     1      29.849  40.195   5.531  1.00  0.00     0.176 C 
BRANCH   8   9
ATOM      9  C   UNL     1      31.054  40.492   6.414  1.00  0.00     0.178 C 
ATOM     10  C   UNL     1      33.278  39.832   6.616  1.00  0.00     0.269 C 
ATOM     11  C   UNL     1      33.048  39.984   8.108  1.00  0.00     0.112 C 
ATOM     12  O   UNL     1      32.072  39.692   5.974  1.00  0.00    -0.332 OA
ATOM     13  C   UNL     1      31.724  39.356   8.479  1.00  0.00     0.145 C 
ATOM     14  C   UNL     1      30.645  40.234   7.853  1.00  0.00     0.142 C 
BRANCH  10  15
ATOM     15  O   UNL     1      34.018  38.662   6.354  1.00  0.00    -0.357 OA
ATOM     16  H   UNL     1      33.999  38.529   5.379  1.00  0.00     0.214 HD
ENDBRANCH  10  15
BRANCH  10  17
ATOM     17  C   UNL     1      34.003  40.974   6.043  1.00  0.00     0.364 C 
ATOM     18  O   UNL     1      34.639  41.750   6.774  1.00  0.00    -0.246 OA
BRANCH  17  19
ATOM     19  O   UNL     1      33.985  41.197   4.679  1.00  0.00    -0.477 OA
ATOM     20  H   UNL     1      34.317  40.500   4.038  1.00  0.00     0.296 HD
ENDBRANCH  17  19
ENDBRANCH  10  17
BRANCH  13  21
ATOM     21  O   UNL     1      31.553  38.087   7.949  1.00  0.00    -0.391 OA
ATOM     22  H   UNL     1      30.708  38.032   7.459  1.00  0.00     0.211 HD
ENDBRANCH  13  21
BRANCH  14  23
ATOM     23  N   UNL     1      30.538  41.449   8.610  1.00  0.00    -0.348 N 
ATOM     24  C   UNL     1      29.282  42.043   8.846  1.00  0.00     0.217 C 
ATOM     25  H   UNL     1      31.370  41.951   9.019  1.00  0.00     0.163 HD
ATOM     26  C   UNL     1      29.177  43.309   9.634  1.00  0.00     0.114 C 
ATOM     27  O   UNL     1      28.227  41.522   8.400  1.00  0.00    -0.275 OA
ENDBRANCH  14  23
ENDBRANCH   8   9
BRANCH   8  28
ATOM     28  O   UNL     1      29.037  41.310   5.579  1.00  0.00    -0.388 OA
ATOM     29  H   UNL     1      28.963  41.772   4.712  1.00  0.00     0.211 HD
ENDBRANCH   8  28
ENDBRANCH   7   8
BRANCH   7  30
ATOM     30  O   UNL     1      29.665  37.802   5.725  1.00  0.00    -0.388 OA
ATOM     31  H   UNL     1      30.545  38.020   5.327  1.00  0.00     0.211 HD
ENDBRANCH   7  30
ENDBRANCH   6   7
ENDBRANCH   3   6
ENDBRANCH   1   2
BRANCH   1  32
ATOM     32  C   UNL     1      23.769  39.352   8.042  1.00  0.00     0.294 C 
BRANCH  32  33
ATOM     33  C   UNL     1      24.340  38.144   8.628  1.00  0.00     0.120 A 
ATOM     34  C   UNL     1      24.565  37.923   9.964  1.00  0.00     0.138 A 
ATOM     35  N   UNL     1      24.735  37.056   7.951  1.00  0.00    -0.132 NA
ATOM     36  N   UNL     1      25.096  36.696  10.059  1.00  0.00    -0.249 N 
ATOM     37  N   UNL     1      25.188  36.197   8.850  1.00  0.00    -0.067 NA
BRANCH  36  38
ATOM     38  C   UNL     1      25.490  36.063  11.330  1.00  0.00     0.181 C 
BRANCH  38  39
ATOM     39  C   UNL     1      26.337  34.841  11.056  1.00  0.00     0.170 C 
BRANCH  39  40
ATOM     40  O   UNL     1      25.860  33.850  11.942  1.00  0.00    -0.388 OA
ATOM     41  H   UNL     1      26.556  33.518  12.539  1.00  0.00     0.211 HD
ENDBRANCH  39  40
BRANCH  39  42
ATOM     42  C   UNL     1      27.772  35.163  11.328  1.00  0.00     0.239 C 
BRANCH  42  43
ATOM     43  N   UNL     1      28.485  35.184  10.048  1.00  0.00    -0.227 N 
ATOM     44  C   UNL     1      28.802  34.109   9.290  1.00  0.00     0.204 A 
ATOM     45  C   UNL     1      28.910  36.283   9.450  1.00  0.00     0.434 A 
ATOM     46  C   UNL     1      29.445  34.565   8.185  1.00  0.00     0.245 A 
ATOM     47  N   UNL     1      29.507  35.891   8.290  1.00  0.00    -0.074 NA
BRANCH  45  48
ATOM     48  N   UNL     1      28.793  37.645   9.895  1.00  0.00    -0.047 N 
ATOM     49  O   UNL     1      29.474  38.118  10.819  1.00  0.00    -0.390 OA
ATOM     50  O   UNL     1      27.884  38.475   9.271  1.00  0.00    -0.390 OA
ENDBRANCH  45  48
ENDBRANCH  42  43
ENDBRANCH  39  42
ENDBRANCH  38  39
ENDBRANCH  36  38
ENDBRANCH  32  33
ENDBRANCH   1  32
TORSDOF 20
BEGIN_RES LYS A 131
REMARK  4 active torsions:
REMARK  status: ('A' for Active; 'I' for Inactive)
REMARK    1  A    between atoms: CA   and  CB  
REMARK    2  A    between atoms: CB   and  CG  
REMARK    3  A    between atoms: CG   and  CD  
REMARK    4  A    between atoms: CD   and  CE  
ROOT
ATOM      1  CA  LYS A 131      29.867  25.555  16.977  1.00 20.52     0.186 C 
ENDROOT
BRANCH   1   2
ATOM      2  CB  LYS A 131      28.345  25.722  17.026  1.00 20.94     0.034 C 
BRANCH   2   3
ATOM      3  CG  LYS A 131      27.600  24.407  16.855  1.00 22.96     0.005 C 
BRANCH   3   4
ATOM      4  CD  LYS A 131      26.144  24.530  17.208  1.00 24.33     0.041 C 
BRANCH   4   5
ATOM      5  CE  LYS A 131      26.000  24.741  18.711  1.00 26.91     0.338 C 
ATOM      6  NZ  LYS A 131      25.484  23.512  19.360  1.00 27.40     0.618 N 
ENDBRANCH   4   5
ENDBRANCH   3   4
ENDBRANCH   2   3
ENDBRANCH   1   2
END_RES LYS A 131
BEGIN_RES LYS A 135
REMARK  4 active torsions:
REMARK  status: ('A' for Active; 'I' for Inactive)
REMARK    5  A    between atoms: CA   and  CB  
REMARK    6  A    between atoms: CB   and  CG  
REMARK    7  A    between atoms: CG   and  CD  
REMARK    8  A    between atoms: CD   and  CE  
ROOT
ATOM      7  CA  LYS A 135      33.193  34.663   9.290  1.00 25.02     0.186 C 
ENDROOT
BRANCH   7   8
ATOM      8  CB  LYS A 135      32.060  35.360  10.034  1.00 26.63     0.034 C 
BRANCH   8   9
ATOM      9  CG  LYS A 135      32.534  36.263  11.144  1.00 29.45     0.005 C 
BRANCH   9  10
ATOM     10  CD  LYS A 135      32.236  35.646  12.502  1.00 32.00     0.041 C 
BRANCH  10  11
ATOM     11  CE  LYS A 135      31.327  36.550  13.310  1.00 34.25     0.338 C 
ATOM     12  NZ  LYS A 135      32.046  37.129  14.478  1.00 35.99     0.618 N 
ENDBRANCH  10  11
ENDBRANCH   9  10
ENDBRANCH   8   9
ENDBRANCH   7   8
END_RES LYS A 135
