REMARK VINA RESULT:    -4.908      4.885      8.464
REMARK INTER + INTRA:         -14.504
REMARK INTER:                  -7.130
REMARK INTRA:                  -7.374
REMARK UNBOUND:                -5.578
REMARK SMILES CC(=O)N[C@@H]1[C@@H](O)C[C@](O)(C(=O)O)O[C@H]1C(O)[C@H](O)CNC(=O)OCc1cn(C(C)(C)C(=O)O)nn1
REMARK SMILES IDX 21 1 22 2 23 3 20 5 18 6 16 7 15 8 9 9 8 10 14 11 6 12 5 13
REMARK SMILES IDX 10 14 11 16 12 17 13 18 7 20 4 22 2 23 1 25 3 26 17 27 19 29
REMARK SMILES IDX 24 31 25 32 26 33 27 34 36 35 28 36 35 37 29 38 30 39 31 40
REMARK SMILES IDX 32 41 33 42 34 43
REMARK H PARENT 21 4 10 15 13 19 7 21 4 24 17 28 19 30 34 44
REMARK Flexibility Score: inf
ROOT
ATOM      1  N   UNL     1      25.554  28.581  17.994  1.00  0.00    -0.319 N 
ATOM      2  C   UNL     1      24.983  29.863  17.819  1.00  0.00     0.407 C 
ATOM      3  O   UNL     1      24.769  30.624  18.825  1.00  0.00    -0.225 OA
ATOM      4  H   UNL     1      25.726  27.972  17.173  1.00  0.00     0.167 HD
ENDROOT
BRANCH   1   5
ATOM      5  C   UNL     1      25.885  28.166  19.334  1.00  0.00     0.154 C 
BRANCH   5   6
ATOM      6  C   UNL     1      27.328  28.247  19.687  1.00  0.00     0.165 C 
BRANCH   6   7
ATOM      7  C   UNL     1      27.751  29.605  20.188  1.00  0.00     0.176 C 
BRANCH   7   8
ATOM      8  C   UNL     1      29.107  29.447  20.886  1.00  0.00     0.178 C 
ATOM      9  C   UNL     1      30.495  27.725  21.606  1.00  0.00     0.269 C 
ATOM     10  C   UNL     1      30.683  28.399  22.947  1.00  0.00     0.112 C 
ATOM     11  O   UNL     1      29.327  28.077  20.973  1.00  0.00    -0.332 OA
ATOM     12  C   UNL     1      29.426  29.117  23.343  1.00  0.00     0.145 C 
ATOM     13  C   UNL     1      29.054  30.099  22.250  1.00  0.00     0.142 C 
BRANCH   9  14
ATOM     14  O   UNL     1      30.401  26.350  21.872  1.00  0.00    -0.357 OA
ATOM     15  H   UNL     1      29.552  26.004  21.544  1.00  0.00     0.214 HD
ENDBRANCH   9  14
BRANCH   9  16
ATOM     16  C   UNL     1      31.677  27.941  20.743  1.00  0.00     0.364 C 
ATOM     17  O   UNL     1      32.398  28.946  20.911  1.00  0.00    -0.246 OA
BRANCH  16  18
ATOM     18  O   UNL     1      32.025  27.054  19.736  1.00  0.00    -0.477 OA
ATOM     19  H   UNL     1      31.352  26.438  19.302  1.00  0.00     0.296 HD
ENDBRANCH  16  18
ENDBRANCH   9  16
BRANCH  12  20
ATOM     20  O   UNL     1      28.393  28.270  23.664  1.00  0.00    -0.391 OA
ATOM     21  H   UNL     1      28.212  27.570  23.000  1.00  0.00     0.211 HD
ENDBRANCH  12  20
BRANCH  13  22
ATOM     22  N   UNL     1      30.011  31.201  22.338  1.00  0.00    -0.348 N 
ATOM     23  C   UNL     1      29.662  32.517  21.929  1.00  0.00     0.217 C 
ATOM     24  H   UNL     1      30.971  31.031  22.704  1.00  0.00     0.163 HD
ATOM     25  C   UNL     1      30.627  33.653  22.012  1.00  0.00     0.114 C 
ATOM     26  O   UNL     1      28.479  32.672  21.489  1.00  0.00    -0.275 OA
ENDBRANCH  13  22
ENDBRANCH   7   8
BRANCH   7  27
ATOM     27  O   UNL     1      27.786  30.590  19.241  1.00  0.00    -0.388 OA
ATOM     28  H   UNL     1      27.469  31.438  19.605  1.00  0.00     0.211 HD
ENDBRANCH   7  27
ENDBRANCH   6   7
BRANCH   6  29
ATOM     29  O   UNL     1      28.038  27.964  18.492  1.00  0.00    -0.388 OA
ATOM     30  H   UNL     1      28.702  28.696  18.343  1.00  0.00     0.211 HD
ENDBRANCH   6  29
ENDBRANCH   5   6
ENDBRANCH   1   5
BRANCH   2  31
ATOM     31  O   UNL     1      24.620  30.381  16.593  1.00  0.00    -0.443 OA
BRANCH  31  32
ATOM     32  C   UNL     1      25.434  30.179  15.424  1.00  0.00     0.294 C 
BRANCH  32  33
ATOM     33  C   UNL     1      26.843  30.460  15.804  1.00  0.00     0.120 A 
ATOM     34  C   UNL     1      27.440  31.710  15.810  1.00  0.00     0.139 A 
ATOM     35  N   UNL     1      27.810  29.615  16.207  1.00  0.00    -0.132 NA
ATOM     36  N   UNL     1      28.728  31.593  16.209  1.00  0.00    -0.235 N 
ATOM     37  N   UNL     1      28.916  30.307  16.441  1.00  0.00    -0.066 NA
BRANCH  36  38
ATOM     38  C   UNL     1      29.675  32.681  16.342  1.00  0.00     0.155 C 
ATOM     39  C   UNL     1      31.031  32.261  15.815  1.00  0.00     0.049 C 
ATOM     40  C   UNL     1      29.173  33.881  15.567  1.00  0.00     0.049 C 
BRANCH  38  41
ATOM     41  C   UNL     1      29.863  33.052  17.776  1.00  0.00     0.331 C 
ATOM     42  O   UNL     1      31.043  33.122  18.204  1.00  0.00    -0.250 OA
BRANCH  41  43
ATOM     43  O   UNL     1      28.799  33.312  18.617  1.00  0.00    -0.479 OA
ATOM     44  H   UNL     1      28.259  32.517  18.946  1.00  0.00     0.296 HD
ENDBRANCH  41  43
ENDBRANCH  38  41
ENDBRANCH  36  38
ENDBRANCH  32  33
ENDBRANCH  31  32
ENDBRANCH   2  31
TORSDOF 17
BEGIN_RES LYS A 131
REMARK  4 active torsions:
REMARK  status: ('A' for Active; 'I' for Inactive)
REMARK    1  A    between atoms: CA   and  CB  
REMARK    2  A    between atoms: CB   and  CG  
REMARK    3  A    between atoms: CG   and  CD  
REMARK    4  A    between atoms: CD   and  CE  
ROOT
ATOM      1  CA  LYS A 131      29.867  25.555  16.977  1.00 20.52     0.186 C 
ENDROOT
BRANCH   1   2
ATOM      2  CB  LYS A 131      28.345  25.722  17.026  1.00 20.94     0.034 C 
BRANCH   2   3
ATOM      3  CG  LYS A 131      27.601  24.401  16.898  1.00 22.96     0.005 C 
BRANCH   3   4
ATOM      4  CD  LYS A 131      26.538  24.246  17.950  1.00 24.33     0.041 C 
BRANCH   4   5
ATOM      5  CE  LYS A 131      25.162  24.379  17.306  1.00 26.91     0.338 C 
ATOM      6  NZ  LYS A 131      24.485  23.062  17.252  1.00 27.40     0.618 N 
ENDBRANCH   4   5
ENDBRANCH   3   4
ENDBRANCH   2   3
ENDBRANCH   1   2
END_RES LYS A 131
BEGIN_RES LYS A 135
REMARK  4 active torsions:
REMARK  status: ('A' for Active; 'I' for Inactive)
REMARK    5  A    between atoms: CA   and  CB  
REMARK    6  A    between atoms: CB   and  CG  
REMARK    7  A    between atoms: CG   and  CD  
REMARK    8  A    between atoms: CD   and  CE  
ROOT
ATOM      7  CA  LYS A 135      33.193  34.663   9.290  1.00 25.02     0.186 C 
ENDROOT
BRANCH   7   8
ATOM      8  CB  LYS A 135      32.060  35.360  10.034  1.00 26.63     0.034 C 
BRANCH   8   9
ATOM      9  CG  LYS A 135      30.710  34.732   9.801  1.00 29.45     0.005 C 
BRANCH   9  10
ATOM     10  CD  LYS A 135      30.483  34.483   8.318  1.00 32.00     0.041 C 
BRANCH  10  11
ATOM     11  CE  LYS A 135      29.040  34.762   7.946  1.00 34.25     0.338 C 
ATOM     12  NZ  LYS A 135      28.955  35.622   6.732  1.00 35.99     0.618 N 
ENDBRANCH  10  11
ENDBRANCH   9  10
ENDBRANCH   8   9
ENDBRANCH   7   8
END_RES LYS A 135
