REMARK VINA RESULT:    -5.152      0.000      0.000
REMARK INTER + INTRA:         -14.946
REMARK INTER:                  -7.284
REMARK INTRA:                  -7.662
REMARK UNBOUND:                -5.578
REMARK SMILES CC(=O)N[C@@H]1[C@@H](O)C[C@](O)(C(=O)O)O[C@H]1C(O)[C@H](O)CNC(=O)OCc1cn(C(C)(C)C(=O)O)nn1
REMARK SMILES IDX 21 1 22 2 23 3 20 5 18 6 16 7 15 8 9 9 8 10 14 11 6 12 5 13
REMARK SMILES IDX 10 14 11 16 12 17 13 18 7 20 4 22 2 23 1 25 3 26 17 27 19 29
REMARK SMILES IDX 24 31 25 32 26 33 27 34 36 35 28 36 35 37 29 38 30 39 31 40
REMARK SMILES IDX 32 41 33 42 34 43
REMARK H PARENT 21 4 10 15 13 19 7 21 4 24 17 28 19 30 34 44
REMARK Flexibility Score: inf
ROOT
ATOM      1  N   UNL     1      25.113  35.270  14.150  1.00  0.00    -0.319 N 
ATOM      2  C   UNL     1      24.982  33.877  13.941  1.00  0.00     0.407 C 
ATOM      3  O   UNL     1      25.291  33.355  12.815  1.00  0.00    -0.225 OA
ATOM      4  H   UNL     1      24.862  35.684  15.067  1.00  0.00     0.167 HD
ENDROOT
BRANCH   1   5
ATOM      5  C   UNL     1      25.606  36.073  13.060  1.00  0.00     0.154 C 
BRANCH   5   6
ATOM      6  C   UNL     1      27.017  36.527  13.190  1.00  0.00     0.165 C 
BRANCH   6   7
ATOM      7  C   UNL     1      28.009  35.612  12.517  1.00  0.00     0.176 C 
BRANCH   7   8
ATOM      8  C   UNL     1      29.306  36.402  12.306  1.00  0.00     0.178 C 
ATOM      9  C   UNL     1      31.283  36.828  13.455  1.00  0.00     0.269 C 
ATOM     10  C   UNL     1      31.171  38.307  13.159  1.00  0.00     0.112 C 
ATOM     11  O   UNL     1      30.077  36.171  13.440  1.00  0.00    -0.332 OA
ATOM     12  C   UNL     1      29.728  38.720  13.142  1.00  0.00     0.145 C 
ATOM     13  C   UNL     1      28.983  37.870  12.131  1.00  0.00     0.142 C 
BRANCH   9  14
ATOM     14  O   UNL     1      31.769  36.730  14.768  1.00  0.00    -0.357 OA
ATOM     15  H   UNL     1      32.049  35.816  14.954  1.00  0.00     0.214 HD
ENDBRANCH   9  14
BRANCH   9  16
ATOM     16  C   UNL     1      32.271  36.190  12.557  1.00  0.00     0.364 C 
ATOM     17  O   UNL     1      32.750  36.831  11.600  1.00  0.00    -0.246 OA
BRANCH  16  18
ATOM     18  O   UNL     1      32.694  34.882  12.739  1.00  0.00    -0.477 OA
ATOM     19  H   UNL     1      32.264  34.263  13.411  1.00  0.00     0.296 HD
ENDBRANCH  16  18
ENDBRANCH   9  16
BRANCH  12  20
ATOM     20  O   UNL     1      29.140  38.697  14.383  1.00  0.00    -0.391 OA
ATOM     21  H   UNL     1      28.635  39.507  14.616  1.00  0.00     0.211 HD
ENDBRANCH  12  20
BRANCH  13  22
ATOM     22  N   UNL     1      29.395  38.340  10.809  1.00  0.00    -0.348 N 
ATOM     23  C   UNL     1      28.489  38.354   9.714  1.00  0.00     0.217 C 
ATOM     24  H   UNL     1      30.370  38.673  10.654  1.00  0.00     0.163 HD
ATOM     25  C   UNL     1      28.893  38.830   8.358  1.00  0.00     0.114 C 
ATOM     26  O   UNL     1      27.312  37.937   9.956  1.00  0.00    -0.275 OA
ENDBRANCH  13  22
ENDBRANCH   7   8
BRANCH   7  27
ATOM     27  O   UNL     1      28.241  34.430  13.161  1.00  0.00    -0.388 OA
ATOM     28  H   UNL     1      27.411  33.935  13.297  1.00  0.00     0.211 HD
ENDBRANCH   7  27
ENDBRANCH   6   7
BRANCH   6  29
ATOM     29  O   UNL     1      27.292  36.548  14.582  1.00  0.00    -0.388 OA
ATOM     30  H   UNL     1      26.573  36.031  15.049  1.00  0.00     0.211 HD
ENDBRANCH   6  29
ENDBRANCH   5   6
ENDBRANCH   1   5
BRANCH   2  31
ATOM     31  O   UNL     1      24.523  32.997  14.900  1.00  0.00    -0.443 OA
BRANCH  31  32
ATOM     32  C   UNL     1      25.389  32.012  15.490  1.00  0.00     0.294 C 
BRANCH  32  33
ATOM     33  C   UNL     1      26.679  32.681  15.804  1.00  0.00     0.120 A 
ATOM     34  C   UNL     1      27.909  32.050  15.900  1.00  0.00     0.139 A 
ATOM     35  N   UNL     1      26.937  33.978  16.055  1.00  0.00    -0.132 NA
ATOM     36  N   UNL     1      28.861  32.963  16.201  1.00  0.00    -0.235 N 
ATOM     37  N   UNL     1      28.234  34.121  16.286  1.00  0.00    -0.066 NA
BRANCH  36  38
ATOM     38  C   UNL     1      30.272  32.686  16.381  1.00  0.00     0.155 C 
ATOM     39  C   UNL     1      30.757  33.275  17.690  1.00  0.00     0.049 C 
ATOM     40  C   UNL     1      30.494  31.188  16.381  1.00  0.00     0.049 C 
BRANCH  38  41
ATOM     41  C   UNL     1      31.082  33.314  15.297  1.00  0.00     0.331 C 
ATOM     42  O   UNL     1      32.187  33.819  15.620  1.00  0.00    -0.250 OA
BRANCH  41  43
ATOM     43  O   UNL     1      30.656  33.351  13.983  1.00  0.00    -0.479 OA
ATOM     44  H   UNL     1      29.707  33.045  13.792  1.00  0.00     0.296 HD
ENDBRANCH  41  43
ENDBRANCH  38  41
ENDBRANCH  36  38
ENDBRANCH  32  33
ENDBRANCH  31  32
ENDBRANCH   2  31
TORSDOF 17
BEGIN_RES LYS A 131
REMARK  4 active torsions:
REMARK  status: ('A' for Active; 'I' for Inactive)
REMARK    1  A    between atoms: CA   and  CB  
REMARK    2  A    between atoms: CB   and  CG  
REMARK    3  A    between atoms: CG   and  CD  
REMARK    4  A    between atoms: CD   and  CE  
ROOT
ATOM      1  CA  LYS A 131      29.867  25.555  16.977  1.00 20.52     0.186 C 
ENDROOT
BRANCH   1   2
ATOM      2  CB  LYS A 131      28.345  25.722  17.026  1.00 20.94     0.034 C 
BRANCH   2   3
ATOM      3  CG  LYS A 131      27.601  24.401  16.903  1.00 22.96     0.005 C 
BRANCH   3   4
ATOM      4  CD  LYS A 131      26.156  24.526  17.297  1.00 24.33     0.041 C 
BRANCH   4   5
ATOM      5  CE  LYS A 131      25.963  23.973  18.706  1.00 26.91     0.338 C 
ATOM      6  NZ  LYS A 131      24.965  22.878  18.701  1.00 27.40     0.618 N 
ENDBRANCH   4   5
ENDBRANCH   3   4
ENDBRANCH   2   3
ENDBRANCH   1   2
END_RES LYS A 131
BEGIN_RES LYS A 135
REMARK  4 active torsions:
REMARK  status: ('A' for Active; 'I' for Inactive)
REMARK    5  A    between atoms: CA   and  CB  
REMARK    6  A    between atoms: CB   and  CG  
REMARK    7  A    between atoms: CG   and  CD  
REMARK    8  A    between atoms: CD   and  CE  
ROOT
ATOM      7  CA  LYS A 135      33.193  34.663   9.290  1.00 25.02     0.186 C 
ENDROOT
BRANCH   7   8
ATOM      8  CB  LYS A 135      32.060  35.360  10.034  1.00 26.63     0.034 C 
BRANCH   8   9
ATOM      9  CG  LYS A 135      30.760  35.378   9.272  1.00 29.45     0.005 C 
BRANCH   9  10
ATOM     10  CD  LYS A 135      30.057  34.034   9.378  1.00 32.00     0.041 C 
BRANCH  10  11
ATOM     11  CE  LYS A 135      28.588  34.173   9.026  1.00 34.25     0.338 C 
ATOM     12  NZ  LYS A 135      28.397  35.092   7.870  1.00 35.99     0.618 N 
ENDBRANCH  10  11
ENDBRANCH   9  10
ENDBRANCH   8   9
ENDBRANCH   7   8
END_RES LYS A 135
