REMARK VINA RESULT:    -4.976      3.131      7.294
REMARK INTER + INTRA:         -15.103
REMARK INTER:                  -7.972
REMARK INTRA:                  -7.131
REMARK UNBOUND:                -6.490
REMARK SMILES CC(=O)N[C@@H]1[C@@H](O)C[C@](O)(C(=O)O)O[C@H]1C(O)[C@H](O)CNC(=O)OCc1cn(-c2ccc3[nH]ncc3c2)nn1
REMARK SMILES IDX 20 1 18 2 16 3 15 4 9 5 8 6 14 7 6 8 5 9 10 10 11 12 12 13
REMARK SMILES IDX 13 14 7 16 4 18 2 19 1 21 3 22 17 23 19 25 21 27 22 28 23 30
REMARK SMILES IDX 24 31 25 32 26 33 27 34 39 35 28 36 38 37 29 38 30 39 37 40
REMARK SMILES IDX 31 41 36 42 32 43 35 44 33 45 34 46
REMARK H PARENT 10 11 13 15 7 17 4 20 17 24 19 26 21 29 33 47
REMARK Flexibility Score: inf
ROOT
ATOM      1  C   UNL     1      25.989  35.430  16.178  1.00  0.00     0.154 C 
ENDROOT
BRANCH   1   2
ATOM      2  C   UNL     1      26.397  34.039  16.396  1.00  0.00     0.165 C 
BRANCH   2   3
ATOM      3  C   UNL     1      27.931  33.893  16.294  1.00  0.00     0.176 C 
BRANCH   3   4
ATOM      4  C   UNL     1      28.482  32.844  17.157  1.00  0.00     0.178 C 
ATOM      5  C   UNL     1      30.408  33.731  18.145  1.00  0.00     0.269 C 
ATOM      6  C   UNL     1      31.119  33.343  16.880  1.00  0.00     0.112 C 
ATOM      7  O   UNL     1      29.154  33.211  18.285  1.00  0.00    -0.332 OA
ATOM      8  C   UNL     1      30.723  32.009  16.351  1.00  0.00     0.145 C 
ATOM      9  C   UNL     1      29.245  31.783  16.353  1.00  0.00     0.142 C 
BRANCH   5  10
ATOM     10  O   UNL     1      30.355  35.121  18.234  1.00  0.00    -0.357 OA
ATOM     11  H   UNL     1      30.273  35.434  19.168  1.00  0.00     0.214 HD
ENDBRANCH   5  10
BRANCH   5  12
ATOM     12  C   UNL     1      31.230  33.234  19.272  1.00  0.00     0.364 C 
ATOM     13  O   UNL     1      32.181  33.910  19.694  1.00  0.00    -0.246 OA
BRANCH  12  14
ATOM     14  O   UNL     1      30.936  32.017  19.851  1.00  0.00    -0.477 OA
ATOM     15  H   UNL     1      30.367  31.922  20.704  1.00  0.00     0.296 HD
ENDBRANCH  12  14
ENDBRANCH   5  12
BRANCH   8  16
ATOM     16  O   UNL     1      31.259  31.882  15.055  1.00  0.00    -0.391 OA
ATOM     17  H   UNL     1      31.707  32.742  14.872  1.00  0.00     0.211 HD
ENDBRANCH   8  16
BRANCH   9  18
ATOM     18  N   UNL     1      28.876  30.447  16.738  1.00  0.00    -0.348 N 
ATOM     19  C   UNL     1      27.644  29.855  16.351  1.00  0.00     0.217 C 
ATOM     20  H   UNL     1      29.539  29.866  17.335  1.00  0.00     0.163 HD
ATOM     21  C   UNL     1      27.312  28.480  16.772  1.00  0.00     0.114 C 
ATOM     22  O   UNL     1      26.849  30.527  15.646  1.00  0.00    -0.275 OA
ENDBRANCH   9  18
ENDBRANCH   3   4
BRANCH   3  23
ATOM     23  O   UNL     1      28.055  33.398  14.946  1.00  0.00    -0.388 OA
ATOM     24  H   UNL     1      28.844  32.814  14.872  1.00  0.00     0.211 HD
ENDBRANCH   3  23
ENDBRANCH   2   3
BRANCH   2  25
ATOM     25  O   UNL     1      25.915  33.321  15.235  1.00  0.00    -0.388 OA
ATOM     26  H   UNL     1      25.761  32.369  15.490  1.00  0.00     0.211 HD
ENDBRANCH   2  25
ENDBRANCH   1   2
BRANCH   1  27
ATOM     27  N   UNL     1      26.757  36.184  15.226  1.00  0.00    -0.319 N 
ATOM     28  C   UNL     1      26.338  36.344  13.879  1.00  0.00     0.407 C 
ATOM     29  H   UNL     1      27.617  36.675  15.517  1.00  0.00     0.167 HD
ATOM     30  O   UNL     1      25.260  35.803  13.523  1.00  0.00    -0.225 OA
BRANCH  28  31
ATOM     31  O   UNL     1      27.047  37.057  12.940  1.00  0.00    -0.443 OA
BRANCH  31  32
ATOM     32  C   UNL     1      27.847  36.480  11.926  1.00  0.00     0.294 C 
BRANCH  32  33
ATOM     33  C   UNL     1      29.028  35.833  12.591  1.00  0.00     0.121 A 
ATOM     34  C   UNL     1      30.038  36.432  13.311  1.00  0.00     0.144 A 
ATOM     35  N   UNL     1      29.326  34.503  12.608  1.00  0.00    -0.131 NA
ATOM     36  N   UNL     1      30.883  35.440  13.717  1.00  0.00    -0.220 N 
ATOM     37  N   UNL     1      30.425  34.282  13.277  1.00  0.00    -0.062 NA
BRANCH  36  38
ATOM     38  C   UNL     1      32.055  35.648  14.487  1.00  0.00     0.067 A 
ATOM     39  C   UNL     1      33.162  34.851  14.266  1.00  0.00     0.030 A 
ATOM     40  C   UNL     1      32.160  36.617  15.463  1.00  0.00     0.040 A 
ATOM     41  C   UNL     1      34.330  35.007  14.984  1.00  0.00     0.030 A 
ATOM     42  C   UNL     1      33.306  36.789  16.185  1.00  0.00     0.022 A 
ATOM     43  C   UNL     1      34.421  35.985  15.960  1.00  0.00     0.065 A 
ATOM     44  C   UNL     1      33.680  37.650  17.189  1.00  0.00     0.143 A 
ATOM     45  N   UNL     1      35.396  36.367  16.800  1.00  0.00    -0.278 N 
ATOM     46  N   UNL     1      34.966  37.363  17.541  1.00  0.00    -0.183 NA
ATOM     47  H   UNL     1      36.338  35.937  16.849  1.00  0.00     0.190 HD
ENDBRANCH  36  38
ENDBRANCH  32  33
ENDBRANCH  31  32
ENDBRANCH  28  31
ENDBRANCH   1  27
TORSDOF 15
BEGIN_RES LYS A 131
REMARK  4 active torsions:
REMARK  status: ('A' for Active; 'I' for Inactive)
REMARK    1  A    between atoms: CA   and  CB  
REMARK    2  A    between atoms: CB   and  CG  
REMARK    3  A    between atoms: CG   and  CD  
REMARK    4  A    between atoms: CD   and  CE  
ROOT
ATOM      1  CA  LYS A 131      29.867  25.555  16.977  1.00 20.52     0.186 C 
ENDROOT
BRANCH   1   2
ATOM      2  CB  LYS A 131      28.345  25.722  17.026  1.00 20.94     0.034 C 
BRANCH   2   3
ATOM      3  CG  LYS A 131      27.601  24.403  16.888  1.00 22.96     0.005 C 
BRANCH   3   4
ATOM      4  CD  LYS A 131      26.453  24.296  17.852  1.00 24.33     0.041 C 
BRANCH   4   5
ATOM      5  CE  LYS A 131      26.440  25.517  18.766  1.00 26.91     0.338 C 
ATOM      6  NZ  LYS A 131      25.108  26.166  18.748  1.00 27.40     0.618 N 
ENDBRANCH   4   5
ENDBRANCH   3   4
ENDBRANCH   2   3
ENDBRANCH   1   2
END_RES LYS A 131
BEGIN_RES LYS A 135
REMARK  4 active torsions:
REMARK  status: ('A' for Active; 'I' for Inactive)
REMARK    5  A    between atoms: CA   and  CB  
REMARK    6  A    between atoms: CB   and  CG  
REMARK    7  A    between atoms: CG   and  CD  
REMARK    8  A    between atoms: CD   and  CE  
ROOT
ATOM      7  CA  LYS A 135      33.193  34.663   9.290  1.00 25.02     0.186 C 
ENDROOT
BRANCH   7   8
ATOM      8  CB  LYS A 135      32.060  35.360  10.034  1.00 26.63     0.034 C 
BRANCH   8   9
ATOM      9  CG  LYS A 135      30.804  35.509   9.215  1.00 29.45     0.005 C 
BRANCH   9  10
ATOM     10  CD  LYS A 135      30.013  34.210   9.205  1.00 32.00     0.041 C 
BRANCH  10  11
ATOM     11  CE  LYS A 135      28.607  34.447   8.688  1.00 34.25     0.338 C 
ATOM     12  NZ  LYS A 135      27.613  33.639   9.448  1.00 35.99     0.618 N 
ENDBRANCH  10  11
ENDBRANCH   9  10
ENDBRANCH   8   9
ENDBRANCH   7   8
END_RES LYS A 135
