REMARK VINA RESULT:    -5.303      8.614     12.968
REMARK INTER + INTRA:         -14.339
REMARK INTER:                 -10.358
REMARK INTRA:                  -3.981
REMARK UNBOUND:                -5.161
REMARK SMILES CC(=O)N[C@@H]1[C@@H](O)C[C@](O)(C(=O)O)O[C@H]1C(O)[C@H](O)CNC(=O)OCc1cn(-c2ccc(Br)cc2)nn1
REMARK SMILES IDX 20 1 18 2 16 3 15 4 9 5 8 6 14 7 6 8 5 9 10 10 11 12 12 13
REMARK SMILES IDX 13 14 7 16 4 18 2 19 1 21 3 22 17 23 19 25 21 27 22 28 23 30
REMARK SMILES IDX 24 31 25 32 26 33 27 34 37 35 28 36 36 37 29 38 30 39 35 40
REMARK SMILES IDX 31 41 34 42 32 43 33 44
REMARK H PARENT 10 11 13 15 7 17 4 20 17 24 19 26 21 29
REMARK Flexibility Score: inf
ROOT
ATOM      1  C   UNL     1      28.115  33.752   9.643  1.00  0.00     0.154 C 
ENDROOT
BRANCH   1   2
ATOM      2  C   UNL     1      28.798  34.350   8.450  1.00  0.00     0.165 C 
BRANCH   2   3
ATOM      3  C   UNL     1      29.766  35.441   8.745  1.00  0.00     0.176 C 
BRANCH   3   4
ATOM      4  C   UNL     1      29.235  36.834   8.475  1.00  0.00     0.178 C 
ATOM      5  C   UNL     1      29.107  38.261   6.617  1.00  0.00     0.269 C 
ATOM      6  C   UNL     1      29.297  39.378   7.605  1.00  0.00     0.112 C 
ATOM      7  O   UNL     1      29.488  37.071   7.129  1.00  0.00    -0.332 OA
ATOM      8  C   UNL     1      30.442  39.002   8.517  1.00  0.00     0.145 C 
ATOM      9  C   UNL     1      29.977  37.802   9.352  1.00  0.00     0.142 C 
BRANCH   5  10
ATOM     10  O   UNL     1      29.938  38.505   5.487  1.00  0.00    -0.357 OA
ATOM     11  H   UNL     1      30.261  39.436   5.610  1.00  0.00     0.214 HD
ENDBRANCH   5  10
BRANCH   5  12
ATOM     12  C   UNL     1      27.696  38.179   6.149  1.00  0.00     0.364 C 
ATOM     13  O   UNL     1      26.835  39.036   6.413  1.00  0.00    -0.246 OA
BRANCH  12  14
ATOM     14  O   UNL     1      27.312  37.094   5.379  1.00  0.00    -0.477 OA
ATOM     15  H   UNL     1      26.397  37.028   4.931  1.00  0.00     0.296 HD
ENDBRANCH  12  14
ENDBRANCH   5  12
BRANCH   8  16
ATOM     16  O   UNL     1      31.481  38.536   7.713  1.00  0.00    -0.391 OA
ATOM     17  H   UNL     1      32.365  38.818   8.016  1.00  0.00     0.211 HD
ENDBRANCH   8  16
BRANCH   9  18
ATOM     18  N   UNL     1      29.075  38.347  10.327  1.00  0.00    -0.348 N 
ATOM     19  C   UNL     1      29.472  38.831  11.597  1.00  0.00     0.217 C 
ATOM     20  H   UNL     1      28.045  38.407  10.115  1.00  0.00     0.163 HD
ATOM     21  C   UNL     1      28.495  39.386  12.580  1.00  0.00     0.114 C 
ATOM     22  O   UNL     1      30.680  38.792  11.908  1.00  0.00    -0.275 OA
ENDBRANCH   9  18
ENDBRANCH   3   4
BRANCH   3  23
ATOM     23  O   UNL     1      30.929  35.214   7.969  1.00  0.00    -0.388 OA
ATOM     24  H   UNL     1      30.821  35.717   7.134  1.00  0.00     0.211 HD
ENDBRANCH   3  23
ENDBRANCH   2   3
BRANCH   2  25
ATOM     25  O   UNL     1      27.792  34.858   7.600  1.00  0.00    -0.388 OA
ATOM     26  H   UNL     1      27.219  35.504   8.082  1.00  0.00     0.211 HD
ENDBRANCH   2  25
ENDBRANCH   1   2
BRANCH   1  27
ATOM     27  N   UNL     1      26.894  34.377  10.033  1.00  0.00    -0.319 N 
ATOM     28  C   UNL     1      26.881  35.319  11.126  1.00  0.00     0.407 C 
ATOM     29  H   UNL     1      25.959  34.220   9.604  1.00  0.00     0.167 HD
ATOM     30  O   UNL     1      27.970  35.555  11.701  1.00  0.00    -0.225 OA
BRANCH  28  31
ATOM     31  O   UNL     1      25.710  35.942  11.526  1.00  0.00    -0.443 OA
BRANCH  31  32
ATOM     32  C   UNL     1      25.393  35.852  12.909  1.00  0.00     0.294 C 
BRANCH  32  33
ATOM     33  C   UNL     1      24.946  34.451  13.159  1.00  0.00     0.121 A 
ATOM     34  C   UNL     1      23.828  33.836  12.628  1.00  0.00     0.144 A 
ATOM     35  N   UNL     1      25.530  33.517  13.934  1.00  0.00    -0.131 NA
ATOM     36  N   UNL     1      23.766  32.575  13.088  1.00  0.00    -0.220 N 
ATOM     37  N   UNL     1      24.809  32.424  13.870  1.00  0.00    -0.062 NA
BRANCH  36  38
ATOM     38  C   UNL     1      22.803  31.558  12.826  1.00  0.00     0.066 A 
ATOM     39  C   UNL     1      21.461  31.839  12.650  1.00  0.00     0.029 A 
ATOM     40  C   UNL     1      23.179  30.234  12.735  1.00  0.00     0.029 A 
ATOM     41  C   UNL     1      20.538  30.841  12.395  1.00  0.00     0.018 A 
ATOM     42  C   UNL     1      22.256  29.228  12.479  1.00  0.00     0.018 A 
ATOM     43  C   UNL     1      20.922  29.515  12.305  1.00  0.00     0.018 A 
ATOM     44  Br  UNL     1      19.608  28.180  11.952  1.00  0.00    -0.051 Br
ENDBRANCH  36  38
ENDBRANCH  32  33
ENDBRANCH  31  32
ENDBRANCH  28  31
ENDBRANCH   1  27
TORSDOF 15
BEGIN_RES LYS A 131
REMARK  4 active torsions:
REMARK  status: ('A' for Active; 'I' for Inactive)
REMARK    1  A    between atoms: CA   and  CB  
REMARK    2  A    between atoms: CB   and  CG  
REMARK    3  A    between atoms: CG   and  CD  
REMARK    4  A    between atoms: CD   and  CE  
ROOT
ATOM      1  CA  LYS A 131      29.867  25.555  16.977  1.00 20.52     0.186 C 
ENDROOT
BRANCH   1   2
ATOM      2  CB  LYS A 131      28.345  25.722  17.026  1.00 20.94     0.034 C 
BRANCH   2   3
ATOM      3  CG  LYS A 131      27.602  24.399  16.925  1.00 22.96     0.005 C 
BRANCH   3   4
ATOM      4  CD  LYS A 131      26.430  24.334  17.865  1.00 24.33     0.041 C 
BRANCH   4   5
ATOM      5  CE  LYS A 131      25.132  24.376  17.064  1.00 26.91     0.338 C 
ATOM      6  NZ  LYS A 131      24.239  23.264  17.466  1.00 27.40     0.618 N 
ENDBRANCH   4   5
ENDBRANCH   3   4
ENDBRANCH   2   3
ENDBRANCH   1   2
END_RES LYS A 131
BEGIN_RES LYS A 135
REMARK  4 active torsions:
REMARK  status: ('A' for Active; 'I' for Inactive)
REMARK    5  A    between atoms: CA   and  CB  
REMARK    6  A    between atoms: CB   and  CG  
REMARK    7  A    between atoms: CG   and  CD  
REMARK    8  A    between atoms: CD   and  CE  
ROOT
ATOM      7  CA  LYS A 135      33.193  34.663   9.290  1.00 25.02     0.186 C 
ENDROOT
BRANCH   7   8
ATOM      8  CB  LYS A 135      32.060  35.360  10.034  1.00 26.63     0.034 C 
BRANCH   8   9
ATOM      9  CG  LYS A 135      32.442  35.823  11.416  1.00 29.45     0.005 C 
BRANCH   9  10
ATOM     10  CD  LYS A 135      31.456  35.299  12.449  1.00 32.00     0.041 C 
BRANCH  10  11
ATOM     11  CE  LYS A 135      32.022  35.447  13.849  1.00 34.25     0.338 C 
ATOM     12  NZ  LYS A 135      33.434  34.978  13.909  1.00 35.99     0.618 N 
ENDBRANCH  10  11
ENDBRANCH   9  10
ENDBRANCH   8   9
ENDBRANCH   7   8
END_RES LYS A 135
