REMARK VINA RESULT:    -5.914      3.900      9.989
REMARK INTER + INTRA:         -16.417
REMARK INTER:                 -11.989
REMARK INTRA:                  -4.428
REMARK UNBOUND:                -5.490
REMARK SMILES CC(=O)N[C@@H]1[C@@H](O)C[C@](O)(C(=O)O)O[C@H]1C(O)[C@H](O)CNC(=O)OCc1cn(C(c2ccccc2)c2ccccc2)nn1
REMARK SMILES IDX 21 1 22 2 23 3 20 5 18 6 16 7 15 8 9 9 8 10 14 11 6 12 5 13
REMARK SMILES IDX 10 14 11 16 12 17 13 18 7 20 4 22 2 23 1 25 3 26 17 27 19 29
REMARK SMILES IDX 24 31 25 32 26 33 27 34 43 35 28 36 42 37 29 38 30 39 31 40
REMARK SMILES IDX 35 41 32 42 34 43 33 44 36 45 37 46 41 47 38 48 40 49 39 50
REMARK H PARENT 21 4 10 15 13 19 7 21 4 24 17 28 19 30
REMARK Flexibility Score: inf
ROOT
ATOM      1  N   UNL     1      25.303  37.631  10.641  1.00  0.00    -0.319 N 
ATOM      2  C   UNL     1      26.330  38.154  11.456  1.00  0.00     0.407 C 
ATOM      3  O   UNL     1      26.891  39.233  11.149  1.00  0.00    -0.225 OA
ATOM      4  H   UNL     1      24.861  36.733  10.921  1.00  0.00     0.167 HD
ENDROOT
BRANCH   1   5
ATOM      5  C   UNL     1      24.868  38.305   9.458  1.00  0.00     0.154 C 
BRANCH   5   6
ATOM      6  C   UNL     1      25.357  37.522   8.238  1.00  0.00     0.165 C 
BRANCH   6   7
ATOM      7  C   UNL     1      26.487  38.351   7.649  1.00  0.00     0.176 C 
BRANCH   7   8
ATOM      8  C   UNL     1      27.862  37.786   7.866  1.00  0.00     0.178 C 
ATOM      9  C   UNL     1      29.063  38.949   6.208  1.00  0.00     0.269 C 
ATOM     10  C   UNL     1      29.206  37.688   5.384  1.00  0.00     0.112 C 
ATOM     11  O   UNL     1      28.761  38.774   7.515  1.00  0.00    -0.332 OA
ATOM     12  C   UNL     1      28.140  36.675   5.677  1.00  0.00     0.145 C 
ATOM     13  C   UNL     1      28.079  36.504   7.165  1.00  0.00     0.142 C 
BRANCH   9  14
ATOM     14  O   UNL     1      28.030  39.671   5.607  1.00  0.00    -0.357 OA
ATOM     15  H   UNL     1      28.166  40.627   5.863  1.00  0.00     0.214 HD
ENDBRANCH   9  14
BRANCH   9  16
ATOM     16  C   UNL     1      30.315  39.771   6.030  1.00  0.00     0.364 C 
ATOM     17  O   UNL     1      30.272  40.936   5.624  1.00  0.00    -0.246 OA
BRANCH  16  18
ATOM     18  O   UNL     1      31.523  39.188   6.334  1.00  0.00    -0.477 OA
ATOM     19  H   UNL     1      32.378  39.753   6.279  1.00  0.00     0.296 HD
ENDBRANCH  16  18
ENDBRANCH   9  16
BRANCH  12  20
ATOM     20  O   UNL     1      26.973  37.094   5.102  1.00  0.00    -0.391 OA
ATOM     21  H   UNL     1      26.229  36.454   5.275  1.00  0.00     0.211 HD
ENDBRANCH  12  20
BRANCH  13  22
ATOM     22  N   UNL     1      29.356  35.885   7.575  1.00  0.00    -0.348 N 
ATOM     23  C   UNL     1      29.406  34.713   8.349  1.00  0.00     0.217 C 
ATOM     24  H   UNL     1      30.240  36.348   7.273  1.00  0.00     0.163 HD
ATOM     25  C   UNL     1      30.714  34.124   8.740  1.00  0.00     0.114 C 
ATOM     26  O   UNL     1      28.343  34.146   8.722  1.00  0.00    -0.275 OA
ENDBRANCH  13  22
ENDBRANCH   7   8
BRANCH   7  27
ATOM     27  O   UNL     1      26.418  39.601   8.367  1.00  0.00    -0.388 OA
ATOM     28  H   UNL     1      25.686  40.146   8.041  1.00  0.00     0.211 HD
ENDBRANCH   7  27
ENDBRANCH   6   7
BRANCH   6  29
ATOM     29  O   UNL     1      24.261  37.444   7.392  1.00  0.00    -0.388 OA
ATOM     30  H   UNL     1      24.373  37.951   6.565  1.00  0.00     0.211 HD
ENDBRANCH   6  29
ENDBRANCH   5   6
ENDBRANCH   1   5
BRANCH   2  31
ATOM     31  O   UNL     1      26.754  37.505  12.610  1.00  0.00    -0.443 OA
BRANCH  31  32
ATOM     32  C   UNL     1      28.071  37.694  13.048  1.00  0.00     0.294 C 
BRANCH  32  33
ATOM     33  C   UNL     1      28.775  36.385  13.038  1.00  0.00     0.120 A 
ATOM     34  C   UNL     1      29.512  35.859  14.103  1.00  0.00     0.139 A 
ATOM     35  N   UNL     1      28.875  35.454  12.074  1.00  0.00    -0.132 NA
ATOM     36  N   UNL     1      30.006  34.672  13.743  1.00  0.00    -0.240 N 
ATOM     37  N   UNL     1      29.613  34.444  12.518  1.00  0.00    -0.066 NA
BRANCH  36  38
ATOM     38  C   UNL     1      30.832  33.770  14.532  1.00  0.00     0.169 C 
BRANCH  38  39
ATOM     39  C   UNL     1      31.877  34.493  15.258  1.00  0.00    -0.019 A 
ATOM     40  C   UNL     1      31.725  34.873  16.597  1.00  0.00     0.006 A 
ATOM     41  C   UNL     1      33.066  34.803  14.629  1.00  0.00     0.006 A 
ATOM     42  C   UNL     1      32.733  35.537  17.261  1.00  0.00     0.000 A 
ATOM     43  C   UNL     1      34.060  35.470  15.317  1.00  0.00     0.000 A 
ATOM     44  C   UNL     1      33.923  35.851  16.636  1.00  0.00     0.000 A 
ENDBRANCH  38  39
BRANCH  38  45
ATOM     45  C   UNL     1      30.060  32.794  15.305  1.00  0.00    -0.019 A 
ATOM     46  C   UNL     1      28.671  32.949  15.461  1.00  0.00     0.006 A 
ATOM     47  C   UNL     1      30.676  31.711  15.882  1.00  0.00     0.006 A 
ATOM     48  C   UNL     1      27.942  32.034  16.176  1.00  0.00     0.000 A 
ATOM     49  C   UNL     1      29.922  30.784  16.611  1.00  0.00     0.000 A 
ATOM     50  C   UNL     1      28.564  30.949  16.754  1.00  0.00     0.000 A 
ENDBRANCH  38  45
ENDBRANCH  36  38
ENDBRANCH  32  33
ENDBRANCH  31  32
ENDBRANCH   2  31
TORSDOF 17
BEGIN_RES LYS A 131
REMARK  4 active torsions:
REMARK  status: ('A' for Active; 'I' for Inactive)
REMARK    1  A    between atoms: CA   and  CB  
REMARK    2  A    between atoms: CB   and  CG  
REMARK    3  A    between atoms: CG   and  CD  
REMARK    4  A    between atoms: CD   and  CE  
ROOT
ATOM      1  CA  LYS A 131      29.867  25.555  16.977  1.00 20.52     0.186 C 
ENDROOT
BRANCH   1   2
ATOM      2  CB  LYS A 131      28.345  25.722  17.026  1.00 20.94     0.034 C 
BRANCH   2   3
ATOM      3  CG  LYS A 131      27.600  24.410  16.833  1.00 22.96     0.005 C 
BRANCH   3   4
ATOM      4  CD  LYS A 131      26.560  24.188  17.896  1.00 24.33     0.041 C 
BRANCH   4   5
ATOM      5  CE  LYS A 131      25.891  25.515  18.239  1.00 26.91     0.338 C 
ATOM      6  NZ  LYS A 131      25.905  25.739  19.704  1.00 27.40     0.618 N 
ENDBRANCH   4   5
ENDBRANCH   3   4
ENDBRANCH   2   3
ENDBRANCH   1   2
END_RES LYS A 131
BEGIN_RES LYS A 135
REMARK  4 active torsions:
REMARK  status: ('A' for Active; 'I' for Inactive)
REMARK    5  A    between atoms: CA   and  CB  
REMARK    6  A    between atoms: CB   and  CG  
REMARK    7  A    between atoms: CG   and  CD  
REMARK    8  A    between atoms: CD   and  CE  
ROOT
ATOM      7  CA  LYS A 135      33.193  34.663   9.290  1.00 25.02     0.186 C 
ENDROOT
BRANCH   7   8
ATOM      8  CB  LYS A 135      32.060  35.360  10.034  1.00 26.63     0.034 C 
BRANCH   8   9
ATOM      9  CG  LYS A 135      32.505  36.054  11.296  1.00 29.45     0.005 C 
BRANCH   9  10
ATOM     10  CD  LYS A 135      31.869  37.431  11.403  1.00 32.00     0.041 C 
BRANCH  10  11
ATOM     11  CE  LYS A 135      31.364  37.892  10.049  1.00 34.25     0.338 C 
ATOM     12  NZ  LYS A 135      31.903  39.236   9.704  1.00 35.99     0.618 N 
ENDBRANCH  10  11
ENDBRANCH   9  10
ENDBRANCH   8   9
ENDBRANCH   7   8
END_RES LYS A 135
