REMARK VINA RESULT:    -5.039      0.000      0.000
REMARK INTER + INTRA:         -17.512
REMARK INTER:                 -11.641
REMARK INTRA:                  -5.871
REMARK UNBOUND:                -7.171
REMARK SMILES CCOCCc1c(-c2ccccc2)nc(N)nc1-n1cc(COC(=O)NC[C@@H](O)C(O)[C@@H]2O[C@@](O)(C(=O)O)C[C@H](O)[C@H]2NC(C)=O)nn1
REMARK SMILES IDX 23 1 24 2 26 3 25 5 27 6 28 7 30 8 32 9 34 10 39 11 33 12
REMARK SMILES IDX 40 13 42 14 35 15 36 17 37 18 38 19 41 21 43 23 44 24 45 26
REMARK SMILES IDX 46 27 31 28 29 30 22 32 21 33 20 34 47 35 19 36 48 37 18 38
REMARK SMILES IDX 17 39 6 40 15 41 7 42 14 43 5 44 4 45 3 46 2 47 1 48 16 49
REMARK SMILES IDX 8 52 9 53 13 54 10 55 12 56 11 57
REMARK H PARENT 26 4 35 16 38 20 41 22 43 25 31 29 29 31 16 50 16 51
REMARK Flexibility Score: inf
ROOT
ATOM      1  O   UNL     1      26.709  36.974  10.518  1.00  0.00    -0.443 OA
ENDROOT
BRANCH   1   2
ATOM      2  C   UNL     1      25.881  36.815   9.429  1.00  0.00     0.407 C 
ATOM      3  N   UNL     1      24.893  37.807   9.077  1.00  0.00    -0.319 N 
ATOM      4  H   UNL     1      24.864  38.630   9.711  1.00  0.00     0.167 HD
ATOM      5  O   UNL     1      26.005  35.773   8.737  1.00  0.00    -0.225 OA
BRANCH   3   6
ATOM      6  C   UNL     1      24.051  37.588   7.924  1.00  0.00     0.154 C 
BRANCH   6   7
ATOM      7  C   UNL     1      22.649  38.066   8.278  1.00  0.00     0.165 C 
BRANCH   7   8
ATOM      8  C   UNL     1      21.691  37.062   7.683  1.00  0.00     0.176 C 
BRANCH   8   9
ATOM      9  C   UNL     1      21.589  35.766   8.428  1.00  0.00     0.178 C 
ATOM     10  C   UNL     1      19.282  35.505   8.113  1.00  0.00     0.269 C 
ATOM     11  C   UNL     1      19.107  36.086   9.506  1.00  0.00     0.112 C 
ATOM     12  O   UNL     1      20.549  35.049   7.886  1.00  0.00    -0.332 OA
ATOM     13  C   UNL     1      20.155  35.470  10.410  1.00  0.00     0.145 C 
ATOM     14  C   UNL     1      21.562  35.852   9.910  1.00  0.00     0.142 C 
BRANCH  10  15
ATOM     15  O   UNL     1      18.897  36.520   7.228  1.00  0.00    -0.357 OA
ATOM     16  H   UNL     1      18.125  37.029   7.560  1.00  0.00     0.214 HD
ENDBRANCH  10  15
BRANCH  10  17
ATOM     17  C   UNL     1      18.358  34.370   7.906  1.00  0.00     0.364 C 
ATOM     18  O   UNL     1      17.691  33.942   8.867  1.00  0.00    -0.246 OA
BRANCH  17  19
ATOM     19  O   UNL     1      18.235  33.793   6.670  1.00  0.00    -0.477 OA
ATOM     20  H   UNL     1      18.523  32.850   6.441  1.00  0.00     0.296 HD
ENDBRANCH  17  19
ENDBRANCH  10  17
BRANCH  13  21
ATOM     21  O   UNL     1      19.969  35.853  11.719  1.00  0.00    -0.391 OA
ATOM     22  H   UNL     1      19.550  35.141  12.247  1.00  0.00     0.211 HD
ENDBRANCH  13  21
BRANCH  14  23
ATOM     23  N   UNL     1      22.453  34.872  10.546  1.00  0.00    -0.348 N 
ATOM     24  C   UNL     1      23.412  35.311  11.490  1.00  0.00     0.217 C 
ATOM     25  H   UNL     1      22.392  33.858  10.316  1.00  0.00     0.163 HD
ATOM     26  C   UNL     1      24.350  34.370  12.175  1.00  0.00     0.114 C 
ATOM     27  O   UNL     1      23.456  36.547  11.744  1.00  0.00    -0.275 OA
ENDBRANCH  14  23
ENDBRANCH   8   9
BRANCH   8  28
ATOM     28  O   UNL     1      22.331  36.709   6.449  1.00  0.00    -0.388 OA
ATOM     29  H   UNL     1      22.260  35.745   6.304  1.00  0.00     0.211 HD
ENDBRANCH   8  28
ENDBRANCH   7   8
BRANCH   7  30
ATOM     30  O   UNL     1      22.531  39.344   7.755  1.00  0.00    -0.388 OA
ATOM     31  H   UNL     1      22.667  40.036   8.437  1.00  0.00     0.211 HD
ENDBRANCH   7  30
ENDBRANCH   6   7
ENDBRANCH   3   6
ENDBRANCH   1   2
BRANCH   1  32
ATOM     32  C   UNL     1      27.248  38.197  10.968  1.00  0.00     0.294 C 
BRANCH  32  33
ATOM     33  C   UNL     1      28.332  37.931  11.967  1.00  0.00     0.121 A 
ATOM     34  C   UNL     1      29.057  36.780  12.144  1.00  0.00     0.146 A 
ATOM     35  N   UNL     1      28.798  38.793  12.897  1.00  0.00    -0.131 NA
ATOM     36  N   UNL     1      29.949  36.947  13.167  1.00  0.00    -0.202 N 
ATOM     37  N   UNL     1      29.748  38.190  13.587  1.00  0.00    -0.060 NA
BRANCH  36  38
ATOM     38  C   UNL     1      30.860  35.983  13.663  1.00  0.00     0.164 A 
ATOM     39  N   UNL     1      32.044  35.774  13.071  1.00  0.00    -0.193 NA
ATOM     40  C   UNL     1      30.534  35.197  14.775  1.00  0.00     0.026 A 
ATOM     41  C   UNL     1      32.909  34.833  13.527  1.00  0.00     0.222 A 
ATOM     42  C   UNL     1      31.401  34.247  15.234  1.00  0.00     0.081 A 
ATOM     43  N   UNL     1      32.610  34.074  14.586  1.00  0.00    -0.213 NA
BRANCH  40  44
ATOM     44  C   UNL     1      29.217  35.399  15.414  1.00  0.00     0.070 C 
BRANCH  44  45
ATOM     45  C   UNL     1      28.109  34.543  14.869  1.00  0.00     0.165 C 
BRANCH  45  46
ATOM     46  O   UNL     1      27.121  34.309  15.784  1.00  0.00    -0.381 OA
BRANCH  46  47
ATOM     47  C   UNL     1      27.171  33.062  16.364  1.00  0.00     0.156 C 
ATOM     48  C   UNL     1      27.055  33.137  17.872  1.00  0.00     0.035 C 
ENDBRANCH  46  47
ENDBRANCH  45  46
ENDBRANCH  44  45
ENDBRANCH  40  44
BRANCH  41  49
ATOM     49  N   UNL     1      34.148  34.648  12.871  1.00  0.00    -0.368 N 
ATOM     50  H   UNL     1      34.703  33.790  13.038  1.00  0.00     0.159 HD
ATOM     51  H   UNL     1      34.533  35.354  12.216  1.00  0.00     0.159 HD
ENDBRANCH  41  49
BRANCH  42  52
ATOM     52  C   UNL     1      31.074  33.328  16.307  1.00  0.00     0.001 A 
ATOM     53  C   UNL     1      31.065  33.552  17.634  1.00  0.00     0.010 A 
ATOM     54  C   UNL     1      30.694  32.033  15.888  1.00  0.00     0.010 A 
ATOM     55  C   UNL     1      30.694  32.540  18.540  1.00  0.00     0.001 A 
ATOM     56  C   UNL     1      30.332  31.042  16.757  1.00  0.00     0.001 A 
ATOM     57  C   UNL     1      30.327  31.285  18.120  1.00  0.00     0.000 A 
ENDBRANCH  42  52
ENDBRANCH  36  38
ENDBRANCH  32  33
ENDBRANCH   1  32
TORSDOF 21
BEGIN_RES LYS A 131
REMARK  4 active torsions:
REMARK  status: ('A' for Active; 'I' for Inactive)
REMARK    1  A    between atoms: CA   and  CB  
REMARK    2  A    between atoms: CB   and  CG  
REMARK    3  A    between atoms: CG   and  CD  
REMARK    4  A    between atoms: CD   and  CE  
ROOT
ATOM      1  CA  LYS A 131      29.867  25.555  16.977  1.00 20.52     0.186 C 
ENDROOT
BRANCH   1   2
ATOM      2  CB  LYS A 131      28.345  25.722  17.026  1.00 20.94     0.034 C 
BRANCH   2   3
ATOM      3  CG  LYS A 131      27.600  24.410  16.832  1.00 22.96     0.005 C 
BRANCH   3   4
ATOM      4  CD  LYS A 131      26.811  24.021  18.051  1.00 24.33     0.041 C 
BRANCH   4   5
ATOM      5  CE  LYS A 131      26.296  25.277  18.746  1.00 26.91     0.338 C 
ATOM      6  NZ  LYS A 131      24.917  25.065  19.245  1.00 27.40     0.618 N 
ENDBRANCH   4   5
ENDBRANCH   3   4
ENDBRANCH   2   3
ENDBRANCH   1   2
END_RES LYS A 131
BEGIN_RES LYS A 135
REMARK  4 active torsions:
REMARK  status: ('A' for Active; 'I' for Inactive)
REMARK    5  A    between atoms: CA   and  CB  
REMARK    6  A    between atoms: CB   and  CG  
REMARK    7  A    between atoms: CG   and  CD  
REMARK    8  A    between atoms: CD   and  CE  
ROOT
ATOM      7  CA  LYS A 135      33.193  34.663   9.290  1.00 25.02     0.186 C 
ENDROOT
BRANCH   7   8
ATOM      8  CB  LYS A 135      32.060  35.360  10.034  1.00 26.63     0.034 C 
BRANCH   8   9
ATOM      9  CG  LYS A 135      30.701  34.774   9.748  1.00 29.45     0.005 C 
BRANCH   9  10
ATOM     10  CD  LYS A 135      30.537  34.501   8.261  1.00 32.00     0.041 C 
BRANCH  10  11
ATOM     11  CE  LYS A 135      29.302  35.200   7.725  1.00 34.25     0.338 C 
ATOM     12  NZ  LYS A 135      29.325  36.653   8.047  1.00 35.99     0.618 N 
ENDBRANCH  10  11
ENDBRANCH   9  10
ENDBRANCH   8   9
ENDBRANCH   7   8
END_RES LYS A 135
