REMARK VINA RESULT:    -3.964      2.583      4.412
REMARK INTER + INTRA:         -14.329
REMARK INTER:                  -9.859
REMARK INTRA:                  -4.470
REMARK UNBOUND:                -7.237
REMARK SMILES CC(=O)N[C@@H]1[C@@H](O)C[C@](O)(C(=O)O)O[C@H]1C(O)[C@H](O)CNC(=O)OCc1cn(-c2ccccc2C(C)C)nn1
REMARK SMILES IDX 21 1 22 2 23 3 20 5 18 6 16 7 15 8 9 9 8 10 14 11 6 12 5 13
REMARK SMILES IDX 10 14 11 16 12 17 13 18 7 20 4 22 2 23 1 25 3 26 17 27 19 29
REMARK SMILES IDX 24 31 25 32 26 33 27 34 39 35 28 36 38 37 29 38 34 39 30 40
REMARK SMILES IDX 33 41 31 42 32 43 35 44 36 45 37 46
REMARK H PARENT 21 4 10 15 13 19 7 21 4 24 17 28 19 30
REMARK Flexibility Score: inf
ROOT
ATOM      1  N   UNL     1      24.368  36.347  10.406  1.00  0.00    -0.319 N 
ATOM      2  C   UNL     1      25.541  36.428  11.182  1.00  0.00     0.407 C 
ATOM      3  O   UNL     1      26.255  37.451  11.171  1.00  0.00    -0.225 OA
ATOM      4  H   UNL     1      23.797  35.461  10.465  1.00  0.00     0.167 HD
ENDROOT
BRANCH   1   5
ATOM      5  C   UNL     1      23.936  37.407   9.563  1.00  0.00     0.154 C 
BRANCH   5   6
ATOM      6  C   UNL     1      23.943  37.073   8.072  1.00  0.00     0.165 C 
BRANCH   6   7
ATOM      7  C   UNL     1      25.218  37.755   7.568  1.00  0.00     0.176 C 
BRANCH   7   8
ATOM      8  C   UNL     1      26.258  36.785   7.108  1.00  0.00     0.178 C 
ATOM      9  C   UNL     1      28.011  35.829   8.287  1.00  0.00     0.269 C 
ATOM     10  C   UNL     1      28.879  35.817   7.079  1.00  0.00     0.112 C 
ATOM     11  O   UNL     1      26.668  35.984   8.119  1.00  0.00    -0.332 OA
ATOM     12  C   UNL     1      28.466  36.755   5.966  1.00  0.00     0.145 C 
ATOM     13  C   UNL     1      27.384  37.628   6.529  1.00  0.00     0.142 C 
BRANCH   9  14
ATOM     14  O   UNL     1      28.527  36.753   9.233  1.00  0.00    -0.357 OA
ATOM     15  H   UNL     1      27.836  37.217   9.739  1.00  0.00     0.214 HD
ENDBRANCH   9  14
BRANCH   9  16
ATOM     16  C   UNL     1      28.175  34.477   8.936  1.00  0.00     0.364 C 
ATOM     17  O   UNL     1      27.150  33.889   9.343  1.00  0.00    -0.246 OA
BRANCH  16  18
ATOM     18  O   UNL     1      29.407  33.857   9.091  1.00  0.00    -0.477 OA
ATOM     19  H   UNL     1      30.261  34.148   8.619  1.00  0.00     0.296 HD
ENDBRANCH  16  18
ENDBRANCH   9  16
BRANCH  12  20
ATOM     20  O   UNL     1      29.594  37.570   5.638  1.00  0.00    -0.391 OA
ATOM     21  H   UNL     1      30.392  37.014   5.475  1.00  0.00     0.211 HD
ENDBRANCH  12  20
BRANCH  13  22
ATOM     22  N   UNL     1      26.869  38.670   5.730  1.00  0.00    -0.348 N 
ATOM     23  C   UNL     1      27.343  40.005   5.721  1.00  0.00     0.217 C 
ATOM     24  H   UNL     1      26.047  38.461   5.066  1.00  0.00     0.163 HD
ATOM     25  C   UNL     1      26.792  41.075   4.882  1.00  0.00     0.114 C 
ATOM     26  O   UNL     1      28.331  40.249   6.537  1.00  0.00    -0.275 OA
ENDBRANCH  13  22
ENDBRANCH   7   8
BRANCH   7  27
ATOM     27  O   UNL     1      25.640  38.554   8.635  1.00  0.00    -0.388 OA
ATOM     28  H   UNL     1      25.950  39.416   8.248  1.00  0.00     0.211 HD
ENDBRANCH   7  27
ENDBRANCH   6   7
BRANCH   6  29
ATOM     29  O   UNL     1      22.866  37.538   7.391  1.00  0.00    -0.388 OA
ATOM     30  H   UNL     1      22.915  37.415   6.446  1.00  0.00     0.211 HD
ENDBRANCH   6  29
ENDBRANCH   5   6
ENDBRANCH   1   5
BRANCH   2  31
ATOM     31  O   UNL     1      25.939  35.361  11.989  1.00  0.00    -0.443 OA
BRANCH  31  32
ATOM     32  C   UNL     1      25.085  34.997  13.064  1.00  0.00     0.294 C 
BRANCH  32  33
ATOM     33  C   UNL     1      25.970  34.371  14.078  1.00  0.00     0.121 A 
ATOM     34  C   UNL     1      27.363  34.287  13.950  1.00  0.00     0.144 A 
ATOM     35  N   UNL     1      25.659  33.894  15.293  1.00  0.00    -0.131 NA
ATOM     36  N   UNL     1      27.798  33.768  15.113  1.00  0.00    -0.220 N 
ATOM     37  N   UNL     1      26.789  33.558  15.857  1.00  0.00    -0.062 NA
BRANCH  36  38
ATOM     38  C   UNL     1      29.166  33.640  15.452  1.00  0.00     0.070 A 
ATOM     39  C   UNL     1      29.881  34.714  15.819  1.00  0.00    -0.020 A 
ATOM     40  C   UNL     1      29.801  32.409  15.229  1.00  0.00     0.029 A 
ATOM     41  C   UNL     1      31.261  34.590  15.977  1.00  0.00     0.006 A 
ATOM     42  C   UNL     1      31.132  32.271  15.377  1.00  0.00     0.002 A 
ATOM     43  C   UNL     1      31.900  33.363  15.755  1.00  0.00     0.000 A 
BRANCH  39  44
ATOM     44  C   UNL     1      29.236  35.959  16.186  1.00  0.00     0.015 C 
ATOM     45  C   UNL     1      30.196  37.139  16.186  1.00  0.00     0.012 C 
ATOM     46  C   UNL     1      28.978  35.839  17.754  1.00  0.00     0.012 C 
ENDBRANCH  39  44
ENDBRANCH  36  38
ENDBRANCH  32  33
ENDBRANCH  31  32
ENDBRANCH   2  31
TORSDOF 16
BEGIN_RES LYS A 131
REMARK  4 active torsions:
REMARK  status: ('A' for Active; 'I' for Inactive)
REMARK    1  A    between atoms: CA   and  CB  
REMARK    2  A    between atoms: CB   and  CG  
REMARK    3  A    between atoms: CG   and  CD  
REMARK    4  A    between atoms: CD   and  CE  
ROOT
ATOM      1  CA  LYS A 131      29.867  25.555  16.977  1.00 20.52     0.186 C 
ENDROOT
BRANCH   1   2
ATOM      2  CB  LYS A 131      28.345  25.722  17.026  1.00 20.94     0.034 C 
BRANCH   2   3
ATOM      3  CG  LYS A 131      27.601  24.402  16.895  1.00 22.96     0.005 C 
BRANCH   3   4
ATOM      4  CD  LYS A 131      26.627  24.186  18.020  1.00 24.33     0.041 C 
BRANCH   4   5
ATOM      5  CE  LYS A 131      25.253  23.856  17.447  1.00 26.91     0.338 C 
ATOM      6  NZ  LYS A 131      24.996  22.398  17.523  1.00 27.40     0.618 N 
ENDBRANCH   4   5
ENDBRANCH   3   4
ENDBRANCH   2   3
ENDBRANCH   1   2
END_RES LYS A 131
BEGIN_RES LYS A 135
REMARK  4 active torsions:
REMARK  status: ('A' for Active; 'I' for Inactive)
REMARK    5  A    between atoms: CA   and  CB  
REMARK    6  A    between atoms: CB   and  CG  
REMARK    7  A    between atoms: CG   and  CD  
REMARK    8  A    between atoms: CD   and  CE  
ROOT
ATOM      7  CA  LYS A 135      33.193  34.663   9.290  1.00 25.02     0.186 C 
ENDROOT
BRANCH   7   8
ATOM      8  CB  LYS A 135      32.060  35.360  10.034  1.00 26.63     0.034 C 
BRANCH   8   9
ATOM      9  CG  LYS A 135      32.420  35.760  11.441  1.00 29.45     0.005 C 
BRANCH   9  10
ATOM     10  CD  LYS A 135      31.191  35.736  12.337  1.00 32.00     0.041 C 
BRANCH  10  11
ATOM     11  CE  LYS A 135      30.612  37.130  12.484  1.00 34.25     0.338 C 
ATOM     12  NZ  LYS A 135      29.137  37.080  12.681  1.00 35.99     0.618 N 
ENDBRANCH  10  11
ENDBRANCH   9  10
ENDBRANCH   8   9
ENDBRANCH   7   8
END_RES LYS A 135
