REMARK VINA RESULT:    -5.013      3.170      7.528
REMARK INTER + INTRA:         -15.757
REMARK INTER:                  -9.475
REMARK INTRA:                  -6.282
REMARK UNBOUND:                -5.909
REMARK SMILES CC(=O)N[C@@H]1[C@@H](O)C[C@](O)(C(=O)O)O[C@H]1C(O)[C@H](O)CNC(=O)OCc1cn(CCNC(=O)NCc2ccco2)nn1
REMARK SMILES IDX 24 1 22 2 21 3 23 5 20 6 18 7 16 8 15 9 9 10 8 11 14 12 6 13
REMARK SMILES IDX 5 14 10 15 11 17 12 18 13 19 7 21 4 23 2 24 1 26 3 27 17 28
REMARK SMILES IDX 19 30 25 32 26 33 27 34 42 35 28 36 41 37 29 38 30 39 31 40
REMARK SMILES IDX 32 41 33 43 34 44 35 46 36 47 37 48 40 49 38 50 39 51
REMARK H PARENT 21 4 10 16 13 20 7 22 4 25 17 29 19 31 31 42 34 45
REMARK Flexibility Score: inf
ROOT
ATOM      1  O   UNL     1      29.169  33.077  20.945  1.00  0.00    -0.443 OA
ENDROOT
BRANCH   1   2
ATOM      2  C   UNL     1      29.068  33.667  19.689  1.00  0.00     0.407 C 
ATOM      3  N   UNL     1      29.222  32.982  18.476  1.00  0.00    -0.319 N 
ATOM      4  H   UNL     1      29.424  31.972  18.477  1.00  0.00     0.167 HD
ATOM      5  O   UNL     1      28.822  34.901  19.650  1.00  0.00    -0.225 OA
BRANCH   3   6
ATOM      6  C   UNL     1      29.096  33.703  17.206  1.00  0.00     0.154 C 
BRANCH   6   7
ATOM      7  C   UNL     1      30.418  33.659  16.488  1.00  0.00     0.165 C 
BRANCH   7   8
ATOM      8  C   UNL     1      30.277  33.249  15.048  1.00  0.00     0.176 C 
BRANCH   8   9
ATOM      9  C   UNL     1      30.341  34.414  14.103  1.00  0.00     0.178 C 
ATOM     10  C   UNL     1      31.637  36.328  13.765  1.00  0.00     0.269 C 
ATOM     11  C   UNL     1      30.514  37.012  13.057  1.00  0.00     0.112 C 
ATOM     12  O   UNL     1      31.278  35.330  14.613  1.00  0.00    -0.332 OA
ATOM     13  C   UNL     1      29.280  36.221  12.895  1.00  0.00     0.145 C 
ATOM     14  C   UNL     1      29.062  35.210  14.006  1.00  0.00     0.142 C 
BRANCH  10  15
ATOM     15  O   UNL     1      32.240  37.331  14.569  1.00  0.00    -0.357 OA
ATOM     16  H   UNL     1      32.022  38.232  14.225  1.00  0.00     0.214 HD
ENDBRANCH  10  15
BRANCH  10  17
ATOM     17  C   UNL     1      32.692  35.844  12.841  1.00  0.00     0.364 C 
ATOM     18  O   UNL     1      32.932  36.428  11.747  1.00  0.00    -0.246 OA
BRANCH  17  19
ATOM     19  O   UNL     1      33.476  34.729  13.114  1.00  0.00    -0.477 OA
ATOM     20  H   UNL     1      34.091  34.354  12.400  1.00  0.00     0.296 HD
ENDBRANCH  17  19
ENDBRANCH  10  17
BRANCH  13  21
ATOM     21  O   UNL     1      28.166  37.082  12.816  1.00  0.00    -0.391 OA
ATOM     22  H   UNL     1      28.390  37.993  13.095  1.00  0.00     0.211 HD
ENDBRANCH  13  21
BRANCH  14  23
ATOM     23  N   UNL     1      27.878  34.456  13.777  1.00  0.00    -0.348 N 
ATOM     24  C   UNL     1      26.703  34.777  14.525  1.00  0.00     0.217 C 
ATOM     25  H   UNL     1      27.794  33.679  13.089  1.00  0.00     0.163 HD
ATOM     26  C   UNL     1      25.423  34.054  14.361  1.00  0.00     0.114 C 
ATOM     27  O   UNL     1      26.736  35.718  15.371  1.00  0.00    -0.275 OA
ENDBRANCH  14  23
ENDBRANCH   8   9
BRANCH   8  28
ATOM     28  O   UNL     1      31.087  32.187  14.691  1.00  0.00    -0.388 OA
ATOM     29  H   UNL     1      31.797  32.423  14.042  1.00  0.00     0.211 HD
ENDBRANCH   8  28
ENDBRANCH   7   8
BRANCH   7  30
ATOM     30  O   UNL     1      31.147  32.605  17.104  1.00  0.00    -0.388 OA
ATOM     31  H   UNL     1      31.730  32.255  16.362  1.00  0.00     0.211 HD
ENDBRANCH   7  30
ENDBRANCH   6   7
ENDBRANCH   3   6
ENDBRANCH   1   2
BRANCH   1  32
ATOM     32  C   UNL     1      30.423  32.756  21.509  1.00  0.00     0.294 C 
BRANCH  32  33
ATOM     33  C   UNL     1      30.739  31.352  21.164  1.00  0.00     0.120 A 
ATOM     34  C   UNL     1      30.752  30.277  22.011  1.00  0.00     0.138 A 
ATOM     35  N   UNL     1      31.069  30.890  19.948  1.00  0.00    -0.132 NA
ATOM     36  N   UNL     1      31.088  29.194  21.288  1.00  0.00    -0.250 N 
ATOM     37  N   UNL     1      31.280  29.571  20.034  1.00  0.00    -0.067 NA
BRANCH  36  38
ATOM     38  C   UNL     1      31.228  27.818  21.772  1.00  0.00     0.167 C 
BRANCH  38  39
ATOM     39  C   UNL     1      29.855  27.199  21.778  1.00  0.00     0.141 C 
BRANCH  39  40
ATOM     40  N   UNL     1      29.388  27.059  20.422  1.00  0.00    -0.336 N 
ATOM     41  C   UNL     1      28.219  27.673  19.913  1.00  0.00     0.315 C 
ATOM     42  H   UNL     1      29.936  26.464  19.738  1.00  0.00     0.165 HD
ATOM     43  O   UNL     1      27.534  28.397  20.697  1.00  0.00    -0.249 OA
ATOM     44  N   UNL     1      27.841  27.471  18.561  1.00  0.00    -0.331 N 
ATOM     45  H   UNL     1      28.383  26.884  17.900  1.00  0.00     0.165 HD
BRANCH  44  46
ATOM     46  C   UNL     1      26.640  28.115  18.077  1.00  0.00     0.193 C 
BRANCH  46  47
ATOM     47  C   UNL     1      27.029  29.179  17.127  1.00  0.00     0.122 A 
ATOM     48  C   UNL     1      26.182  30.204  16.721  1.00  0.00     0.047 A 
ATOM     49  O   UNL     1      28.175  29.327  16.539  1.00  0.00    -0.467 OA
ATOM     50  C   UNL     1      26.924  30.967  15.846  1.00  0.00     0.042 A 
ATOM     51  C   UNL     1      28.165  30.371  15.769  1.00  0.00     0.195 A 
ENDBRANCH  46  47
ENDBRANCH  44  46
ENDBRANCH  39  40
ENDBRANCH  38  39
ENDBRANCH  36  38
ENDBRANCH  32  33
ENDBRANCH   1  32
TORSDOF 19
BEGIN_RES LYS A 131
REMARK  4 active torsions:
REMARK  status: ('A' for Active; 'I' for Inactive)
REMARK    1  A    between atoms: CA   and  CB  
REMARK    2  A    between atoms: CB   and  CG  
REMARK    3  A    between atoms: CG   and  CD  
REMARK    4  A    between atoms: CD   and  CE  
ROOT
ATOM      1  CA  LYS A 131      29.867  25.555  16.977  1.00 20.52     0.186 C 
ENDROOT
BRANCH   1   2
ATOM      2  CB  LYS A 131      28.345  25.722  17.026  1.00 20.94     0.034 C 
BRANCH   2   3
ATOM      3  CG  LYS A 131      27.601  24.402  16.889  1.00 22.96     0.005 C 
BRANCH   3   4
ATOM      4  CD  LYS A 131      26.149  24.530  17.260  1.00 24.33     0.041 C 
BRANCH   4   5
ATOM      5  CE  LYS A 131      25.578  23.148  17.560  1.00 26.91     0.338 C 
ATOM      6  NZ  LYS A 131      24.156  23.073  17.148  1.00 27.40     0.618 N 
ENDBRANCH   4   5
ENDBRANCH   3   4
ENDBRANCH   2   3
ENDBRANCH   1   2
END_RES LYS A 131
BEGIN_RES LYS A 135
REMARK  4 active torsions:
REMARK  status: ('A' for Active; 'I' for Inactive)
REMARK    5  A    between atoms: CA   and  CB  
REMARK    6  A    between atoms: CB   and  CG  
REMARK    7  A    between atoms: CG   and  CD  
REMARK    8  A    between atoms: CD   and  CE  
ROOT
ATOM      7  CA  LYS A 135      33.193  34.663   9.290  1.00 25.02     0.186 C 
ENDROOT
BRANCH   7   8
ATOM      8  CB  LYS A 135      32.060  35.360  10.034  1.00 26.63     0.034 C 
BRANCH   8   9
ATOM      9  CG  LYS A 135      30.708  34.740   9.791  1.00 29.45     0.005 C 
BRANCH   9  10
ATOM     10  CD  LYS A 135      30.487  34.499   8.306  1.00 32.00     0.041 C 
BRANCH  10  11
ATOM     11  CE  LYS A 135      29.071  34.872   7.911  1.00 34.25     0.338 C 
ATOM     12  NZ  LYS A 135      28.972  36.318   7.571  1.00 35.99     0.618 N 
ENDBRANCH  10  11
ENDBRANCH   9  10
ENDBRANCH   8   9
ENDBRANCH   7   8
END_RES LYS A 135
