REMARK VINA RESULT:    -4.693      1.980      3.362
REMARK INTER + INTRA:         -15.200
REMARK INTER:                  -8.888
REMARK INTRA:                  -6.313
REMARK UNBOUND:                -6.804
REMARK SMILES CC(=O)N[C@@H]1[C@@H](O)C[C@](O)(C(=O)O)O[C@H]1C(O)[C@H](O)CNC(=O)OCc1cn(-c2ccccc2C(C)=O)nn1
REMARK SMILES IDX 21 1 22 2 23 3 20 5 18 6 16 7 15 8 9 9 8 10 14 11 6 12 5 13
REMARK SMILES IDX 10 14 11 16 12 17 13 18 7 20 4 22 2 23 1 25 3 26 17 27 19 29
REMARK SMILES IDX 24 31 25 32 26 33 27 34 39 35 28 36 38 37 29 38 34 39 30 40
REMARK SMILES IDX 33 41 31 42 32 43 35 44 37 45 36 46
REMARK H PARENT 21 4 10 15 13 19 7 21 4 24 17 28 19 30
REMARK Flexibility Score: inf
ROOT
ATOM      1  N   UNL     1      29.207  29.682  19.154  1.00  0.00    -0.319 N 
ATOM      2  C   UNL     1      27.893  29.854  19.712  1.00  0.00     0.407 C 
ATOM      3  O   UNL     1      27.604  30.949  20.252  1.00  0.00    -0.225 OA
ATOM      4  H   UNL     1      29.406  28.764  18.710  1.00  0.00     0.167 HD
ENDROOT
BRANCH   1   5
ATOM      5  C   UNL     1      30.163  30.747  19.235  1.00  0.00     0.154 C 
BRANCH   5   6
ATOM      6  C   UNL     1      30.366  31.556  17.996  1.00  0.00     0.165 C 
BRANCH   6   7
ATOM      7  C   UNL     1      29.506  32.781  17.909  1.00  0.00     0.176 C 
BRANCH   7   8
ATOM      8  C   UNL     1      29.960  33.794  16.890  1.00  0.00     0.178 C 
ATOM      9  C   UNL     1      29.661  34.513  14.717  1.00  0.00     0.269 C 
ATOM     10  C   UNL     1      31.132  34.398  14.367  1.00  0.00     0.112 C 
ATOM     11  O   UNL     1      29.344  33.644  15.697  1.00  0.00    -0.332 OA
ATOM     12  C   UNL     1      31.874  33.540  15.336  1.00  0.00     0.145 C 
ATOM     13  C   UNL     1      31.466  33.740  16.747  1.00  0.00     0.142 C 
BRANCH   9  14
ATOM     14  O   UNL     1      28.996  34.123  13.505  1.00  0.00    -0.357 OA
ATOM     15  H   UNL     1      28.970  34.920  12.890  1.00  0.00     0.214 HD
ENDBRANCH   9  14
BRANCH   9  16
ATOM     16  C   UNL     1      29.312  35.926  14.901  1.00  0.00     0.364 C 
ATOM     17  O   UNL     1      28.135  36.352  14.917  1.00  0.00    -0.246 OA
BRANCH  16  18
ATOM     18  O   UNL     1      30.302  36.897  15.076  1.00  0.00    -0.477 OA
ATOM     19  H   UNL     1      31.235  36.750  14.710  1.00  0.00     0.296 HD
ENDBRANCH  16  18
ENDBRANCH   9  16
BRANCH  12  20
ATOM     20  O   UNL     1      31.648  32.197  14.990  1.00  0.00    -0.391 OA
ATOM     21  H   UNL     1      32.294  31.582  15.414  1.00  0.00     0.211 HD
ENDBRANCH  12  20
BRANCH  13  22
ATOM     22  N   UNL     1      32.150  34.840  17.349  1.00  0.00    -0.348 N 
ATOM     23  C   UNL     1      32.454  34.898  18.737  1.00  0.00     0.217 C 
ATOM     24  H   UNL     1      32.448  35.639  16.759  1.00  0.00     0.163 HD
ATOM     25  C   UNL     1      33.168  36.067  19.314  1.00  0.00     0.114 C 
ATOM     26  O   UNL     1      32.131  33.966  19.518  1.00  0.00    -0.275 OA
ENDBRANCH  13  22
ENDBRANCH   7   8
BRANCH   7  27
ATOM     27  O   UNL     1      29.125  33.295  19.121  1.00  0.00    -0.388 OA
ATOM     28  H   UNL     1      29.691  34.106  19.288  1.00  0.00     0.211 HD
ENDBRANCH   7  27
ENDBRANCH   6   7
BRANCH   6  29
ATOM     29  O   UNL     1      29.910  30.702  16.909  1.00  0.00    -0.388 OA
ATOM     30  H   UNL     1      28.975  30.490  17.172  1.00  0.00     0.211 HD
ENDBRANCH   6  29
ENDBRANCH   5   6
ENDBRANCH   1   5
BRANCH   2  31
ATOM     31  O   UNL     1      26.934  28.870  19.685  1.00  0.00    -0.443 OA
BRANCH  31  32
ATOM     32  C   UNL     1      26.749  28.033  18.546  1.00  0.00     0.294 C 
BRANCH  32  33
ATOM     33  C   UNL     1      26.560  28.832  17.310  1.00  0.00     0.121 A 
ATOM     34  C   UNL     1      25.388  29.270  16.753  1.00  0.00     0.144 A 
ATOM     35  N   UNL     1      27.545  29.285  16.486  1.00  0.00    -0.131 NA
ATOM     36  N   UNL     1      25.697  29.971  15.612  1.00  0.00    -0.220 N 
ATOM     37  N   UNL     1      27.010  29.951  15.496  1.00  0.00    -0.062 NA
BRANCH  36  38
ATOM     38  C   UNL     1      24.810  30.571  14.683  1.00  0.00     0.077 A 
ATOM     39  C   UNL     1      24.720  31.898  14.440  1.00  0.00     0.043 A 
ATOM     40  C   UNL     1      23.996  29.651  13.986  1.00  0.00     0.029 A 
ATOM     41  C   UNL     1      23.806  32.348  13.483  1.00  0.00     0.014 A 
ATOM     42  C   UNL     1      23.103  30.107  13.048  1.00  0.00     0.002 A 
ATOM     43  C   UNL     1      23.025  31.454  12.814  1.00  0.00     0.001 A 
BRANCH  39  44
ATOM     44  C   UNL     1      25.509  32.904  15.116  1.00  0.00     0.161 C 
ATOM     45  O   UNL     1      26.303  33.609  14.370  1.00  0.00    -0.294 OA
ATOM     46  C   UNL     1      25.525  33.227  16.542  1.00  0.00     0.093 C 
ENDBRANCH  39  44
ENDBRANCH  36  38
ENDBRANCH  32  33
ENDBRANCH  31  32
ENDBRANCH   2  31
TORSDOF 16
BEGIN_RES LYS A 131
REMARK  4 active torsions:
REMARK  status: ('A' for Active; 'I' for Inactive)
REMARK    1  A    between atoms: CA   and  CB  
REMARK    2  A    between atoms: CB   and  CG  
REMARK    3  A    between atoms: CG   and  CD  
REMARK    4  A    between atoms: CD   and  CE  
ROOT
ATOM      1  CA  LYS A 131      29.867  25.555  16.977  1.00 20.52     0.186 C 
ENDROOT
BRANCH   1   2
ATOM      2  CB  LYS A 131      28.345  25.722  17.026  1.00 20.94     0.034 C 
BRANCH   2   3
ATOM      3  CG  LYS A 131      27.599  24.418  16.785  1.00 22.96     0.005 C 
BRANCH   3   4
ATOM      4  CD  LYS A 131      26.972  23.884  18.042  1.00 24.33     0.041 C 
BRANCH   4   5
ATOM      5  CE  LYS A 131      25.537  24.391  18.150  1.00 26.91     0.338 C 
ATOM      6  NZ  LYS A 131      24.908  24.458  16.810  1.00 27.40     0.618 N 
ENDBRANCH   4   5
ENDBRANCH   3   4
ENDBRANCH   2   3
ENDBRANCH   1   2
END_RES LYS A 131
BEGIN_RES LYS A 135
REMARK  4 active torsions:
REMARK  status: ('A' for Active; 'I' for Inactive)
REMARK    5  A    between atoms: CA   and  CB  
REMARK    6  A    between atoms: CB   and  CG  
REMARK    7  A    between atoms: CG   and  CD  
REMARK    8  A    between atoms: CD   and  CE  
ROOT
ATOM      7  CA  LYS A 135      33.193  34.663   9.290  1.00 25.02     0.186 C 
ENDROOT
BRANCH   7   8
ATOM      8  CB  LYS A 135      32.060  35.360  10.034  1.00 26.63     0.034 C 
BRANCH   8   9
ATOM      9  CG  LYS A 135      30.772  35.418   9.253  1.00 29.45     0.005 C 
BRANCH   9  10
ATOM     10  CD  LYS A 135      29.589  35.073  10.144  1.00 32.00     0.041 C 
BRANCH  10  11
ATOM     11  CE  LYS A 135      28.699  34.045   9.472  1.00 34.25     0.338 C 
ATOM     12  NZ  LYS A 135      27.371  33.966  10.141  1.00 35.99     0.618 N 
ENDBRANCH  10  11
ENDBRANCH   9  10
ENDBRANCH   8   9
ENDBRANCH   7   8
END_RES LYS A 135
