REMARK VINA RESULT:    -5.157      6.308     13.481
REMARK INTER + INTRA:         -16.645
REMARK INTER:                  -8.832
REMARK INTRA:                  -7.813
REMARK UNBOUND:                -5.759
REMARK SMILES CC(=O)N[C@@H]1[C@@H](O)C[C@](O)(C(=O)O)O[C@H]1C(O)[C@H](O)CNC(=O)OCc1cn(CC(=O)NCC(O)Cn2ccnc2[N+](=O)[O-])nn1
REMARK SMILES IDX 25 1 24 2 22 3 21 4 23 6 20 7 18 8 16 9 15 10 9 11 8 12
REMARK SMILES IDX 14 13 6 14 5 15 10 16 11 18 12 19 13 20 7 22 4 24 2 25 1 27
REMARK SMILES IDX 3 28 17 29 19 31 26 33 27 34 46 35 28 36 45 37 29 38 30 39
REMARK SMILES IDX 31 40 32 41 33 43 34 44 35 45 36 47 37 48 38 49 41 50 39 51
REMARK SMILES IDX 40 52 42 53 43 54 44 55
REMARK H PARENT 21 5 10 17 13 21 7 23 4 26 17 30 19 32 32 42 35 46
REMARK Flexibility Score: inf
ROOT
ATOM      1  C   UNL     1      31.525  31.614  21.507  1.00  0.00     0.294 C 
ENDROOT
BRANCH   1   2
ATOM      2  O   UNL     1      32.608  30.709  21.421  1.00  0.00    -0.443 OA
BRANCH   2   3
ATOM      3  C   UNL     1      32.463  29.370  21.737  1.00  0.00     0.407 C 
ATOM      4  N   UNL     1      31.913  28.437  20.792  1.00  0.00    -0.319 N 
ATOM      5  H   UNL     1      31.629  28.830  19.873  1.00  0.00     0.167 HD
ATOM      6  O   UNL     1      32.819  28.985  22.864  1.00  0.00    -0.225 OA
BRANCH   4   7
ATOM      7  C   UNL     1      31.752  27.050  21.065  1.00  0.00     0.154 C 
BRANCH   7   8
ATOM      8  C   UNL     1      30.352  26.630  21.346  1.00  0.00     0.165 C 
BRANCH   8   9
ATOM      9  C   UNL     1      29.400  27.644  20.732  1.00  0.00     0.176 C 
BRANCH   9  10
ATOM     10  C   UNL     1      28.142  27.022  20.218  1.00  0.00     0.178 C 
ATOM     11  C   UNL     1      27.036  28.500  18.797  1.00  0.00     0.269 C 
ATOM     12  C   UNL     1      25.638  28.185  19.309  1.00  0.00     0.112 C 
ATOM     13  O   UNL     1      27.883  27.436  18.937  1.00  0.00    -0.332 OA
ATOM     14  C   UNL     1      25.702  27.013  20.278  1.00  0.00     0.145 C 
ATOM     15  C   UNL     1      26.967  27.232  21.116  1.00  0.00     0.142 C 
BRANCH  11  16
ATOM     16  O   UNL     1      27.491  29.562  19.557  1.00  0.00    -0.357 OA
ATOM     17  H   UNL     1      27.736  30.329  18.978  1.00  0.00     0.214 HD
ENDBRANCH  11  16
BRANCH  11  18
ATOM     18  C   UNL     1      27.008  28.931  17.376  1.00  0.00     0.364 C 
ATOM     19  O   UNL     1      25.926  29.020  16.728  1.00  0.00    -0.246 OA
BRANCH  18  20
ATOM     20  O   UNL     1      28.174  29.254  16.703  1.00  0.00    -0.477 OA
ATOM     21  H   UNL     1      28.339  29.123  15.722  1.00  0.00     0.296 HD
ENDBRANCH  18  20
ENDBRANCH  11  18
BRANCH  14  22
ATOM     22  O   UNL     1      24.566  27.059  21.067  1.00  0.00    -0.391 OA
ATOM     23  H   UNL     1      23.831  26.501  20.727  1.00  0.00     0.211 HD
ENDBRANCH  14  22
BRANCH  15  24
ATOM     24  N   UNL     1      26.972  26.303  22.238  1.00  0.00    -0.348 N 
ATOM     25  C   UNL     1      26.579  26.754  23.513  1.00  0.00     0.217 C 
ATOM     26  H   UNL     1      27.265  25.334  22.091  1.00  0.00     0.163 HD
ATOM     27  C   UNL     1      26.569  25.825  24.703  1.00  0.00     0.114 C 
ATOM     28  O   UNL     1      26.219  27.932  23.750  1.00  0.00    -0.275 OA
ENDBRANCH  15  24
ENDBRANCH   9  10
BRANCH   9  29
ATOM     29  O   UNL     1      29.085  28.647  21.635  1.00  0.00    -0.388 OA
ATOM     30  H   UNL     1      29.845  29.207  21.876  1.00  0.00     0.211 HD
ENDBRANCH   9  29
ENDBRANCH   8   9
BRANCH   8  31
ATOM     31  O   UNL     1      30.050  26.482  22.690  1.00  0.00    -0.388 OA
ATOM     32  H   UNL     1      30.784  26.795  23.284  1.00  0.00     0.211 HD
ENDBRANCH   8  31
ENDBRANCH   7   8
ENDBRANCH   4   7
ENDBRANCH   2   3
ENDBRANCH   1   2
BRANCH   1  33
ATOM     33  C   UNL     1      30.847  31.554  20.190  1.00  0.00     0.120 A 
ATOM     34  C   UNL     1      30.568  32.657  19.413  1.00  0.00     0.138 A 
ATOM     35  N   UNL     1      30.369  30.518  19.485  1.00  0.00    -0.132 NA
ATOM     36  N   UNL     1      29.933  32.271  18.263  1.00  0.00    -0.243 N 
ATOM     37  N   UNL     1      29.828  30.967  18.337  1.00  0.00    -0.067 NA
BRANCH  36  38
ATOM     38  C   UNL     1      29.513  33.226  17.262  1.00  0.00     0.245 C 
BRANCH  38  39
ATOM     39  C   UNL     1      30.785  33.767  16.635  1.00  0.00     0.241 C 
ATOM     40  O   UNL     1      31.585  32.989  16.073  1.00  0.00    -0.273 OA
ATOM     41  N   UNL     1      31.107  35.126  16.659  1.00  0.00    -0.352 N 
ATOM     42  H   UNL     1      30.344  35.731  17.149  1.00  0.00     0.163 HD
BRANCH  41  43
ATOM     43  C   UNL     1      32.245  35.807  16.161  1.00  0.00     0.151 C 
BRANCH  43  44
ATOM     44  C   UNL     1      32.105  36.835  15.132  1.00  0.00     0.168 C 
BRANCH  44  45
ATOM     45  O   UNL     1      32.617  38.098  15.536  1.00  0.00    -0.388 OA
ATOM     46  H   UNL     1      32.292  38.793  14.915  1.00  0.00     0.211 HD
ENDBRANCH  44  45
BRANCH  44  47
ATOM     47  C   UNL     1      32.290  36.538  13.702  1.00  0.00     0.239 C 
BRANCH  47  48
ATOM     48  N   UNL     1      31.200  37.001  12.866  1.00  0.00    -0.227 N 
ATOM     49  C   UNL     1      31.270  38.012  11.964  1.00  0.00     0.204 A 
ATOM     50  C   UNL     1      29.944  36.517  12.865  1.00  0.00     0.434 A 
ATOM     51  C   UNL     1      30.009  38.132  11.408  1.00  0.00     0.245 A 
ATOM     52  N   UNL     1      29.204  37.222  11.958  1.00  0.00    -0.074 NA
BRANCH  50  53
ATOM     53  N   UNL     1      29.393  35.461  13.632  1.00  0.00    -0.047 N 
ATOM     54  O   UNL     1      29.642  34.275  13.263  1.00  0.00    -0.390 OA
ATOM     55  O   UNL     1      28.614  35.590  14.732  1.00  0.00    -0.390 OA
ENDBRANCH  50  53
ENDBRANCH  47  48
ENDBRANCH  44  47
ENDBRANCH  43  44
ENDBRANCH  41  43
ENDBRANCH  38  39
ENDBRANCH  36  38
ENDBRANCH   1  33
TORSDOF 22
BEGIN_RES LYS A 131
REMARK  4 active torsions:
REMARK  status: ('A' for Active; 'I' for Inactive)
REMARK    1  A    between atoms: CA   and  CB  
REMARK    2  A    between atoms: CB   and  CG  
REMARK    3  A    between atoms: CG   and  CD  
REMARK    4  A    between atoms: CD   and  CE  
ROOT
ATOM      1  CA  LYS A 131      29.867  25.555  16.977  1.00 20.52     0.186 C 
ENDROOT
BRANCH   1   2
ATOM      2  CB  LYS A 131      28.345  25.722  17.026  1.00 20.94     0.034 C 
BRANCH   2   3
ATOM      3  CG  LYS A 131      27.601  24.404  16.879  1.00 22.96     0.005 C 
BRANCH   3   4
ATOM      4  CD  LYS A 131      26.145  24.533  17.230  1.00 24.33     0.041 C 
BRANCH   4   5
ATOM      5  CE  LYS A 131      25.565  23.151  17.513  1.00 26.91     0.338 C 
ATOM      6  NZ  LYS A 131      24.123  23.114  17.172  1.00 27.40     0.618 N 
ENDBRANCH   4   5
ENDBRANCH   3   4
ENDBRANCH   2   3
ENDBRANCH   1   2
END_RES LYS A 131
BEGIN_RES LYS A 135
REMARK  4 active torsions:
REMARK  status: ('A' for Active; 'I' for Inactive)
REMARK    5  A    between atoms: CA   and  CB  
REMARK    6  A    between atoms: CB   and  CG  
REMARK    7  A    between atoms: CG   and  CD  
REMARK    8  A    between atoms: CD   and  CE  
ROOT
ATOM      7  CA  LYS A 135      33.193  34.663   9.290  1.00 25.02     0.186 C 
ENDROOT
BRANCH   7   8
ATOM      8  CB  LYS A 135      32.060  35.360  10.034  1.00 26.63     0.034 C 
BRANCH   8   9
ATOM      9  CG  LYS A 135      30.709  34.735   9.797  1.00 29.45     0.005 C 
BRANCH   9  10
ATOM     10  CD  LYS A 135      30.466  34.532   8.310  1.00 32.00     0.041 C 
BRANCH  10  11
ATOM     11  CE  LYS A 135      29.021  34.834   7.960  1.00 34.25     0.338 C 
ATOM     12  NZ  LYS A 135      28.922  35.544   6.655  1.00 35.99     0.618 N 
ENDBRANCH  10  11
ENDBRANCH   9  10
ENDBRANCH   8   9
ENDBRANCH   7   8
END_RES LYS A 135
