REMARK VINA RESULT:    -4.912      4.591      8.702
REMARK INTER + INTRA:         -14.288
REMARK INTER:                  -8.410
REMARK INTRA:                  -5.878
REMARK UNBOUND:                -5.212
REMARK SMILES CC(=O)N[C@@H]1[C@@H](O)C[C@](O)(C(=O)O)O[C@H]1C(O)[C@H](O)CNC(=O)OCc1cn(Cc2cccc(C#N)c2)nn1
REMARK SMILES IDX 21 1 22 2 23 3 20 5 18 6 16 7 15 8 9 9 8 10 14 11 6 12 5 13
REMARK SMILES IDX 10 14 11 16 12 17 13 18 7 20 4 22 2 23 1 25 3 26 17 27 19 29
REMARK SMILES IDX 24 31 25 32 26 33 27 34 39 35 28 36 38 37 29 38 30 39 31 40
REMARK SMILES IDX 37 41 32 42 34 43 33 44 35 45 36 46
REMARK H PARENT 21 4 10 15 13 19 7 21 4 24 17 28 19 30
REMARK Flexibility Score: inf
ROOT
ATOM      1  N   UNL     1      25.148  29.027  19.529  1.00  0.00    -0.319 N 
ATOM      2  C   UNL     1      25.108  28.843  18.143  1.00  0.00     0.407 C 
ATOM      3  O   UNL     1      25.186  27.701  17.647  1.00  0.00    -0.225 OA
ATOM      4  H   UNL     1      25.071  30.030  19.877  1.00  0.00     0.167 HD
ENDROOT
BRANCH   1   5
ATOM      5  C   UNL     1      25.282  27.953  20.478  1.00  0.00     0.154 C 
BRANCH   5   6
ATOM      6  C   UNL     1      26.714  27.602  20.770  1.00  0.00     0.165 C 
BRANCH   6   7
ATOM      7  C   UNL     1      27.659  28.738  20.824  1.00  0.00     0.176 C 
BRANCH   7   8
ATOM      8  C   UNL     1      29.017  28.425  21.472  1.00  0.00     0.178 C 
ATOM      9  C   UNL     1      31.102  27.658  20.966  1.00  0.00     0.269 C 
ATOM     10  C   UNL     1      30.908  26.435  21.840  1.00  0.00     0.112 C 
ATOM     11  O   UNL     1      29.866  28.041  20.513  1.00  0.00    -0.332 OA
ATOM     12  C   UNL     1      30.053  26.751  23.037  1.00  0.00     0.145 C 
ATOM     13  C   UNL     1      28.867  27.606  22.697  1.00  0.00     0.142 C 
BRANCH   9  14
ATOM     14  O   UNL     1      31.902  27.269  19.862  1.00  0.00    -0.357 OA
ATOM     15  H   UNL     1      31.241  26.951  19.183  1.00  0.00     0.214 HD
ENDBRANCH   9  14
BRANCH   9  16
ATOM     16  C   UNL     1      31.873  28.666  21.700  1.00  0.00     0.364 C 
ATOM     17  O   UNL     1      32.719  28.355  22.569  1.00  0.00    -0.246 OA
BRANCH  16  18
ATOM     18  O   UNL     1      31.726  30.053  21.493  1.00  0.00    -0.477 OA
ATOM     19  H   UNL     1      32.536  30.511  21.067  1.00  0.00     0.296 HD
ENDBRANCH  16  18
ENDBRANCH   9  16
BRANCH  12  20
ATOM     20  O   UNL     1      29.634  25.539  23.587  1.00  0.00    -0.391 OA
ATOM     21  H   UNL     1      28.854  25.641  24.172  1.00  0.00     0.211 HD
ENDBRANCH  12  20
BRANCH  13  22
ATOM     22  N   UNL     1      28.546  28.435  23.842  1.00  0.00    -0.348 N 
ATOM     23  C   UNL     1      27.348  28.246  24.623  1.00  0.00     0.217 C 
ATOM     24  H   UNL     1      29.148  29.225  24.186  1.00  0.00     0.163 HD
ATOM     25  C   UNL     1      27.059  29.129  25.797  1.00  0.00     0.114 C 
ATOM     26  O   UNL     1      26.543  27.342  24.324  1.00  0.00    -0.275 OA
ENDBRANCH  13  22
ENDBRANCH   7   8
BRANCH   7  27
ATOM     27  O   UNL     1      27.150  29.848  21.501  1.00  0.00    -0.388 OA
ATOM     28  H   UNL     1      27.287  30.695  21.010  1.00  0.00     0.211 HD
ENDBRANCH   7  27
ENDBRANCH   6   7
BRANCH   6  29
ATOM     29  O   UNL     1      27.079  26.553  19.928  1.00  0.00    -0.388 OA
ATOM     30  H   UNL     1      27.075  26.894  19.000  1.00  0.00     0.211 HD
ENDBRANCH   6  29
ENDBRANCH   5   6
ENDBRANCH   1   5
BRANCH   2  31
ATOM     31  O   UNL     1      24.985  29.904  17.245  1.00  0.00    -0.443 OA
BRANCH  31  32
ATOM     32  C   UNL     1      25.123  31.215  17.731  1.00  0.00     0.294 C 
BRANCH  32  33
ATOM     33  C   UNL     1      26.486  31.383  18.274  1.00  0.00     0.120 A 
ATOM     34  C   UNL     1      27.675  30.934  17.744  1.00  0.00     0.138 A 
ATOM     35  N   UNL     1      26.807  32.025  19.412  1.00  0.00    -0.132 NA
ATOM     36  N   UNL     1      28.673  31.312  18.565  1.00  0.00    -0.248 N 
ATOM     37  N   UNL     1      28.100  31.972  19.564  1.00  0.00    -0.067 NA
BRANCH  36  38
ATOM     38  C   UNL     1      30.093  31.107  18.466  1.00  0.00     0.181 C 
BRANCH  38  39
ATOM     39  C   UNL     1      30.698  32.052  17.469  1.00  0.00    -0.025 A 
ATOM     40  C   UNL     1      30.766  31.695  16.141  1.00  0.00     0.006 A 
ATOM     41  C   UNL     1      31.185  33.276  17.841  1.00  0.00     0.025 A 
ATOM     42  C   UNL     1      31.322  32.575  15.205  1.00  0.00     0.002 A 
ATOM     43  C   UNL     1      31.739  34.168  16.946  1.00  0.00     0.052 A 
ATOM     44  C   UNL     1      31.806  33.812  15.619  1.00  0.00     0.019 A 
BRANCH  43  45
ATOM     45  C   UNL     1      32.254  35.455  17.311  1.00  0.00     0.099 C 
ATOM     46  N   UNL     1      32.668  36.500  17.626  1.00  0.00    -0.192 NA
ENDBRANCH  43  45
ENDBRANCH  38  39
ENDBRANCH  36  38
ENDBRANCH  32  33
ENDBRANCH  31  32
ENDBRANCH   2  31
TORSDOF 17
BEGIN_RES LYS A 131
REMARK  4 active torsions:
REMARK  status: ('A' for Active; 'I' for Inactive)
REMARK    1  A    between atoms: CA   and  CB  
REMARK    2  A    between atoms: CB   and  CG  
REMARK    3  A    between atoms: CG   and  CD  
REMARK    4  A    between atoms: CD   and  CE  
ROOT
ATOM      1  CA  LYS A 131      29.867  25.555  16.977  1.00 20.52     0.186 C 
ENDROOT
BRANCH   1   2
ATOM      2  CB  LYS A 131      28.345  25.722  17.026  1.00 20.94     0.034 C 
BRANCH   2   3
ATOM      3  CG  LYS A 131      27.602  24.400  16.910  1.00 22.96     0.005 C 
BRANCH   3   4
ATOM      4  CD  LYS A 131      26.153  24.529  17.294  1.00 24.33     0.041 C 
BRANCH   4   5
ATOM      5  CE  LYS A 131      25.796  23.444  18.304  1.00 26.91     0.338 C 
ATOM      6  NZ  LYS A 131      24.998  22.376  17.658  1.00 27.40     0.618 N 
ENDBRANCH   4   5
ENDBRANCH   3   4
ENDBRANCH   2   3
ENDBRANCH   1   2
END_RES LYS A 131
BEGIN_RES LYS A 135
REMARK  4 active torsions:
REMARK  status: ('A' for Active; 'I' for Inactive)
REMARK    5  A    between atoms: CA   and  CB  
REMARK    6  A    between atoms: CB   and  CG  
REMARK    7  A    between atoms: CG   and  CD  
REMARK    8  A    between atoms: CD   and  CE  
ROOT
ATOM      7  CA  LYS A 135      33.193  34.663   9.290  1.00 25.02     0.186 C 
ENDROOT
BRANCH   7   8
ATOM      8  CB  LYS A 135      32.060  35.360  10.034  1.00 26.63     0.034 C 
BRANCH   8   9
ATOM      9  CG  LYS A 135      30.759  35.374   9.274  1.00 29.45     0.005 C 
BRANCH   9  10
ATOM     10  CD  LYS A 135      29.901  34.178   9.657  1.00 32.00     0.041 C 
BRANCH  10  11
ATOM     11  CE  LYS A 135      28.611  34.171   8.859  1.00 34.25     0.338 C 
ATOM     12  NZ  LYS A 135      28.713  35.056   7.666  1.00 35.99     0.618 N 
ENDBRANCH  10  11
ENDBRANCH   9  10
ENDBRANCH   8   9
ENDBRANCH   7   8
END_RES LYS A 135
