REMARK VINA RESULT:    -3.102      3.581      6.238
REMARK INTER + INTRA:         -13.212
REMARK INTER:                  -6.224
REMARK INTRA:                  -6.988
REMARK UNBOUND:                -7.572
REMARK SMILES CC(=O)N[C@@H]1[C@@H](O)C[C@](O)(C(=O)O)O[C@H]1C(O)[C@H](O)CNC(=O)OCc1cn(CCO)nn1
REMARK SMILES IDX 21 1 22 2 23 3 20 5 18 6 16 7 15 8 9 9 8 10 14 11 6 12 5 13
REMARK SMILES IDX 10 14 11 16 12 17 13 18 7 20 4 22 2 23 1 25 3 26 17 27 19 29
REMARK SMILES IDX 24 31 25 32 26 33 27 34 33 35 28 36 32 37 29 38 30 39 31 40
REMARK H PARENT 21 4 10 15 13 19 7 21 4 24 17 28 19 30 31 41
REMARK Flexibility Score: inf
ROOT
ATOM      1  N   UNL     1      25.783  39.056  11.222  1.00  0.00    -0.319 N 
ATOM      2  C   UNL     1      26.153  37.722  11.422  1.00  0.00     0.407 C 
ATOM      3  O   UNL     1      25.575  37.042  12.266  1.00  0.00    -0.225 OA
ATOM      4  H   UNL     1      26.350  39.566  10.463  1.00  0.00     0.167 HD
ENDROOT
BRANCH   1   5
ATOM      5  C   UNL     1      24.787  39.825  11.861  1.00  0.00     0.154 C 
BRANCH   5   6
ATOM      6  C   UNL     1      23.515  40.078  11.115  1.00  0.00     0.165 C 
BRANCH   6   7
ATOM      7  C   UNL     1      22.593  38.897  11.141  1.00  0.00     0.176 C 
BRANCH   7   8
ATOM      8  C   UNL     1      22.786  37.818  10.163  1.00  0.00     0.178 C 
ATOM      9  C   UNL     1      23.705  37.194   8.143  1.00  0.00     0.269 C 
ATOM     10  C   UNL     1      23.559  35.812   8.746  1.00  0.00     0.112 C 
ATOM     11  O   UNL     1      23.495  38.223   9.060  1.00  0.00    -0.332 OA
ATOM     12  C   UNL     1      22.159  35.630   9.317  1.00  0.00     0.145 C 
ATOM     13  C   UNL     1      21.609  37.006   9.744  1.00  0.00     0.142 C 
BRANCH   9  14
ATOM     14  O   UNL     1      22.780  37.381   7.120  1.00  0.00    -0.357 OA
ATOM     15  H   UNL     1      22.985  38.161   6.557  1.00  0.00     0.214 HD
ENDBRANCH   9  14
BRANCH   9  16
ATOM     16  C   UNL     1      25.066  37.397   7.599  1.00  0.00     0.364 C 
ATOM     17  O   UNL     1      25.956  36.510   7.635  1.00  0.00    -0.246 OA
BRANCH  16  18
ATOM     18  O   UNL     1      25.385  38.614   7.023  1.00  0.00    -0.477 OA
ATOM     19  H   UNL     1      26.130  38.661   6.312  1.00  0.00     0.296 HD
ENDBRANCH  16  18
ENDBRANCH   9  16
BRANCH  12  20
ATOM     20  O   UNL     1      21.345  35.056   8.351  1.00  0.00    -0.391 OA
ATOM     21  H   UNL     1      21.768  34.196   8.092  1.00  0.00     0.211 HD
ENDBRANCH  12  20
BRANCH  13  22
ATOM     22  N   UNL     1      20.619  36.801  10.782  1.00  0.00    -0.348 N 
ATOM     23  C   UNL     1      19.253  37.027  10.475  1.00  0.00     0.217 C 
ATOM     24  H   UNL     1      20.885  36.492  11.749  1.00  0.00     0.163 HD
ATOM     25  C   UNL     1      18.169  36.845  11.477  1.00  0.00     0.114 C 
ATOM     26  O   UNL     1      18.935  37.396   9.321  1.00  0.00    -0.275 OA
ENDBRANCH  13  22
ENDBRANCH   7   8
BRANCH   7  27
ATOM     27  O   UNL     1      22.762  38.377  12.479  1.00  0.00    -0.388 OA
ATOM     28  H   UNL     1      22.765  39.128  13.097  1.00  0.00     0.211 HD
ENDBRANCH   7  27
ENDBRANCH   6   7
BRANCH   6  29
ATOM     29  O   UNL     1      23.743  40.566   9.872  1.00  0.00    -0.388 OA
ATOM     30  H   UNL     1      22.958  40.683   9.301  1.00  0.00     0.211 HD
ENDBRANCH   6  29
ENDBRANCH   5   6
ENDBRANCH   1   5
BRANCH   2  31
ATOM     31  O   UNL     1      27.173  37.128  10.683  1.00  0.00    -0.443 OA
BRANCH  31  32
ATOM     32  C   UNL     1      28.409  37.775  10.466  1.00  0.00     0.294 C 
BRANCH  32  33
ATOM     33  C   UNL     1      28.417  38.389   9.117  1.00  0.00     0.120 A 
ATOM     34  C   UNL     1      29.087  37.947   8.003  1.00  0.00     0.138 A 
ATOM     35  N   UNL     1      27.765  39.486   8.758  1.00  0.00    -0.132 NA
ATOM     36  N   UNL     1      28.792  38.820   7.023  1.00  0.00    -0.250 N 
ATOM     37  N   UNL     1      27.986  39.765   7.476  1.00  0.00    -0.067 NA
BRANCH  36  38
ATOM     38  C   UNL     1      29.299  38.724   5.668  1.00  0.00     0.174 C 
BRANCH  38  39
ATOM     39  C   UNL     1      28.113  38.649   4.710  1.00  0.00     0.179 C 
BRANCH  39  40
ATOM     40  O   UNL     1      27.334  37.524   5.048  1.00  0.00    -0.394 OA
ATOM     41  H   UNL     1      27.345  36.864   4.290  1.00  0.00     0.210 HD
ENDBRANCH  39  40
ENDBRANCH  38  39
ENDBRANCH  36  38
ENDBRANCH  32  33
ENDBRANCH  31  32
ENDBRANCH   2  31
TORSDOF 17
BEGIN_RES LYS A 131
REMARK  4 active torsions:
REMARK  status: ('A' for Active; 'I' for Inactive)
REMARK    1  A    between atoms: CA   and  CB  
REMARK    2  A    between atoms: CB   and  CG  
REMARK    3  A    between atoms: CG   and  CD  
REMARK    4  A    between atoms: CD   and  CE  
ROOT
ATOM      1  CA  LYS A 131      29.867  25.555  16.977  1.00 20.52     0.186 C 
ENDROOT
BRANCH   1   2
ATOM      2  CB  LYS A 131      28.345  25.722  17.026  1.00 20.94     0.034 C 
BRANCH   2   3
ATOM      3  CG  LYS A 131      27.603  24.394  16.990  1.00 22.96     0.005 C 
BRANCH   3   4
ATOM      4  CD  LYS A 131      26.328  24.436  17.785  1.00 24.33     0.041 C 
BRANCH   4   5
ATOM      5  CE  LYS A 131      25.502  23.189  17.489  1.00 26.91     0.338 C 
ATOM      6  NZ  LYS A 131      24.103  23.558  17.166  1.00 27.40     0.618 N 
ENDBRANCH   4   5
ENDBRANCH   3   4
ENDBRANCH   2   3
ENDBRANCH   1   2
END_RES LYS A 131
BEGIN_RES LYS A 135
REMARK  4 active torsions:
REMARK  status: ('A' for Active; 'I' for Inactive)
REMARK    5  A    between atoms: CA   and  CB  
REMARK    6  A    between atoms: CB   and  CG  
REMARK    7  A    between atoms: CG   and  CD  
REMARK    8  A    between atoms: CD   and  CE  
ROOT
ATOM      7  CA  LYS A 135      33.193  34.663   9.290  1.00 25.02     0.186 C 
ENDROOT
BRANCH   7   8
ATOM      8  CB  LYS A 135      32.060  35.360  10.034  1.00 26.63     0.034 C 
BRANCH   8   9
ATOM      9  CG  LYS A 135      30.740  34.640   9.933  1.00 29.45     0.005 C 
BRANCH   9  10
ATOM     10  CD  LYS A 135      30.331  34.470   8.478  1.00 32.00     0.041 C 
BRANCH  10  11
ATOM     11  CE  LYS A 135      28.821  34.448   8.348  1.00 34.25     0.338 C 
ATOM     12  NZ  LYS A 135      28.189  33.818   9.541  1.00 35.99     0.618 N 
ENDBRANCH  10  11
ENDBRANCH   9  10
ENDBRANCH   8   9
ENDBRANCH   7   8
END_RES LYS A 135
