REMARK VINA RESULT:    -4.915      6.551     13.074
REMARK INTER + INTRA:         -15.041
REMARK INTER:                  -9.538
REMARK INTRA:                  -5.502
REMARK UNBOUND:                -5.671
REMARK SMILES CCOC(=O)c1cccc(-n2cc(COC(=O)NC[C@@H](O)C(O)[C@@H]3O[C@@](O)(C(=O)O)C[C@H](O)[C@H]3NC(C)=O)nn2)c1
REMARK SMILES IDX 18 1 16 2 17 3 19 5 20 6 22 7 24 8 26 9 31 10 25 11 32 12
REMARK SMILES IDX 34 13 27 14 28 16 29 17 30 18 33 20 35 22 36 23 37 25 38 26
REMARK SMILES IDX 23 27 21 29 15 31 14 32 13 33 12 34 39 35 11 36 40 37 10 38
REMARK SMILES IDX 41 39 9 40 6 41 8 42 7 43 4 44 5 45 3 46 2 47 1 48
REMARK H PARENT 18 4 27 15 30 19 33 21 35 24 23 28 21 30
REMARK Flexibility Score: inf
ROOT
ATOM      1  N   UNL     1      26.784  41.059   7.560  1.00  0.00    -0.319 N 
ATOM      2  C   UNL     1      27.392  41.396   6.321  1.00  0.00     0.407 C 
ATOM      3  O   UNL     1      26.685  41.940   5.436  1.00  0.00    -0.225 OA
ATOM      4  H   UNL     1      27.387  40.610   8.278  1.00  0.00     0.167 HD
ENDROOT
BRANCH   1   5
ATOM      5  C   UNL     1      25.383  41.326   7.814  1.00  0.00     0.154 C 
BRANCH   5   6
ATOM      6  C   UNL     1      24.497  40.181   7.453  1.00  0.00     0.165 C 
BRANCH   6   7
ATOM      7  C   UNL     1      24.956  38.869   8.003  1.00  0.00     0.176 C 
BRANCH   7   8
ATOM      8  C   UNL     1      23.768  38.107   8.646  1.00  0.00     0.178 C 
ATOM      9  C   UNL     1      21.944  36.874   8.126  1.00  0.00     0.269 C 
ATOM     10  C   UNL     1      20.972  37.876   8.707  1.00  0.00     0.112 C 
ATOM     11  O   UNL     1      23.031  37.532   7.645  1.00  0.00    -0.332 OA
ATOM     12  C   UNL     1      21.585  38.718   9.784  1.00  0.00     0.145 C 
ATOM     13  C   UNL     1      23.040  39.017   9.564  1.00  0.00     0.142 C 
BRANCH   9  14
ATOM     14  O   UNL     1      21.270  36.327   6.998  1.00  0.00    -0.357 OA
ATOM     15  H   UNL     1      21.795  35.635   6.558  1.00  0.00     0.214 HD
ENDBRANCH   9  14
BRANCH   9  16
ATOM     16  C   UNL     1      22.196  35.776   9.070  1.00  0.00     0.364 C 
ATOM     17  O   UNL     1      21.413  35.491  10.038  1.00  0.00    -0.246 OA
BRANCH  16  18
ATOM     18  O   UNL     1      23.361  35.004   8.894  1.00  0.00    -0.477 OA
ATOM     19  H   UNL     1      23.622  34.371   9.661  1.00  0.00     0.296 HD
ENDBRANCH  16  18
ENDBRANCH   9  16
BRANCH  12  20
ATOM     20  O   UNL     1      20.836  39.885   9.920  1.00  0.00    -0.391 OA
ATOM     21  H   UNL     1      20.392  39.953  10.803  1.00  0.00     0.211 HD
ENDBRANCH  12  20
BRANCH  13  22
ATOM     22  N   UNL     1      23.761  39.118  10.821  1.00  0.00    -0.348 N 
ATOM     23  C   UNL     1      23.939  40.359  11.487  1.00  0.00     0.217 C 
ATOM     24  H   UNL     1      24.158  38.225  11.238  1.00  0.00     0.163 HD
ATOM     25  C   UNL     1      24.690  40.383  12.770  1.00  0.00     0.114 C 
ATOM     26  O   UNL     1      23.465  41.443  11.003  1.00  0.00    -0.275 OA
ENDBRANCH  13  22
ENDBRANCH   7   8
BRANCH   7  27
ATOM     27  O   UNL     1      25.546  38.028   7.093  1.00  0.00    -0.388 OA
ATOM     28  H   UNL     1      26.454  38.262   6.830  1.00  0.00     0.211 HD
ENDBRANCH   7  27
ENDBRANCH   6   7
BRANCH   6  29
ATOM     29  O   UNL     1      24.254  40.150   6.083  1.00  0.00    -0.388 OA
ATOM     30  H   UNL     1      23.267  40.185   5.959  1.00  0.00     0.211 HD
ENDBRANCH   6  29
ENDBRANCH   5   6
ENDBRANCH   1   5
BRANCH   2  31
ATOM     31  O   UNL     1      28.724  41.161   6.029  1.00  0.00    -0.443 OA
BRANCH  31  32
ATOM     32  C   UNL     1      29.125  40.167   5.106  1.00  0.00     0.294 C 
BRANCH  32  33
ATOM     33  C   UNL     1      28.756  38.825   5.595  1.00  0.00     0.121 A 
ATOM     34  C   UNL     1      29.154  38.185   6.756  1.00  0.00     0.144 A 
ATOM     35  N   UNL     1      27.937  37.940   4.986  1.00  0.00    -0.131 NA
ATOM     36  N   UNL     1      28.580  36.966   6.813  1.00  0.00    -0.220 N 
ATOM     37  N   UNL     1      27.840  36.855   5.706  1.00  0.00    -0.062 NA
BRANCH  36  38
ATOM     38  C   UNL     1      28.699  35.971   7.808  1.00  0.00     0.067 A 
ATOM     39  C   UNL     1      27.784  35.866   8.838  1.00  0.00     0.044 A 
ATOM     40  C   UNL     1      29.735  35.064   7.789  1.00  0.00     0.028 A 
ATOM     41  C   UNL     1      27.863  34.909   9.830  1.00  0.00     0.062 A 
ATOM     42  C   UNL     1      29.842  34.086   8.774  1.00  0.00     0.003 A 
ATOM     43  C   UNL     1      28.911  34.018   9.780  1.00  0.00     0.016 A 
BRANCH  41  44
ATOM     44  C   UNL     1      26.882  34.821  10.905  1.00  0.00     0.338 C 
ATOM     45  O   UNL     1      25.659  34.794  10.621  1.00  0.00    -0.246 OA
BRANCH  44  46
ATOM     46  O   UNL     1      27.242  34.764  12.241  1.00  0.00    -0.462 OA
BRANCH  46  47
ATOM     47  C   UNL     1      28.000  35.777  12.871  1.00  0.00     0.230 C 
ATOM     48  C   UNL     1      27.251  37.073  12.767  1.00  0.00     0.049 C 
ENDBRANCH  46  47
ENDBRANCH  44  46
ENDBRANCH  41  44
ENDBRANCH  36  38
ENDBRANCH  32  33
ENDBRANCH  31  32
ENDBRANCH   2  31
TORSDOF 18
BEGIN_RES LYS A 131
REMARK  4 active torsions:
REMARK  status: ('A' for Active; 'I' for Inactive)
REMARK    1  A    between atoms: CA   and  CB  
REMARK    2  A    between atoms: CB   and  CG  
REMARK    3  A    between atoms: CG   and  CD  
REMARK    4  A    between atoms: CD   and  CE  
ROOT
ATOM      1  CA  LYS A 131      29.867  25.555  16.977  1.00 20.52     0.186 C 
ENDROOT
BRANCH   1   2
ATOM      2  CB  LYS A 131      28.345  25.722  17.026  1.00 20.94     0.034 C 
BRANCH   2   3
ATOM      3  CG  LYS A 131      27.601  24.403  16.887  1.00 22.96     0.005 C 
BRANCH   3   4
ATOM      4  CD  LYS A 131      26.731  24.114  18.079  1.00 24.33     0.041 C 
BRANCH   4   5
ATOM      5  CE  LYS A 131      25.804  25.299  18.331  1.00 26.91     0.338 C 
ATOM      6  NZ  LYS A 131      25.917  25.757  19.736  1.00 27.40     0.618 N 
ENDBRANCH   4   5
ENDBRANCH   3   4
ENDBRANCH   2   3
ENDBRANCH   1   2
END_RES LYS A 131
BEGIN_RES LYS A 135
REMARK  4 active torsions:
REMARK  status: ('A' for Active; 'I' for Inactive)
REMARK    5  A    between atoms: CA   and  CB  
REMARK    6  A    between atoms: CB   and  CG  
REMARK    7  A    between atoms: CG   and  CD  
REMARK    8  A    between atoms: CD   and  CE  
ROOT
ATOM      7  CA  LYS A 135      33.193  34.663   9.290  1.00 25.02     0.186 C 
ENDROOT
BRANCH   7   8
ATOM      8  CB  LYS A 135      32.060  35.360  10.034  1.00 26.63     0.034 C 
BRANCH   8   9
ATOM      9  CG  LYS A 135      32.488  35.979  11.340  1.00 29.45     0.005 C 
BRANCH   9  10
ATOM     10  CD  LYS A 135      31.870  37.358  11.508  1.00 32.00     0.041 C 
BRANCH  10  11
ATOM     11  CE  LYS A 135      30.574  37.460  10.726  1.00 34.25     0.338 C 
ATOM     12  NZ  LYS A 135      30.018  38.840  10.787  1.00 35.99     0.618 N 
ENDBRANCH  10  11
ENDBRANCH   9  10
ENDBRANCH   8   9
ENDBRANCH   7   8
END_RES LYS A 135
