REMARK VINA RESULT:    -5.750      1.673      2.056
REMARK INTER + INTRA:         -15.577
REMARK INTER:                 -10.793
REMARK INTRA:                  -4.785
REMARK UNBOUND:                -5.290
REMARK SMILES CC(=O)N[C@@H]1[C@@H](O)C[C@](O)(C(=O)O)O[C@H]1C(O)[C@H](O)CNC(=O)OCc1cn(Cc2ccccc2)nn1
REMARK SMILES IDX 21 1 22 2 23 3 20 5 18 6 16 7 15 8 9 9 8 10 14 11 6 12 5 13
REMARK SMILES IDX 10 14 11 16 12 17 13 18 7 20 4 22 2 23 1 25 3 26 17 27 19 29
REMARK SMILES IDX 24 31 25 32 26 33 27 34 37 35 28 36 36 37 29 38 30 39 31 40
REMARK SMILES IDX 35 41 32 42 34 43 33 44
REMARK H PARENT 21 4 10 15 13 19 7 21 4 24 17 28 19 30
REMARK Flexibility Score: inf
ROOT
ATOM      1  N   UNL     1      24.687  39.790   7.343  1.00  0.00    -0.319 N 
ATOM      2  C   UNL     1      25.607  40.416   8.210  1.00  0.00     0.407 C 
ATOM      3  O   UNL     1      25.535  40.307   9.444  1.00  0.00    -0.225 OA
ATOM      4  H   UNL     1      24.852  39.951   6.315  1.00  0.00     0.167 HD
ENDROOT
BRANCH   1   5
ATOM      5  C   UNL     1      23.596  38.988   7.805  1.00  0.00     0.154 C 
BRANCH   5   6
ATOM      6  C   UNL     1      23.912  37.526   7.592  1.00  0.00     0.165 C 
BRANCH   6   7
ATOM      7  C   UNL     1      23.936  36.773   8.891  1.00  0.00     0.176 C 
BRANCH   7   8
ATOM      8  C   UNL     1      22.726  35.893   9.101  1.00  0.00     0.178 C 
ATOM      9  C   UNL     1      20.434  36.238   8.809  1.00  0.00     0.269 C 
ATOM     10  C   UNL     1      20.265  34.943   9.619  1.00  0.00     0.112 C 
ATOM     11  O   UNL     1      21.687  36.201   8.277  1.00  0.00    -0.332 OA
ATOM     12  C   UNL     1      21.075  35.207  10.886  1.00  0.00     0.145 C 
ATOM     13  C   UNL     1      22.438  35.771  10.556  1.00  0.00     0.142 C 
BRANCH   9  14
ATOM     14  O   UNL     1      20.146  37.337   9.592  1.00  0.00    -0.357 OA
ATOM     15  H   UNL     1      19.337  37.148  10.112  1.00  0.00     0.214 HD
ENDBRANCH   9  14
BRANCH   9  16
ATOM     16  C   UNL     1      19.462  36.142   7.662  1.00  0.00     0.364 C 
ATOM     17  O   UNL     1      18.727  37.100   7.344  1.00  0.00    -0.246 OA
BRANCH  16  18
ATOM     18  O   UNL     1      19.365  34.972   6.933  1.00  0.00    -0.477 OA
ATOM     19  H   UNL     1      20.048  34.794   6.215  1.00  0.00     0.296 HD
ENDBRANCH  16  18
ENDBRANCH   9  16
BRANCH  12  20
ATOM     20  O   UNL     1      20.315  36.102  11.640  1.00  0.00    -0.391 OA
ATOM     21  H   UNL     1      20.790  36.302  12.476  1.00  0.00     0.211 HD
ENDBRANCH  12  20
BRANCH  13  22
ATOM     22  N   UNL     1      23.479  34.893  11.120  1.00  0.00    -0.348 N 
ATOM     23  C   UNL     1      24.271  35.266  12.234  1.00  0.00     0.217 C 
ATOM     24  H   UNL     1      23.649  33.944  10.679  1.00  0.00     0.163 HD
ATOM     25  C   UNL     1      25.328  34.418  12.836  1.00  0.00     0.114 C 
ATOM     26  O   UNL     1      24.064  36.392  12.752  1.00  0.00    -0.275 OA
ENDBRANCH  13  22
ENDBRANCH   7   8
BRANCH   7  27
ATOM     27  O   UNL     1      24.137  37.661   9.930  1.00  0.00    -0.388 OA
ATOM     28  H   UNL     1      24.391  37.148  10.733  1.00  0.00     0.211 HD
ENDBRANCH   7  27
ENDBRANCH   6   7
BRANCH   6  29
ATOM     29  O   UNL     1      25.143  37.496   6.937  1.00  0.00    -0.388 OA
ATOM     30  H   UNL     1      25.248  38.226   6.286  1.00  0.00     0.211 HD
ENDBRANCH   6  29
ENDBRANCH   5   6
ENDBRANCH   1   5
BRANCH   2  31
ATOM     31  O   UNL     1      26.647  41.189   7.697  1.00  0.00    -0.443 OA
BRANCH  31  32
ATOM     32  C   UNL     1      27.948  40.656   7.643  1.00  0.00     0.294 C 
BRANCH  32  33
ATOM     33  C   UNL     1      27.996  39.407   6.843  1.00  0.00     0.120 A 
ATOM     34  C   UNL     1      28.614  38.241   7.204  1.00  0.00     0.138 A 
ATOM     35  N   UNL     1      27.447  39.213   5.641  1.00  0.00    -0.132 NA
ATOM     36  N   UNL     1      28.425  37.363   6.204  1.00  0.00    -0.248 N 
ATOM     37  N   UNL     1      27.708  37.986   5.263  1.00  0.00    -0.067 NA
BRANCH  36  38
ATOM     38  C   UNL     1      28.877  35.999   6.101  1.00  0.00     0.181 C 
BRANCH  38  39
ATOM     39  C   UNL     1      28.566  35.235   7.339  1.00  0.00    -0.026 A 
ATOM     40  C   UNL     1      29.576  34.708   8.135  1.00  0.00     0.005 A 
ATOM     41  C   UNL     1      27.275  35.015   7.753  1.00  0.00     0.005 A 
ATOM     42  C   UNL     1      29.282  34.003   9.276  1.00  0.00     0.000 A 
ATOM     43  C   UNL     1      26.968  34.307   8.901  1.00  0.00     0.000 A 
ATOM     44  C   UNL     1      27.980  33.791   9.678  1.00  0.00     0.000 A 
ENDBRANCH  38  39
ENDBRANCH  36  38
ENDBRANCH  32  33
ENDBRANCH  31  32
ENDBRANCH   2  31
TORSDOF 16
BEGIN_RES LYS A 131
REMARK  4 active torsions:
REMARK  status: ('A' for Active; 'I' for Inactive)
REMARK    1  A    between atoms: CA   and  CB  
REMARK    2  A    between atoms: CB   and  CG  
REMARK    3  A    between atoms: CG   and  CD  
REMARK    4  A    between atoms: CD   and  CE  
ROOT
ATOM      1  CA  LYS A 131      29.867  25.555  16.977  1.00 20.52     0.186 C 
ENDROOT
BRANCH   1   2
ATOM      2  CB  LYS A 131      28.345  25.722  17.026  1.00 20.94     0.034 C 
BRANCH   2   3
ATOM      3  CG  LYS A 131      27.601  24.402  16.891  1.00 22.96     0.005 C 
BRANCH   3   4
ATOM      4  CD  LYS A 131      26.522  24.252  17.927  1.00 24.33     0.041 C 
BRANCH   4   5
ATOM      5  CE  LYS A 131      25.259  23.702  17.271  1.00 26.91     0.338 C 
ATOM      6  NZ  LYS A 131      24.973  22.334  17.763  1.00 27.40     0.618 N 
ENDBRANCH   4   5
ENDBRANCH   3   4
ENDBRANCH   2   3
ENDBRANCH   1   2
END_RES LYS A 131
BEGIN_RES LYS A 135
REMARK  4 active torsions:
REMARK  status: ('A' for Active; 'I' for Inactive)
REMARK    5  A    between atoms: CA   and  CB  
REMARK    6  A    between atoms: CB   and  CG  
REMARK    7  A    between atoms: CG   and  CD  
REMARK    8  A    between atoms: CD   and  CE  
ROOT
ATOM      7  CA  LYS A 135      33.193  34.663   9.290  1.00 25.02     0.186 C 
ENDROOT
BRANCH   7   8
ATOM      8  CB  LYS A 135      32.060  35.360  10.034  1.00 26.63     0.034 C 
BRANCH   8   9
ATOM      9  CG  LYS A 135      32.510  36.078  11.280  1.00 29.45     0.005 C 
BRANCH   9  10
ATOM     10  CD  LYS A 135      31.480  37.114  11.704  1.00 32.00     0.041 C 
BRANCH  10  11
ATOM     11  CE  LYS A 135      30.597  37.498  10.531  1.00 34.25     0.338 C 
ATOM     12  NZ  LYS A 135      29.156  37.326  10.866  1.00 35.99     0.618 N 
ENDBRANCH  10  11
ENDBRANCH   9  10
ENDBRANCH   8   9
ENDBRANCH   7   8
END_RES LYS A 135
