REMARK VINA RESULT:    -5.714      3.623      7.139
REMARK INTER + INTRA:         -14.375
REMARK INTER:                 -10.417
REMARK INTRA:                  -3.958
REMARK UNBOUND:                -4.485
REMARK SMILES CC(=O)N[C@@H]1[C@@H](O)C[C@](O)(C(=O)O)O[C@H]1C(O)[C@H](O)CNC(=O)OCc1cn(-c2ccccc2)nn1
REMARK SMILES IDX 20 1 18 2 16 3 15 4 9 5 8 6 14 7 6 8 5 9 10 10 11 12 12 13
REMARK SMILES IDX 13 14 7 16 4 18 2 19 1 21 3 22 17 23 19 25 21 27 22 28 23 30
REMARK SMILES IDX 24 31 25 32 26 33 27 34 36 35 28 36 35 37 29 38 30 39 34 40
REMARK SMILES IDX 31 41 33 42 32 43
REMARK H PARENT 10 11 13 15 7 17 4 20 17 24 19 26 21 29
REMARK Flexibility Score: inf
ROOT
ATOM      1  C   UNL     1      25.671  37.789   9.917  1.00  0.00     0.154 C 
ENDROOT
BRANCH   1   2
ATOM      2  C   UNL     1      25.830  38.768   8.771  1.00  0.00     0.165 C 
BRANCH   2   3
ATOM      3  C   UNL     1      26.401  38.104   7.538  1.00  0.00     0.176 C 
BRANCH   3   4
ATOM      4  C   UNL     1      27.749  37.507   7.775  1.00  0.00     0.178 C 
ATOM      5  C   UNL     1      29.368  39.041   7.038  1.00  0.00     0.269 C 
ATOM      6  C   UNL     1      29.551  38.348   5.734  1.00  0.00     0.112 C 
ATOM      7  O   UNL     1      28.745  38.376   8.024  1.00  0.00    -0.332 OA
ATOM      8  C   UNL     1      28.590  37.225   5.475  1.00  0.00     0.145 C 
ATOM      9  C   UNL     1      28.160  36.519   6.722  1.00  0.00     0.142 C 
BRANCH   5  10
ATOM     10  O   UNL     1      28.631  40.214   6.766  1.00  0.00    -0.357 OA
ATOM     11  H   UNL     1      29.164  40.978   7.123  1.00  0.00     0.214 HD
ENDBRANCH   5  10
BRANCH   5  12
ATOM     12  C   UNL     1      30.684  39.513   7.547  1.00  0.00     0.364 C 
ATOM     13  O   UNL     1      30.909  40.711   7.825  1.00  0.00    -0.246 OA
BRANCH  12  14
ATOM     14  O   UNL     1      31.709  38.611   7.729  1.00  0.00    -0.477 OA
ATOM     15  H   UNL     1      32.690  38.860   7.769  1.00  0.00     0.296 HD
ENDBRANCH  12  14
ENDBRANCH   5  12
BRANCH   8  16
ATOM     16  O   UNL     1      27.464  37.701   4.782  1.00  0.00    -0.391 OA
ATOM     17  H   UNL     1      26.919  38.305   5.323  1.00  0.00     0.211 HD
ENDBRANCH   8  16
BRANCH   9  18
ATOM     18  N   UNL     1      29.323  35.795   7.240  1.00  0.00    -0.348 N 
ATOM     19  C   UNL     1      29.189  34.755   8.201  1.00  0.00     0.217 C 
ATOM     20  H   UNL     1      30.287  36.021   6.917  1.00  0.00     0.163 HD
ATOM     21  C   UNL     1      30.356  34.008   8.738  1.00  0.00     0.114 C 
ATOM     22  O   UNL     1      28.053  34.425   8.639  1.00  0.00    -0.275 OA
ENDBRANCH   9  18
ENDBRANCH   3   4
BRANCH   3  23
ATOM     23  O   UNL     1      25.467  37.115   7.186  1.00  0.00    -0.388 OA
ATOM     24  H   UNL     1      26.020  36.295   7.017  1.00  0.00     0.211 HD
ENDBRANCH   3  23
ENDBRANCH   2   3
BRANCH   2  25
ATOM     25  O   UNL     1      26.524  39.899   9.163  1.00  0.00    -0.388 OA
ATOM     26  H   UNL     1      25.941  40.634   9.441  1.00  0.00     0.211 HD
ENDBRANCH   2  25
ENDBRANCH   1   2
BRANCH   1  27
ATOM     27  N   UNL     1      24.320  37.634  10.357  1.00  0.00    -0.319 N 
ATOM     28  C   UNL     1      23.481  36.556   9.964  1.00  0.00     0.407 C 
ATOM     29  H   UNL     1      23.894  38.336  11.006  1.00  0.00     0.167 HD
ATOM     30  O   UNL     1      23.885  35.670   9.201  1.00  0.00    -0.225 OA
BRANCH  28  31
ATOM     31  O   UNL     1      22.172  36.455  10.421  1.00  0.00    -0.443 OA
BRANCH  31  32
ATOM     32  C   UNL     1      21.907  36.452  11.816  1.00  0.00     0.294 C 
BRANCH  32  33
ATOM     33  C   UNL     1      22.427  35.178  12.361  1.00  0.00     0.121 A 
ATOM     34  C   UNL     1      22.025  33.904  12.030  1.00  0.00     0.144 A 
ATOM     35  N   UNL     1      23.397  35.060  13.290  1.00  0.00    -0.131 NA
ATOM     36  N   UNL     1      22.771  33.071  12.773  1.00  0.00    -0.220 N 
ATOM     37  N   UNL     1      23.590  33.778  13.525  1.00  0.00    -0.062 NA
BRANCH  36  38
ATOM     38  C   UNL     1      22.678  31.652  12.743  1.00  0.00     0.066 A 
ATOM     39  C   UNL     1      21.461  31.059  12.456  1.00  0.00     0.028 A 
ATOM     40  C   UNL     1      23.788  30.867  12.996  1.00  0.00     0.028 A 
ATOM     41  C   UNL     1      21.407  29.677  12.434  1.00  0.00     0.002 A 
ATOM     42  C   UNL     1      23.716  29.497  12.970  1.00  0.00     0.002 A 
ATOM     43  C   UNL     1      22.507  28.901  12.685  1.00  0.00     0.000 A 
ENDBRANCH  36  38
ENDBRANCH  32  33
ENDBRANCH  31  32
ENDBRANCH  28  31
ENDBRANCH   1  27
TORSDOF 15
BEGIN_RES LYS A 131
REMARK  4 active torsions:
REMARK  status: ('A' for Active; 'I' for Inactive)
REMARK    1  A    between atoms: CA   and  CB  
REMARK    2  A    between atoms: CB   and  CG  
REMARK    3  A    between atoms: CG   and  CD  
REMARK    4  A    between atoms: CD   and  CE  
ROOT
ATOM      1  CA  LYS A 131      29.867  25.555  16.977  1.00 20.52     0.186 C 
ENDROOT
BRANCH   1   2
ATOM      2  CB  LYS A 131      28.345  25.722  17.026  1.00 20.94     0.034 C 
BRANCH   2   3
ATOM      3  CG  LYS A 131      27.601  24.403  16.887  1.00 22.96     0.005 C 
BRANCH   3   4
ATOM      4  CD  LYS A 131      26.638  24.173  18.018  1.00 24.33     0.041 C 
BRANCH   4   5
ATOM      5  CE  LYS A 131      25.311  24.857  17.704  1.00 26.91     0.338 C 
ATOM      6  NZ  LYS A 131      24.455  23.974  16.877  1.00 27.40     0.618 N 
ENDBRANCH   4   5
ENDBRANCH   3   4
ENDBRANCH   2   3
ENDBRANCH   1   2
END_RES LYS A 131
BEGIN_RES LYS A 135
REMARK  4 active torsions:
REMARK  status: ('A' for Active; 'I' for Inactive)
REMARK    5  A    between atoms: CA   and  CB  
REMARK    6  A    between atoms: CB   and  CG  
REMARK    7  A    between atoms: CG   and  CD  
REMARK    8  A    between atoms: CD   and  CE  
ROOT
ATOM      7  CA  LYS A 135      33.193  34.663   9.290  1.00 25.02     0.186 C 
ENDROOT
BRANCH   7   8
ATOM      8  CB  LYS A 135      32.060  35.360  10.034  1.00 26.63     0.034 C 
BRANCH   8   9
ATOM      9  CG  LYS A 135      32.495  36.009  11.323  1.00 29.45     0.005 C 
BRANCH   9  10
ATOM     10  CD  LYS A 135      31.323  36.131  12.284  1.00 32.00     0.041 C 
BRANCH  10  11
ATOM     11  CE  LYS A 135      30.669  34.780  12.501  1.00 34.25     0.338 C 
ATOM     12  NZ  LYS A 135      29.220  34.825  12.160  1.00 35.99     0.618 N 
ENDBRANCH  10  11
ENDBRANCH   9  10
ENDBRANCH   8   9
ENDBRANCH   7   8
END_RES LYS A 135
