REMARK VINA RESULT:    -6.067      5.159      8.826
REMARK INTER + INTRA:         -16.603
REMARK INTER:                  -9.965
REMARK INTRA:                  -6.637
REMARK UNBOUND:                -5.216
REMARK SMILES CC(=O)N[C@@H]1[C@@H](O)C[C@](O)(C(=O)O)O[C@H]1C(O)[C@H](O)CNC(=O)OCc1cn(-c2cc(C(=O)O)nc(-c3ccccc3)c2)nn1
REMARK SMILES IDX 21 1 22 2 23 3 20 5 18 6 16 7 15 8 9 9 8 10 14 11 6 12 5 13
REMARK SMILES IDX 10 14 11 16 12 17 13 18 7 20 4 22 2 23 1 25 3 26 17 27 19 29
REMARK SMILES IDX 24 31 25 32 26 33 27 34 45 35 28 36 44 37 29 38 30 39 43 40
REMARK SMILES IDX 31 41 36 42 35 43 32 44 33 45 34 46 37 48 38 49 42 50 39 51
REMARK SMILES IDX 41 52 40 53
REMARK H PARENT 21 4 10 15 13 19 7 21 4 24 17 28 19 30 34 47
REMARK Flexibility Score: inf
ROOT
ATOM      1  N   UNL     1      25.084  40.125   6.060  1.00  0.00    -0.319 N 
ATOM      2  C   UNL     1      24.184  40.595   7.068  1.00  0.00     0.407 C 
ATOM      3  O   UNL     1      23.756  41.775   6.980  1.00  0.00    -0.225 OA
ATOM      4  H   UNL     1      25.408  39.123   6.192  1.00  0.00     0.167 HD
ENDROOT
BRANCH   1   5
ATOM      5  C   UNL     1      25.525  40.929   4.952  1.00  0.00     0.154 C 
BRANCH   5   6
ATOM      6  C   UNL     1      26.997  40.771   4.720  1.00  0.00     0.165 C 
BRANCH   6   7
ATOM      7  C   UNL     1      27.442  39.472   5.382  1.00  0.00     0.176 C 
BRANCH   7   8
ATOM      8  C   UNL     1      28.708  39.690   6.135  1.00  0.00     0.178 C 
ATOM      9  C   UNL     1      30.892  40.420   5.810  1.00  0.00     0.269 C 
ATOM     10  C   UNL     1      30.872  40.372   7.333  1.00  0.00     0.112 C 
ATOM     11  O   UNL     1      29.652  40.254   5.249  1.00  0.00    -0.332 OA
ATOM     12  C   UNL     1      30.397  39.022   7.737  1.00  0.00     0.145 C 
ATOM     13  C   UNL     1      29.367  38.486   6.717  1.00  0.00     0.142 C 
BRANCH   9  14
ATOM     14  O   UNL     1      31.779  39.383   5.434  1.00  0.00    -0.357 OA
ATOM     15  H   UNL     1      31.554  38.623   6.031  1.00  0.00     0.214 HD
ENDBRANCH   9  14
BRANCH   9  16
ATOM     16  C   UNL     1      31.446  41.698   5.322  1.00  0.00     0.364 C 
ATOM     17  O   UNL     1      30.695  42.555   4.824  1.00  0.00    -0.246 OA
BRANCH  16  18
ATOM     18  O   UNL     1      32.797  41.955   5.415  1.00  0.00    -0.477 OA
ATOM     19  H   UNL     1      33.170  42.839   5.750  1.00  0.00     0.296 HD
ENDBRANCH  16  18
ENDBRANCH   9  16
BRANCH  12  20
ATOM     20  O   UNL     1      31.405  38.106   7.941  1.00  0.00    -0.391 OA
ATOM     21  H   UNL     1      32.270  38.557   8.059  1.00  0.00     0.211 HD
ENDBRANCH  12  20
BRANCH  13  22
ATOM     22  N   UNL     1      28.504  37.556   7.393  1.00  0.00    -0.348 N 
ATOM     23  C   UNL     1      28.302  36.219   6.891  1.00  0.00     0.217 C 
ATOM     24  H   UNL     1      28.025  37.832   8.254  1.00  0.00     0.163 HD
ATOM     25  C   UNL     1      27.429  35.236   7.551  1.00  0.00     0.114 C 
ATOM     26  O   UNL     1      28.932  35.940   5.828  1.00  0.00    -0.275 OA
ENDBRANCH  13  22
ENDBRANCH   7   8
BRANCH   7  27
ATOM     27  O   UNL     1      27.476  38.402   4.530  1.00  0.00    -0.388 OA
ATOM     28  H   UNL     1      26.783  38.375   3.846  1.00  0.00     0.211 HD
ENDBRANCH   7  27
ENDBRANCH   6   7
BRANCH   6  29
ATOM     29  O   UNL     1      27.603  41.854   5.389  1.00  0.00    -0.388 OA
ATOM     30  H   UNL     1      26.863  42.409   5.711  1.00  0.00     0.211 HD
ENDBRANCH   6  29
ENDBRANCH   5   6
ENDBRANCH   1   5
BRANCH   2  31
ATOM     31  O   UNL     1      23.799  39.765   8.111  1.00  0.00    -0.443 OA
BRANCH  31  32
ATOM     32  C   UNL     1      24.187  40.126   9.421  1.00  0.00     0.294 C 
BRANCH  32  33
ATOM     33  C   UNL     1      25.466  39.427   9.705  1.00  0.00     0.121 A 
ATOM     34  C   UNL     1      26.616  39.976  10.286  1.00  0.00     0.144 A 
ATOM     35  N   UNL     1      25.814  38.138   9.479  1.00  0.00    -0.131 NA
ATOM     36  N   UNL     1      27.571  39.035  10.384  1.00  0.00    -0.220 N 
ATOM     37  N   UNL     1      27.060  37.934   9.888  1.00  0.00    -0.062 NA
BRANCH  36  38
ATOM     38  C   UNL     1      28.880  39.276  10.941  1.00  0.00     0.071 A 
ATOM     39  C   UNL     1      29.479  40.507  10.868  1.00  0.00     0.064 A 
ATOM     40  C   UNL     1      29.574  38.250  11.571  1.00  0.00     0.057 A 
ATOM     41  C   UNL     1      30.729  40.771  11.388  1.00  0.00     0.151 A 
ATOM     42  C   UNL     1      30.817  38.498  12.094  1.00  0.00     0.073 A 
ATOM     43  N   UNL     1      31.345  39.739  11.984  1.00  0.00    -0.241 NA
BRANCH  41  44
ATOM     44  C   UNL     1      31.344  42.085  11.300  1.00  0.00     0.354 C 
ATOM     45  O   UNL     1      31.136  42.783  10.288  1.00  0.00    -0.245 OA
BRANCH  44  46
ATOM     46  O   UNL     1      32.148  42.575  12.306  1.00  0.00    -0.477 OA
ATOM     47  H   UNL     1      33.119  42.271  12.440  1.00  0.00     0.297 HD
ENDBRANCH  44  46
ENDBRANCH  41  44
BRANCH  42  48
ATOM     48  C   UNL     1      31.577  37.429  12.767  1.00  0.00     0.000 A 
ATOM     49  C   UNL     1      32.328  36.577  11.987  1.00  0.00     0.010 A 
ATOM     50  C   UNL     1      31.530  37.296  14.125  1.00  0.00     0.010 A 
ATOM     51  C   UNL     1      33.038  35.578  12.611  1.00  0.00     0.001 A 
ATOM     52  C   UNL     1      32.258  36.279  14.712  1.00  0.00     0.001 A 
ATOM     53  C   UNL     1      33.025  35.402  13.978  1.00  0.00     0.000 A 
ENDBRANCH  42  48
ENDBRANCH  36  38
ENDBRANCH  32  33
ENDBRANCH  31  32
ENDBRANCH   2  31
TORSDOF 18
BEGIN_RES LYS A 131
REMARK  4 active torsions:
REMARK  status: ('A' for Active; 'I' for Inactive)
REMARK    1  A    between atoms: CA   and  CB  
REMARK    2  A    between atoms: CB   and  CG  
REMARK    3  A    between atoms: CG   and  CD  
REMARK    4  A    between atoms: CD   and  CE  
ROOT
ATOM      1  CA  LYS A 131      29.867  25.555  16.977  1.00 20.52     0.186 C 
ENDROOT
BRANCH   1   2
ATOM      2  CB  LYS A 131      28.345  25.722  17.026  1.00 20.94     0.034 C 
BRANCH   2   3
ATOM      3  CG  LYS A 131      27.601  24.402  16.892  1.00 22.96     0.005 C 
BRANCH   3   4
ATOM      4  CD  LYS A 131      26.149  24.531  17.259  1.00 24.33     0.041 C 
BRANCH   4   5
ATOM      5  CE  LYS A 131      25.976  24.264  18.751  1.00 26.91     0.338 C 
ATOM      6  NZ  LYS A 131      25.832  25.539  19.493  1.00 27.40     0.618 N 
ENDBRANCH   4   5
ENDBRANCH   3   4
ENDBRANCH   2   3
ENDBRANCH   1   2
END_RES LYS A 131
BEGIN_RES LYS A 135
REMARK  4 active torsions:
REMARK  status: ('A' for Active; 'I' for Inactive)
REMARK    5  A    between atoms: CA   and  CB  
REMARK    6  A    between atoms: CB   and  CG  
REMARK    7  A    between atoms: CG   and  CD  
REMARK    8  A    between atoms: CD   and  CE  
ROOT
ATOM      7  CA  LYS A 135      33.193  34.663   9.290  1.00 25.02     0.186 C 
ENDROOT
BRANCH   7   8
ATOM      8  CB  LYS A 135      32.060  35.360  10.034  1.00 26.63     0.034 C 
BRANCH   8   9
ATOM      9  CG  LYS A 135      30.719  35.214   9.362  1.00 29.45     0.005 C 
BRANCH   9  10
ATOM     10  CD  LYS A 135      29.876  34.164  10.069  1.00 32.00     0.041 C 
BRANCH  10  11
ATOM     11  CE  LYS A 135      28.892  34.821  11.018  1.00 34.25     0.338 C 
ATOM     12  NZ  LYS A 135      29.316  34.647  12.435  1.00 35.99     0.618 N 
ENDBRANCH  10  11
ENDBRANCH   9  10
ENDBRANCH   8   9
ENDBRANCH   7   8
END_RES LYS A 135
