REMARK VINA RESULT:    -5.325      3.026      5.723
REMARK INTER + INTRA:         -17.712
REMARK INTER:                 -11.287
REMARK INTRA:                  -6.425
REMARK UNBOUND:                -7.717
REMARK SMILES CC(=O)N[C@@H]1[C@@H](O)C[C@](O)(C(=O)O)O[C@H]1C(O)[C@H](O)CNC(=O)OCc1cn(-c2ccc(-c3c4ccc(=O)cc-4oc4cc(O)ccc34)c(C(=O)[O-])c2)nn1
REMARK SMILES IDX 21 1 22 2 23 3 20 5 18 6 16 7 15 8 9 9 8 10 14 11 6 12 5 13
REMARK SMILES IDX 10 14 11 16 12 17 13 18 7 20 4 22 2 23 1 25 3 26 17 27 19 29
REMARK SMILES IDX 24 31 25 32 26 33 27 34 55 35 28 36 54 37 29 38 53 39 30 40
REMARK SMILES IDX 49 41 31 42 32 43 50 44 51 45 52 46 33 47 48 48 34 49 47 50
REMARK SMILES IDX 42 51 40 52 35 53 46 54 43 55 41 56 39 57 36 58 44 59 37 60
REMARK SMILES IDX 38 61 45 62
REMARK H PARENT 21 4 10 15 13 19 7 21 4 24 17 28 19 30 45 63
REMARK Flexibility Score: inf
ROOT
ATOM      1  N   UNL     1      31.100  38.280  10.191  1.00  0.00    -0.319 N 
ATOM      2  C   UNL     1      31.651  38.994   9.072  1.00  0.00     0.407 C 
ATOM      3  O   UNL     1      32.551  39.840   9.326  1.00  0.00    -0.225 OA
ATOM      4  H   UNL     1      30.356  37.574  10.040  1.00  0.00     0.167 HD
ENDROOT
BRANCH   1   5
ATOM      5  C   UNL     1      31.562  38.527  11.535  1.00  0.00     0.154 C 
BRANCH   5   6
ATOM      6  C   UNL     1      31.606  37.237  12.284  1.00  0.00     0.165 C 
BRANCH   6   7
ATOM      7  C   UNL     1      31.487  37.447  13.793  1.00  0.00     0.176 C 
BRANCH   7   8
ATOM      8  C   UNL     1      30.396  36.557  14.368  1.00  0.00     0.178 C 
ATOM      9  C   UNL     1      30.757  34.257  14.433  1.00  0.00     0.269 C 
ATOM     10  C   UNL     1      29.272  33.964  14.454  1.00  0.00     0.112 C 
ATOM     11  O   UNL     1      31.000  35.493  14.975  1.00  0.00    -0.332 OA
ATOM     12  C   UNL     1      28.511  35.028  13.752  1.00  0.00     0.145 C 
ATOM     13  C   UNL     1      29.349  36.221  13.364  1.00  0.00     0.142 C 
BRANCH   9  14
ATOM     14  O   UNL     1      31.195  34.102  13.143  1.00  0.00    -0.357 OA
ATOM     15  H   UNL     1      31.809  33.358  13.007  1.00  0.00     0.214 HD
ENDBRANCH   9  14
BRANCH   9  16
ATOM     16  C   UNL     1      31.406  33.246  15.302  1.00  0.00     0.364 C 
ATOM     17  O   UNL     1      31.918  33.594  16.395  1.00  0.00    -0.246 OA
BRANCH  16  18
ATOM     18  O   UNL     1      31.483  31.903  14.971  1.00  0.00    -0.477 OA
ATOM     19  H   UNL     1      30.708  31.252  15.171  1.00  0.00     0.296 HD
ENDBRANCH  16  18
ENDBRANCH   9  16
BRANCH  12  20
ATOM     20  O   UNL     1      27.886  34.552  12.602  1.00  0.00    -0.391 OA
ATOM     21  H   UNL     1      28.316  33.755  12.221  1.00  0.00     0.211 HD
ENDBRANCH  12  20
BRANCH  13  22
ATOM     22  N   UNL     1      28.408  37.342  13.221  1.00  0.00    -0.348 N 
ATOM     23  C   UNL     1      27.880  37.761  11.987  1.00  0.00     0.217 C 
ATOM     24  H   UNL     1      28.129  37.837  14.099  1.00  0.00     0.163 HD
ATOM     25  C   UNL     1      26.937  38.900  11.924  1.00  0.00     0.114 C 
ATOM     26  O   UNL     1      28.257  37.116  10.954  1.00  0.00    -0.275 OA
ENDBRANCH  13  22
ENDBRANCH   7   8
BRANCH   7  27
ATOM     27  O   UNL     1      31.171  38.800  13.965  1.00  0.00    -0.388 OA
ATOM     28  H   UNL     1      31.878  39.180  14.552  1.00  0.00     0.211 HD
ENDBRANCH   7  27
ENDBRANCH   6   7
BRANCH   6  29
ATOM     29  O   UNL     1      32.744  36.495  11.978  1.00  0.00    -0.388 OA
ATOM     30  H   UNL     1      32.975  35.848  12.686  1.00  0.00     0.211 HD
ENDBRANCH   6  29
ENDBRANCH   5   6
ENDBRANCH   1   5
BRANCH   2  31
ATOM     31  O   UNL     1      31.248  38.795   7.785  1.00  0.00    -0.443 OA
BRANCH  31  32
ATOM     32  C   UNL     1      30.436  39.727   7.111  1.00  0.00     0.294 C 
BRANCH  32  33
ATOM     33  C   UNL     1      29.079  39.163   6.967  1.00  0.00     0.121 A 
ATOM     34  C   UNL     1      28.242  38.713   7.991  1.00  0.00     0.144 A 
ATOM     35  N   UNL     1      28.390  38.964   5.836  1.00  0.00    -0.131 NA
ATOM     36  N   UNL     1      27.095  38.267   7.448  1.00  0.00    -0.220 N 
ATOM     37  N   UNL     1      27.215  38.432   6.147  1.00  0.00    -0.062 NA
BRANCH  36  38
ATOM     38  C   UNL     1      26.021  37.733   8.204  1.00  0.00     0.067 A 
ATOM     39  C   UNL     1      25.107  38.472   8.895  1.00  0.00     0.039 A 
ATOM     40  C   UNL     1      25.886  36.343   8.251  1.00  0.00     0.029 A 
ATOM     41  C   UNL     1      24.069  37.904   9.627  1.00  0.00     0.007 A 
ATOM     42  C   UNL     1      24.874  35.760   8.963  1.00  0.00     0.012 A 
ATOM     43  C   UNL     1      23.957  36.548   9.657  1.00  0.00    -0.008 A 
BRANCH  41  44
ATOM     44  C   UNL     1      23.108  38.729  10.354  1.00  0.00     0.072 C 
ATOM     45  O   UNL     1      22.064  39.180   9.785  1.00  0.00    -0.545 OA
ATOM     46  O   UNL     1      23.314  39.035  11.672  1.00  0.00    -0.545 OA
ENDBRANCH  41  44
BRANCH  43  47
ATOM     47  C   UNL     1      22.919  35.834  10.384  1.00  0.00     0.004 A 
ATOM     48  C   UNL     1      23.042  35.392  11.684  1.00  0.00     0.026 A 
ATOM     49  C   UNL     1      21.722  35.577   9.737  1.00  0.00     0.026 A 
ATOM     50  C   UNL     1      24.221  35.629  12.363  1.00  0.00     0.016 A 
ATOM     51  C   UNL     1      22.011  34.717  12.326  1.00  0.00     0.139 A 
ATOM     52  C   UNL     1      20.673  34.867  10.452  1.00  0.00     0.139 A 
ATOM     53  C   UNL     1      21.497  35.975   8.438  1.00  0.00     0.016 A 
ATOM     54  C   UNL     1      24.392  35.205  13.672  1.00  0.00     0.047 A 
ATOM     55  C   UNL     1      22.150  34.283  13.624  1.00  0.00     0.093 A 
ATOM     56  O   UNL     1      20.880  34.476  11.708  1.00  0.00    -0.456 OA
ATOM     57  C   UNL     1      19.490  34.610   9.824  1.00  0.00     0.099 A 
ATOM     58  C   UNL     1      20.295  35.694   7.853  1.00  0.00     0.053 A 
ATOM     59  C   UNL     1      23.351  34.536  14.283  1.00  0.00     0.119 A 
ATOM     60  C   UNL     1      19.287  35.018   8.523  1.00  0.00     0.182 A 
ATOM     61  O   UNL     1      18.197  34.783   7.939  1.00  0.00    -0.290 OA
BRANCH  59  62
ATOM     62  O   UNL     1      23.513  34.107  15.590  1.00  0.00    -0.508 OA
ATOM     63  H   UNL     1      23.605  34.721  16.378  1.00  0.00     0.293 HD
ENDBRANCH  59  62
ENDBRANCH  43  47
ENDBRANCH  36  38
ENDBRANCH  32  33
ENDBRANCH  31  32
ENDBRANCH   2  31
TORSDOF 18
BEGIN_RES LYS A 131
REMARK  4 active torsions:
REMARK  status: ('A' for Active; 'I' for Inactive)
REMARK    1  A    between atoms: CA   and  CB  
REMARK    2  A    between atoms: CB   and  CG  
REMARK    3  A    between atoms: CG   and  CD  
REMARK    4  A    between atoms: CD   and  CE  
ROOT
ATOM      1  CA  LYS A 131      29.867  25.555  16.977  1.00 20.52     0.186 C 
ENDROOT
BRANCH   1   2
ATOM      2  CB  LYS A 131      28.345  25.722  17.026  1.00 20.94     0.034 C 
BRANCH   2   3
ATOM      3  CG  LYS A 131      27.768  25.475  18.411  1.00 22.96     0.005 C 
BRANCH   3   4
ATOM      4  CD  LYS A 131      26.270  25.343  18.386  1.00 24.33     0.041 C 
BRANCH   4   5
ATOM      5  CE  LYS A 131      25.880  23.908  18.724  1.00 26.91     0.338 C 
ATOM      6  NZ  LYS A 131      26.000  23.042  17.528  1.00 27.40     0.618 N 
ENDBRANCH   4   5
ENDBRANCH   3   4
ENDBRANCH   2   3
ENDBRANCH   1   2
END_RES LYS A 131
BEGIN_RES LYS A 135
REMARK  4 active torsions:
REMARK  status: ('A' for Active; 'I' for Inactive)
REMARK    5  A    between atoms: CA   and  CB  
REMARK    6  A    between atoms: CB   and  CG  
REMARK    7  A    between atoms: CG   and  CD  
REMARK    8  A    between atoms: CD   and  CE  
ROOT
ATOM      7  CA  LYS A 135      33.193  34.663   9.290  1.00 25.02     0.186 C 
ENDROOT
BRANCH   7   8
ATOM      8  CB  LYS A 135      32.060  35.360  10.034  1.00 26.63     0.034 C 
BRANCH   8   9
ATOM      9  CG  LYS A 135      30.706  34.752   9.775  1.00 29.45     0.005 C 
BRANCH   9  10
ATOM     10  CD  LYS A 135      30.495  34.525   8.286  1.00 32.00     0.041 C 
BRANCH  10  11
ATOM     11  CE  LYS A 135      29.076  34.885   7.888  1.00 34.25     0.338 C 
ATOM     12  NZ  LYS A 135      29.035  35.470   6.519  1.00 35.99     0.618 N 
ENDBRANCH  10  11
ENDBRANCH   9  10
ENDBRANCH   8   9
ENDBRANCH   7   8
END_RES LYS A 135
