REMARK VINA RESULT:    -4.025      2.907      6.806
REMARK INTER + INTRA:         -14.417
REMARK INTER:                  -7.436
REMARK INTRA:                  -6.980
REMARK UNBOUND:                -6.980
REMARK SMILES CC(=O)N[C@@H]1[C@@H](O)C[C@](O)(C(=O)O)O[C@H]1C(O)[C@H](O)CNC(=O)OCc1cn(Cc2ccc(C#N)cc2)nn1
REMARK SMILES IDX 21 1 22 2 23 3 20 5 18 6 16 7 15 8 9 9 8 10 14 11 6 12 5 13
REMARK SMILES IDX 10 14 11 16 12 17 13 18 7 20 4 22 2 23 1 25 3 26 17 27 19 29
REMARK SMILES IDX 24 31 25 32 26 33 27 34 39 35 28 36 38 37 29 38 30 39 31 40
REMARK SMILES IDX 37 41 32 42 36 43 33 44 34 45 35 46
REMARK H PARENT 21 4 10 15 13 19 7 21 4 24 17 28 19 30
REMARK Flexibility Score: inf
ROOT
ATOM      1  N   UNL     1      27.117  32.875  20.310  1.00  0.00    -0.319 N 
ATOM      2  C   UNL     1      26.911  32.207  21.553  1.00  0.00     0.407 C 
ATOM      3  O   UNL     1      25.714  31.985  21.948  1.00  0.00    -0.225 OA
ATOM      4  H   UNL     1      28.095  33.040  20.010  1.00  0.00     0.167 HD
ENDROOT
BRANCH   1   5
ATOM      5  C   UNL     1      25.998  33.280  19.540  1.00  0.00     0.154 C 
BRANCH   5   6
ATOM      6  C   UNL     1      25.953  32.791  18.112  1.00  0.00     0.165 C 
BRANCH   6   7
ATOM      7  C   UNL     1      26.966  33.474  17.215  1.00  0.00     0.176 C 
BRANCH   7   8
ATOM      8  C   UNL     1      28.198  32.660  17.008  1.00  0.00     0.178 C 
ATOM      9  C   UNL     1      30.209  32.102  18.040  1.00  0.00     0.269 C 
ATOM     10  C   UNL     1      30.354  31.214  16.825  1.00  0.00     0.112 C 
ATOM     11  O   UNL     1      28.959  32.628  18.183  1.00  0.00    -0.332 OA
ATOM     12  C   UNL     1      29.987  31.895  15.554  1.00  0.00     0.145 C 
ATOM     13  C   UNL     1      29.111  33.108  15.911  1.00  0.00     0.142 C 
BRANCH   9  14
ATOM     14  O   UNL     1      31.208  33.098  17.982  1.00  0.00    -0.357 OA
ATOM     15  H   UNL     1      31.986  32.710  17.484  1.00  0.00     0.214 HD
ENDBRANCH   9  14
BRANCH   9  16
ATOM     16  C   UNL     1      30.498  31.261  19.220  1.00  0.00     0.364 C 
ATOM     17  O   UNL     1      30.623  31.798  20.343  1.00  0.00    -0.246 OA
BRANCH  16  18
ATOM     18  O   UNL     1      30.630  29.898  19.090  1.00  0.00    -0.477 OA
ATOM     19  H   UNL     1      29.883  29.233  19.181  1.00  0.00     0.296 HD
ENDBRANCH  16  18
ENDBRANCH   9  16
BRANCH  12  20
ATOM     20  O   UNL     1      31.066  32.274  14.780  1.00  0.00    -0.391 OA
ATOM     21  H   UNL     1      30.764  32.236  13.821  1.00  0.00     0.211 HD
ENDBRANCH  12  20
BRANCH  13  22
ATOM     22  N   UNL     1      28.483  33.636  14.741  1.00  0.00    -0.348 N 
ATOM     23  C   UNL     1      29.064  34.729  14.012  1.00  0.00     0.217 C 
ATOM     24  H   UNL     1      27.576  33.244  14.356  1.00  0.00     0.163 HD
ATOM     25  C   UNL     1      28.399  35.272  12.790  1.00  0.00     0.114 C 
ATOM     26  O   UNL     1      30.142  35.252  14.386  1.00  0.00    -0.275 OA
ENDBRANCH  13  22
ENDBRANCH   7   8
BRANCH   7  27
ATOM     27  O   UNL     1      27.167  34.757  17.609  1.00  0.00    -0.388 OA
ATOM     28  H   UNL     1      27.454  34.891  18.513  1.00  0.00     0.211 HD
ENDBRANCH   7  27
ENDBRANCH   6   7
BRANCH   6  29
ATOM     29  O   UNL     1      24.647  33.129  17.673  1.00  0.00    -0.388 OA
ATOM     30  H   UNL     1      24.126  33.559  18.375  1.00  0.00     0.211 HD
ENDBRANCH   6  29
ENDBRANCH   5   6
ENDBRANCH   1   5
BRANCH   2  31
ATOM     31  O   UNL     1      27.925  31.769  22.386  1.00  0.00    -0.443 OA
BRANCH  31  32
ATOM     32  C   UNL     1      27.862  30.459  22.904  1.00  0.00     0.294 C 
BRANCH  32  33
ATOM     33  C   UNL     1      28.162  29.438  21.873  1.00  0.00     0.120 A 
ATOM     34  C   UNL     1      27.306  28.906  20.921  1.00  0.00     0.138 A 
ATOM     35  N   UNL     1      29.347  28.845  21.682  1.00  0.00    -0.132 NA
ATOM     36  N   UNL     1      27.992  28.021  20.193  1.00  0.00    -0.248 N 
ATOM     37  N   UNL     1      29.216  28.006  20.676  1.00  0.00    -0.067 NA
BRANCH  36  38
ATOM     38  C   UNL     1      27.506  27.229  19.084  1.00  0.00     0.181 C 
BRANCH  38  39
ATOM     39  C   UNL     1      26.752  27.995  18.091  1.00  0.00    -0.026 A 
ATOM     40  C   UNL     1      25.396  27.829  17.979  1.00  0.00     0.007 A 
ATOM     41  C   UNL     1      27.412  28.887  17.259  1.00  0.00     0.007 A 
ATOM     42  C   UNL     1      24.672  28.542  17.043  1.00  0.00     0.020 A 
ATOM     43  C   UNL     1      26.708  29.615  16.310  1.00  0.00     0.020 A 
ATOM     44  C   UNL     1      25.328  29.428  16.215  1.00  0.00     0.052 A 
BRANCH  44  45
ATOM     45  C   UNL     1      24.587  30.171  15.239  1.00  0.00     0.099 C 
ATOM     46  N   UNL     1      23.986  30.767  14.428  1.00  0.00    -0.192 NA
ENDBRANCH  44  45
ENDBRANCH  38  39
ENDBRANCH  36  38
ENDBRANCH  32  33
ENDBRANCH  31  32
ENDBRANCH   2  31
TORSDOF 17
BEGIN_RES LYS A 131
REMARK  4 active torsions:
REMARK  status: ('A' for Active; 'I' for Inactive)
REMARK    1  A    between atoms: CA   and  CB  
REMARK    2  A    between atoms: CB   and  CG  
REMARK    3  A    between atoms: CG   and  CD  
REMARK    4  A    between atoms: CD   and  CE  
ROOT
ATOM      1  CA  LYS A 131      29.867  25.555  16.977  1.00 20.52     0.186 C 
ENDROOT
BRANCH   1   2
ATOM      2  CB  LYS A 131      28.345  25.722  17.026  1.00 20.94     0.034 C 
BRANCH   2   3
ATOM      3  CG  LYS A 131      27.599  24.475  16.576  1.00 22.96     0.005 C 
BRANCH   3   4
ATOM      4  CD  LYS A 131      27.132  23.644  17.738  1.00 24.33     0.041 C 
BRANCH   4   5
ATOM      5  CE  LYS A 131      25.728  24.080  18.144  1.00 26.91     0.338 C 
ATOM      6  NZ  LYS A 131      24.906  24.367  16.944  1.00 27.40     0.618 N 
ENDBRANCH   4   5
ENDBRANCH   3   4
ENDBRANCH   2   3
ENDBRANCH   1   2
END_RES LYS A 131
BEGIN_RES LYS A 135
REMARK  4 active torsions:
REMARK  status: ('A' for Active; 'I' for Inactive)
REMARK    5  A    between atoms: CA   and  CB  
REMARK    6  A    between atoms: CB   and  CG  
REMARK    7  A    between atoms: CG   and  CD  
REMARK    8  A    between atoms: CD   and  CE  
ROOT
ATOM      7  CA  LYS A 135      33.193  34.663   9.290  1.00 25.02     0.186 C 
ENDROOT
BRANCH   7   8
ATOM      8  CB  LYS A 135      32.060  35.360  10.034  1.00 26.63     0.034 C 
BRANCH   8   9
ATOM      9  CG  LYS A 135      30.734  34.655   9.909  1.00 29.45     0.005 C 
BRANCH   9  10
ATOM     10  CD  LYS A 135      30.333  34.521   8.448  1.00 32.00     0.041 C 
BRANCH  10  11
ATOM     11  CE  LYS A 135      28.823  34.546   8.306  1.00 34.25     0.338 C 
ATOM     12  NZ  LYS A 135      28.167  33.807   9.419  1.00 35.99     0.618 N 
ENDBRANCH  10  11
ENDBRANCH   9  10
ENDBRANCH   8   9
ENDBRANCH   7   8
END_RES LYS A 135
