REMARK VINA RESULT:    -5.251      8.020     14.706
REMARK INTER + INTRA:         -14.145
REMARK INTER:                  -8.958
REMARK INTRA:                  -5.187
REMARK UNBOUND:                -4.749
REMARK SMILES CC(=O)N[C@@H]1[C@@H](O)C[C@](O)(C(=O)O)O[C@H]1C(O)[C@H](O)CNC(=O)OCc1cn(-c2ccc([N+](=O)[O-])cc2)nn1
REMARK SMILES IDX 21 1 22 2 23 3 20 5 18 6 16 7 15 8 9 9 8 10 14 11 6 12 5 13
REMARK SMILES IDX 10 14 11 16 12 17 13 18 7 20 4 22 2 23 1 25 3 26 17 27 19 29
REMARK SMILES IDX 24 31 25 32 26 33 27 34 39 35 28 36 38 37 29 38 30 39 37 40
REMARK SMILES IDX 31 41 36 42 32 43 33 44 34 45 35 46
REMARK H PARENT 21 4 10 15 13 19 7 21 4 24 17 28 19 30
REMARK Flexibility Score: inf
ROOT
ATOM      1  N   UNL     1      22.005  38.782   7.910  1.00  0.00    -0.319 N 
ATOM      2  C   UNL     1      21.581  38.321   9.171  1.00  0.00     0.407 C 
ATOM      3  O   UNL     1      21.691  38.989  10.214  1.00  0.00    -0.225 OA
ATOM      4  H   UNL     1      21.828  38.117   7.080  1.00  0.00     0.167 HD
ENDROOT
BRANCH   1   5
ATOM      5  C   UNL     1      22.631  40.022   7.670  1.00  0.00     0.154 C 
BRANCH   5   6
ATOM      6  C   UNL     1      24.051  40.079   7.269  1.00  0.00     0.165 C 
BRANCH   6   7
ATOM      7  C   UNL     1      24.988  38.987   7.509  1.00  0.00     0.176 C 
BRANCH   7   8
ATOM      8  C   UNL     1      26.389  39.286   6.965  1.00  0.00     0.178 C 
ATOM      9  C   UNL     1      27.367  40.008   4.982  1.00  0.00     0.269 C 
ATOM     10  C   UNL     1      28.639  39.820   5.777  1.00  0.00     0.112 C 
ATOM     11  O   UNL     1      26.224  39.980   5.748  1.00  0.00    -0.332 OA
ATOM     12  C   UNL     1      28.655  38.540   6.552  1.00  0.00     0.145 C 
ATOM     13  C   UNL     1      27.192  38.073   6.669  1.00  0.00     0.142 C 
BRANCH   9  14
ATOM     14  O   UNL     1      27.370  39.064   3.970  1.00  0.00    -0.357 OA
ATOM     15  H   UNL     1      27.146  39.500   3.123  1.00  0.00     0.214 HD
ENDBRANCH   9  14
BRANCH   9  16
ATOM     16  C   UNL     1      27.451  41.357   4.363  1.00  0.00     0.364 C 
ATOM     17  O   UNL     1      27.152  41.530   3.154  1.00  0.00    -0.246 OA
BRANCH  16  18
ATOM     18  O   UNL     1      27.856  42.457   5.100  1.00  0.00    -0.477 OA
ATOM     19  H   UNL     1      28.686  42.436   5.698  1.00  0.00     0.296 HD
ENDBRANCH  16  18
ENDBRANCH   9  16
BRANCH  12  20
ATOM     20  O   UNL     1      29.452  37.555   6.013  1.00  0.00    -0.391 OA
ATOM     21  H   UNL     1      30.276  37.980   5.666  1.00  0.00     0.211 HD
ENDBRANCH  12  20
BRANCH  13  22
ATOM     22  N   UNL     1      27.198  37.067   7.710  1.00  0.00    -0.348 N 
ATOM     23  C   UNL     1      27.357  35.680   7.383  1.00  0.00     0.217 C 
ATOM     24  H   UNL     1      27.092  37.295   8.717  1.00  0.00     0.163 HD
ATOM     25  C   UNL     1      27.372  34.601   8.394  1.00  0.00     0.114 C 
ATOM     26  O   UNL     1      27.487  35.386   6.176  1.00  0.00    -0.275 OA
ENDBRANCH  13  22
ENDBRANCH   7   8
BRANCH   7  27
ATOM     27  O   UNL     1      24.516  37.790   7.035  1.00  0.00    -0.388 OA
ATOM     28  H   UNL     1      25.191  37.137   6.747  1.00  0.00     0.211 HD
ENDBRANCH   7  27
ENDBRANCH   6   7
BRANCH   6  29
ATOM     29  O   UNL     1      24.524  41.332   7.755  1.00  0.00    -0.388 OA
ATOM     30  H   UNL     1      25.463  41.238   8.062  1.00  0.00     0.211 HD
ENDBRANCH   6  29
ENDBRANCH   5   6
ENDBRANCH   1   5
BRANCH   2  31
ATOM     31  O   UNL     1      21.006  37.032   9.229  1.00  0.00    -0.443 OA
BRANCH  31  32
ATOM     32  C   UNL     1      21.836  35.960   8.826  1.00  0.00     0.294 C 
BRANCH  32  33
ATOM     33  C   UNL     1      22.819  35.634   9.915  1.00  0.00     0.121 A 
ATOM     34  C   UNL     1      24.132  36.038  10.008  1.00  0.00     0.144 A 
ATOM     35  N   UNL     1      22.614  34.877  11.021  1.00  0.00    -0.131 NA
ATOM     36  N   UNL     1      24.691  35.537  11.136  1.00  0.00    -0.220 N 
ATOM     37  N   UNL     1      23.730  34.844  11.709  1.00  0.00    -0.062 NA
BRANCH  36  38
ATOM     38  C   UNL     1      26.030  35.728  11.586  1.00  0.00     0.067 A 
ATOM     39  C   UNL     1      26.639  36.964  11.575  1.00  0.00     0.035 A 
ATOM     40  C   UNL     1      26.780  34.667  12.060  1.00  0.00     0.035 A 
ATOM     41  C   UNL     1      27.937  37.126  12.017  1.00  0.00     0.088 A 
ATOM     42  C   UNL     1      28.079  34.828  12.503  1.00  0.00     0.088 A 
ATOM     43  C   UNL     1      28.691  36.063  12.493  1.00  0.00     0.269 A 
BRANCH  43  44
ATOM     44  N   UNL     1      30.020  36.220  12.949  1.00  0.00     0.062 N 
ATOM     45  O   UNL     1      30.409  37.355  13.270  1.00  0.00    -0.258 OA
ATOM     46  O   UNL     1      30.911  35.190  13.060  1.00  0.00    -0.258 OA
ENDBRANCH  43  44
ENDBRANCH  36  38
ENDBRANCH  32  33
ENDBRANCH  31  32
ENDBRANCH   2  31
TORSDOF 16
BEGIN_RES LYS A 131
REMARK  4 active torsions:
REMARK  status: ('A' for Active; 'I' for Inactive)
REMARK    1  A    between atoms: CA   and  CB  
REMARK    2  A    between atoms: CB   and  CG  
REMARK    3  A    between atoms: CG   and  CD  
REMARK    4  A    between atoms: CD   and  CE  
ROOT
ATOM      1  CA  LYS A 131      29.867  25.555  16.977  1.00 20.52     0.186 C 
ENDROOT
BRANCH   1   2
ATOM      2  CB  LYS A 131      28.345  25.722  17.026  1.00 20.94     0.034 C 
BRANCH   2   3
ATOM      3  CG  LYS A 131      27.601  24.401  16.901  1.00 22.96     0.005 C 
BRANCH   3   4
ATOM      4  CD  LYS A 131      26.158  24.524  17.302  1.00 24.33     0.041 C 
BRANCH   4   5
ATOM      5  CE  LYS A 131      25.807  23.413  18.287  1.00 26.91     0.338 C 
ATOM      6  NZ  LYS A 131      25.081  22.319  17.599  1.00 27.40     0.618 N 
ENDBRANCH   4   5
ENDBRANCH   3   4
ENDBRANCH   2   3
ENDBRANCH   1   2
END_RES LYS A 131
BEGIN_RES LYS A 135
REMARK  4 active torsions:
REMARK  status: ('A' for Active; 'I' for Inactive)
REMARK    5  A    between atoms: CA   and  CB  
REMARK    6  A    between atoms: CB   and  CG  
REMARK    7  A    between atoms: CG   and  CD  
REMARK    8  A    between atoms: CD   and  CE  
ROOT
ATOM      7  CA  LYS A 135      33.193  34.663   9.290  1.00 25.02     0.186 C 
ENDROOT
BRANCH   7   8
ATOM      8  CB  LYS A 135      32.060  35.360  10.034  1.00 26.63     0.034 C 
BRANCH   8   9
ATOM      9  CG  LYS A 135      30.798  35.493   9.222  1.00 29.45     0.005 C 
BRANCH   9  10
ATOM     10  CD  LYS A 135      30.225  36.896   9.345  1.00 32.00     0.041 C 
BRANCH  10  11
ATOM     11  CE  LYS A 135      31.289  37.865   9.825  1.00 34.25     0.338 C 
ATOM     12  NZ  LYS A 135      31.676  38.815   8.746  1.00 35.99     0.618 N 
ENDBRANCH  10  11
ENDBRANCH   9  10
ENDBRANCH   8   9
ENDBRANCH   7   8
END_RES LYS A 135
