REMARK VINA RESULT:    -3.607      8.060     13.654
REMARK INTER + INTRA:         -15.637
REMARK INTER:                  -8.165
REMARK INTRA:                  -7.472
REMARK UNBOUND:                -8.446
REMARK SMILES CC(=O)N[C@@H]1[C@@H](O)C[C@](O)(C(=O)O)O[C@H]1C(O)[C@H](O)CNC(=O)OCc1cn(CC(O)Cn2ccnc2[N+](=O)[O-])nn1
REMARK SMILES IDX 24 1 22 2 21 3 23 5 20 6 18 7 16 8 15 9 9 10 8 11 14 12 6 13
REMARK SMILES IDX 5 14 10 15 11 17 12 18 13 19 7 21 4 23 2 24 1 26 3 27 17 28
REMARK SMILES IDX 19 30 25 32 26 33 27 34 42 35 28 36 41 37 29 38 30 39 31 40
REMARK SMILES IDX 32 42 33 43 34 44 37 45 35 46 36 47 38 48 39 49 40 50
REMARK H PARENT 21 4 10 16 13 20 7 22 4 25 17 29 19 31 31 41
REMARK Flexibility Score: inf
ROOT
ATOM      1  O   UNL     1      25.342  34.885  12.484  1.00  0.00    -0.443 OA
ENDROOT
BRANCH   1   2
ATOM      2  C   UNL     1      24.058  34.899  13.052  1.00  0.00     0.407 C 
ATOM      3  N   UNL     1      22.927  34.406  12.392  1.00  0.00    -0.319 N 
ATOM      4  H   UNL     1      23.068  34.010  11.414  1.00  0.00     0.167 HD
ATOM      5  O   UNL     1      23.970  35.376  14.192  1.00  0.00    -0.225 OA
BRANCH   3   6
ATOM      6  C   UNL     1      21.592  34.399  12.942  1.00  0.00     0.154 C 
BRANCH   6   7
ATOM      7  C   UNL     1      20.614  34.544  11.808  1.00  0.00     0.165 C 
BRANCH   7   8
ATOM      8  C   UNL     1      20.295  36.011  11.647  1.00  0.00     0.176 C 
BRANCH   8   9
ATOM      9  C   UNL     1      20.417  36.441  10.191  1.00  0.00     0.178 C 
ATOM     10  C   UNL     1      20.089  35.539   8.069  1.00  0.00     0.269 C 
ATOM     11  C   UNL     1      21.286  36.382   7.673  1.00  0.00     0.112 C 
ATOM     12  O   UNL     1      20.084  35.354   9.430  1.00  0.00    -0.332 OA
ATOM     13  C   UNL     1      22.367  36.246   8.722  1.00  0.00     0.145 C 
ATOM     14  C   UNL     1      21.835  36.935   9.973  1.00  0.00     0.142 C 
BRANCH  10  15
ATOM     15  O   UNL     1      20.179  34.261   7.485  1.00  0.00    -0.357 OA
ATOM     16  H   UNL     1      20.802  33.739   8.042  1.00  0.00     0.214 HD
ENDBRANCH  10  15
BRANCH  10  17
ATOM     17  C   UNL     1      18.817  36.146   7.657  1.00  0.00     0.364 C 
ATOM     18  O   UNL     1      17.735  35.633   7.985  1.00  0.00    -0.246 OA
BRANCH  17  19
ATOM     19  O   UNL     1      18.810  37.301   6.895  1.00  0.00    -0.477 OA
ATOM     20  H   UNL     1      19.608  37.561   6.346  1.00  0.00     0.296 HD
ENDBRANCH  17  19
ENDBRANCH  10  17
BRANCH  13  21
ATOM     21  O   UNL     1      22.621  34.931   9.077  1.00  0.00    -0.391 OA
ATOM     22  H   UNL     1      21.793  34.478   9.332  1.00  0.00     0.211 HD
ENDBRANCH  13  21
BRANCH  14  23
ATOM     23  N   UNL     1      21.888  38.356   9.779  1.00  0.00    -0.348 N 
ATOM     24  C   UNL     1      22.673  39.171  10.621  1.00  0.00     0.217 C 
ATOM     25  H   UNL     1      21.356  38.857   9.018  1.00  0.00     0.163 HD
ATOM     26  C   UNL     1      22.724  40.650  10.414  1.00  0.00     0.114 C 
ATOM     27  O   UNL     1      23.345  38.671  11.560  1.00  0.00    -0.275 OA
ENDBRANCH  14  23
ENDBRANCH   8   9
BRANCH   8  28
ATOM     28  O   UNL     1      21.230  36.740  12.356  1.00  0.00    -0.388 OA
ATOM     29  H   UNL     1      21.418  36.362  13.247  1.00  0.00     0.211 HD
ENDBRANCH   8  28
ENDBRANCH   7   8
BRANCH   7  30
ATOM     30  O   UNL     1      19.467  33.778  11.998  1.00  0.00    -0.388 OA
ATOM     31  H   UNL     1      18.758  34.401  12.297  1.00  0.00     0.211 HD
ENDBRANCH   7  30
ENDBRANCH   6   7
ENDBRANCH   3   6
ENDBRANCH   1   2
BRANCH   1  32
ATOM     32  C   UNL     1      25.882  36.097  11.934  1.00  0.00     0.294 C 
BRANCH  32  33
ATOM     33  C   UNL     1      25.835  36.093  10.475  1.00  0.00     0.120 A 
ATOM     34  C   UNL     1      25.763  37.200   9.666  1.00  0.00     0.138 A 
ATOM     35  N   UNL     1      25.853  35.003   9.694  1.00  0.00    -0.132 NA
ATOM     36  N   UNL     1      25.740  36.745   8.406  1.00  0.00    -0.249 N 
ATOM     37  N   UNL     1      25.795  35.435   8.445  1.00  0.00    -0.067 NA
BRANCH  36  38
ATOM     38  C   UNL     1      25.665  37.611   7.217  1.00  0.00     0.181 C 
BRANCH  38  39
ATOM     39  C   UNL     1      25.026  38.933   7.581  1.00  0.00     0.170 C 
BRANCH  39  40
ATOM     40  O   UNL     1      23.676  38.816   7.183  1.00  0.00    -0.388 OA
ATOM     41  H   UNL     1      23.410  37.889   7.036  1.00  0.00     0.211 HD
ENDBRANCH  39  40
BRANCH  39  42
ATOM     42  C   UNL     1      25.714  40.035   6.841  1.00  0.00     0.239 C 
BRANCH  42  43
ATOM     43  N   UNL     1      27.121  40.051   7.251  1.00  0.00    -0.227 N 
ATOM     44  C   UNL     1      27.587  40.273   8.502  1.00  0.00     0.204 A 
ATOM     45  C   UNL     1      28.137  39.833   6.435  1.00  0.00     0.434 A 
ATOM     46  C   UNL     1      28.941  40.189   8.452  1.00  0.00     0.245 A 
ATOM     47  N   UNL     1      29.269  39.920   7.189  1.00  0.00    -0.074 NA
BRANCH  45  48
ATOM     48  N   UNL     1      28.108  39.558   5.025  1.00  0.00    -0.047 N 
ATOM     49  O   UNL     1      27.909  38.425   4.559  1.00  0.00    -0.390 OA
ATOM     50  O   UNL     1      28.308  40.596   4.138  1.00  0.00    -0.390 OA
ENDBRANCH  45  48
ENDBRANCH  42  43
ENDBRANCH  39  42
ENDBRANCH  38  39
ENDBRANCH  36  38
ENDBRANCH  32  33
ENDBRANCH   1  32
TORSDOF 20
BEGIN_RES LYS A 131
REMARK  4 active torsions:
REMARK  status: ('A' for Active; 'I' for Inactive)
REMARK    1  A    between atoms: CA   and  CB  
REMARK    2  A    between atoms: CB   and  CG  
REMARK    3  A    between atoms: CG   and  CD  
REMARK    4  A    between atoms: CD   and  CE  
ROOT
ATOM      1  CA  LYS A 131      29.867  25.555  16.977  1.00 20.52     0.186 C 
ENDROOT
BRANCH   1   2
ATOM      2  CB  LYS A 131      28.345  25.722  17.026  1.00 20.94     0.034 C 
BRANCH   2   3
ATOM      3  CG  LYS A 131      27.599  24.477  16.572  1.00 22.96     0.005 C 
BRANCH   3   4
ATOM      4  CD  LYS A 131      27.031  23.703  17.729  1.00 24.33     0.041 C 
BRANCH   4   5
ATOM      5  CE  LYS A 131      25.543  24.010  17.865  1.00 26.91     0.338 C 
ATOM      6  NZ  LYS A 131      24.731  22.868  17.385  1.00 27.40     0.618 N 
ENDBRANCH   4   5
ENDBRANCH   3   4
ENDBRANCH   2   3
ENDBRANCH   1   2
END_RES LYS A 131
BEGIN_RES LYS A 135
REMARK  4 active torsions:
REMARK  status: ('A' for Active; 'I' for Inactive)
REMARK    5  A    between atoms: CA   and  CB  
REMARK    6  A    between atoms: CB   and  CG  
REMARK    7  A    between atoms: CG   and  CD  
REMARK    8  A    between atoms: CD   and  CE  
ROOT
ATOM      7  CA  LYS A 135      33.193  34.663   9.290  1.00 25.02     0.186 C 
ENDROOT
BRANCH   7   8
ATOM      8  CB  LYS A 135      32.060  35.360  10.034  1.00 26.63     0.034 C 
BRANCH   8   9
ATOM      9  CG  LYS A 135      30.697  34.799   9.718  1.00 29.45     0.005 C 
BRANCH   9  10
ATOM     10  CD  LYS A 135      30.595  34.434   8.245  1.00 32.00     0.041 C 
BRANCH  10  11
ATOM     11  CE  LYS A 135      29.443  35.173   7.592  1.00 34.25     0.338 C 
ATOM     12  NZ  LYS A 135      29.191  36.477   8.265  1.00 35.99     0.618 N 
ENDBRANCH  10  11
ENDBRANCH   9  10
ENDBRANCH   8   9
ENDBRANCH   7   8
END_RES LYS A 135
