REMARK VINA RESULT:    -5.293      3.673      6.830
REMARK INTER + INTRA:         -16.462
REMARK INTER:                 -11.485
REMARK INTRA:                  -4.977
REMARK UNBOUND:                -6.527
REMARK SMILES CC(=O)N[C@@H]1[C@@H](O)C[C@](O)(C(=O)O)O[C@H]1C(O)[C@H](O)CNC(=O)OCc1cn(-c2ccc(S(=O)(=O)c3ccc(N)cc3)cc2)nn1
REMARK SMILES IDX 21 1 22 2 23 3 20 5 18 6 16 7 15 8 9 9 8 10 14 11 6 12 5 13
REMARK SMILES IDX 10 14 11 16 12 17 13 18 7 20 4 22 2 23 1 25 3 26 17 27 19 29
REMARK SMILES IDX 24 31 25 32 26 33 27 34 46 35 28 36 45 37 29 38 30 39 44 40
REMARK SMILES IDX 31 41 43 42 32 43 33 44 34 45 35 46 36 47 37 48 42 49 38 50
REMARK SMILES IDX 41 51 39 52 40 53
REMARK H PARENT 21 4 10 15 13 19 7 21 4 24 17 28 19 30 40 54 40 55
REMARK Flexibility Score: inf
ROOT
ATOM      1  N   UNL     1      33.408  28.413  22.228  1.00  0.00    -0.319 N 
ATOM      2  C   UNL     1      34.379  28.474  23.256  1.00  0.00     0.407 C 
ATOM      3  O   UNL     1      34.293  27.726  24.235  1.00  0.00    -0.225 OA
ATOM      4  H   UNL     1      33.565  29.093  21.421  1.00  0.00     0.167 HD
ENDROOT
BRANCH   1   5
ATOM      5  C   UNL     1      32.270  27.524  22.208  1.00  0.00     0.154 C 
BRANCH   5   6
ATOM      6  C   UNL     1      31.399  27.864  21.048  1.00  0.00     0.165 C 
BRANCH   6   7
ATOM      7  C   UNL     1      29.923  27.794  21.377  1.00  0.00     0.176 C 
BRANCH   7   8
ATOM      8  C   UNL     1      29.122  28.954  20.890  1.00  0.00     0.178 C 
ATOM      9  C   UNL     1      28.870  30.179  18.940  1.00  0.00     0.269 C 
ATOM     10  C   UNL     1      28.113  31.214  19.712  1.00  0.00     0.112 C 
ATOM     11  O   UNL     1      28.866  28.931  19.538  1.00  0.00    -0.332 OA
ATOM     12  C   UNL     1      28.419  31.250  21.167  1.00  0.00     0.145 C 
ATOM     13  C   UNL     1      29.590  30.286  21.421  1.00  0.00     0.142 C 
BRANCH   9  14
ATOM     14  O   UNL     1      30.184  30.610  18.649  1.00  0.00    -0.357 OA
ATOM     15  H   UNL     1      30.714  29.835  18.397  1.00  0.00     0.214 HD
ENDBRANCH   9  14
BRANCH   9  16
ATOM     16  C   UNL     1      28.198  30.028  17.615  1.00  0.00     0.364 C 
ATOM     17  O   UNL     1      26.943  29.837  17.591  1.00  0.00    -0.246 OA
BRANCH  16  18
ATOM     18  O   UNL     1      28.852  30.083  16.411  1.00  0.00    -0.477 OA
ATOM     19  H   UNL     1      29.466  29.325  16.121  1.00  0.00     0.296 HD
ENDBRANCH  16  18
ENDBRANCH   9  16
BRANCH  12  20
ATOM     20  O   UNL     1      28.715  32.516  21.646  1.00  0.00    -0.391 OA
ATOM     21  H   UNL     1      27.860  33.046  21.728  1.00  0.00     0.211 HD
ENDBRANCH  12  20
BRANCH  13  22
ATOM     22  N   UNL     1      29.763  30.150  22.862  1.00  0.00    -0.348 N 
ATOM     23  C   UNL     1      30.968  30.573  23.476  1.00  0.00     0.217 C 
ATOM     24  H   UNL     1      29.024  29.746  23.476  1.00  0.00     0.163 HD
ATOM     25  C   UNL     1      31.179  30.444  24.961  1.00  0.00     0.114 C 
ATOM     26  O   UNL     1      31.916  31.071  22.832  1.00  0.00    -0.275 OA
ENDBRANCH  13  22
ENDBRANCH   7   8
BRANCH   7  27
ATOM     27  O   UNL     1      29.474  26.580  20.842  1.00  0.00    -0.388 OA
ATOM     28  H   UNL     1      30.125  26.290  20.168  1.00  0.00     0.211 HD
ENDBRANCH   7  27
ENDBRANCH   6   7
BRANCH   6  29
ATOM     29  O   UNL     1      31.743  27.120  19.928  1.00  0.00    -0.388 OA
ATOM     30  H   UNL     1      31.821  27.734  19.154  1.00  0.00     0.211 HD
ENDBRANCH   6  29
ENDBRANCH   5   6
ENDBRANCH   1   5
BRANCH   2  31
ATOM     31  O   UNL     1      35.456  29.355  23.224  1.00  0.00    -0.443 OA
BRANCH  31  32
ATOM     32  C   UNL     1      35.287  30.740  22.965  1.00  0.00     0.294 C 
BRANCH  32  33
ATOM     33  C   UNL     1      36.481  31.327  22.293  1.00  0.00     0.121 A 
ATOM     34  C   UNL     1      36.422  32.148  21.200  1.00  0.00     0.144 A 
ATOM     35  N   UNL     1      37.776  31.176  22.606  1.00  0.00    -0.131 NA
ATOM     36  N   UNL     1      37.691  32.483  20.868  1.00  0.00    -0.220 N 
ATOM     37  N   UNL     1      38.462  31.882  21.731  1.00  0.00    -0.062 NA
BRANCH  36  38
ATOM     38  C   UNL     1      38.013  33.329  19.776  1.00  0.00     0.066 A 
ATOM     39  C   UNL     1      38.756  32.847  18.721  1.00  0.00     0.030 A 
ATOM     40  C   UNL     1      37.608  34.645  19.718  1.00  0.00     0.030 A 
ATOM     41  C   UNL     1      39.092  33.638  17.635  1.00  0.00     0.023 A 
ATOM     42  C   UNL     1      37.942  35.453  18.626  1.00  0.00     0.023 A 
ATOM     43  C   UNL     1      38.684  34.949  17.586  1.00  0.00     0.072 A 
BRANCH  43  44
ATOM     44  S   UNL     1      39.104  35.936  16.230  1.00  0.00     0.206 S 
ATOM     45  O   UNL     1      40.567  36.221  16.242  1.00  0.00    -0.219 OA
ATOM     46  O   UNL     1      38.378  37.249  16.225  1.00  0.00    -0.219 OA
BRANCH  44  47
ATOM     47  C   UNL     1      38.632  35.069  14.772  1.00  0.00     0.072 A 
ATOM     48  C   UNL     1      39.508  35.021  13.720  1.00  0.00     0.023 A 
ATOM     49  C   UNL     1      37.398  34.436  14.670  1.00  0.00     0.023 A 
ATOM     50  C   UNL     1      39.177  34.348  12.550  1.00  0.00     0.027 A 
ATOM     51  C   UNL     1      37.036  33.756  13.518  1.00  0.00     0.027 A 
ATOM     52  C   UNL     1      37.943  33.732  12.484  1.00  0.00     0.031 A 
BRANCH  52  53
ATOM     53  N   UNL     1      37.594  33.044  11.300  1.00  0.00    -0.399 N 
ATOM     54  H   UNL     1      36.654  33.157  10.886  1.00  0.00     0.156 HD
ATOM     55  H   UNL     1      38.289  32.423  10.850  1.00  0.00     0.156 HD
ENDBRANCH  52  53
ENDBRANCH  44  47
ENDBRANCH  43  44
ENDBRANCH  36  38
ENDBRANCH  32  33
ENDBRANCH  31  32
ENDBRANCH   2  31
TORSDOF 18
BEGIN_RES LYS A 131
REMARK  4 active torsions:
REMARK  status: ('A' for Active; 'I' for Inactive)
REMARK    1  A    between atoms: CA   and  CB  
REMARK    2  A    between atoms: CB   and  CG  
REMARK    3  A    between atoms: CG   and  CD  
REMARK    4  A    between atoms: CD   and  CE  
ROOT
ATOM      1  CA  LYS A 131      29.867  25.555  16.977  1.00 20.52     0.186 C 
ENDROOT
BRANCH   1   2
ATOM      2  CB  LYS A 131      28.345  25.722  17.026  1.00 20.94     0.034 C 
BRANCH   2   3
ATOM      3  CG  LYS A 131      27.599  24.419  16.782  1.00 22.96     0.005 C 
BRANCH   3   4
ATOM      4  CD  LYS A 131      26.807  23.986  17.985  1.00 24.33     0.041 C 
BRANCH   4   5
ATOM      5  CE  LYS A 131      25.577  23.208  17.530  1.00 26.91     0.338 C 
ATOM      6  NZ  LYS A 131      24.338  23.923  17.920  1.00 27.40     0.618 N 
ENDBRANCH   4   5
ENDBRANCH   3   4
ENDBRANCH   2   3
ENDBRANCH   1   2
END_RES LYS A 131
BEGIN_RES LYS A 135
REMARK  4 active torsions:
REMARK  status: ('A' for Active; 'I' for Inactive)
REMARK    5  A    between atoms: CA   and  CB  
REMARK    6  A    between atoms: CB   and  CG  
REMARK    7  A    between atoms: CG   and  CD  
REMARK    8  A    between atoms: CD   and  CE  
ROOT
ATOM      7  CA  LYS A 135      33.193  34.663   9.290  1.00 25.02     0.186 C 
ENDROOT
BRANCH   7   8
ATOM      8  CB  LYS A 135      32.060  35.360  10.034  1.00 26.63     0.034 C 
BRANCH   8   9
ATOM      9  CG  LYS A 135      30.711  34.730   9.804  1.00 29.45     0.005 C 
BRANCH   9  10
ATOM     10  CD  LYS A 135      30.493  34.452   8.324  1.00 32.00     0.041 C 
BRANCH  10  11
ATOM     11  CE  LYS A 135      29.406  35.350   7.768  1.00 34.25     0.338 C 
ATOM     12  NZ  LYS A 135      28.055  34.769   8.006  1.00 35.99     0.618 N 
ENDBRANCH  10  11
ENDBRANCH   9  10
ENDBRANCH   8   9
ENDBRANCH   7   8
END_RES LYS A 135
