REMARK VINA RESULT:    -5.714      8.355     13.287
REMARK INTER + INTRA:         -14.438
REMARK INTER:                 -10.863
REMARK INTRA:                  -3.574
REMARK UNBOUND:                -4.548
REMARK SMILES CC(=O)N[C@@H]1[C@@H](O)C[C@](O)(C(=O)O)O[C@H]1C(O)[C@H](O)CNC(=O)OCc1cn(-c2ccc3c(c2)OCO3)nn1
REMARK SMILES IDX 20 1 18 2 16 3 15 4 9 5 8 6 14 7 6 8 5 9 10 10 11 12 12 13
REMARK SMILES IDX 13 14 7 16 4 18 2 19 1 21 3 22 17 23 19 25 21 27 22 28 23 30
REMARK SMILES IDX 24 31 25 32 26 33 27 34 39 35 28 36 38 37 29 38 30 39 34 40
REMARK SMILES IDX 31 41 33 42 32 43 35 44 37 45 36 46
REMARK H PARENT 10 11 13 15 7 17 4 20 17 24 19 26 21 29
REMARK Flexibility Score: inf
ROOT
ATOM      1  C   UNL     1      24.462  36.193  10.586  1.00  0.00     0.154 C 
ENDROOT
BRANCH   1   2
ATOM      2  C   UNL     1      25.801  36.051   9.942  1.00  0.00     0.165 C 
BRANCH   2   3
ATOM      3  C   UNL     1      25.933  36.992   8.733  1.00  0.00     0.176 C 
BRANCH   3   4
ATOM      4  C   UNL     1      27.083  36.513   7.924  1.00  0.00     0.178 C 
ATOM      5  C   UNL     1      29.253  35.815   7.959  1.00  0.00     0.269 C 
ATOM      6  C   UNL     1      28.915  35.582   6.502  1.00  0.00     0.112 C 
ATOM      7  O   UNL     1      28.179  36.200   8.722  1.00  0.00    -0.332 OA
ATOM      8  C   UNL     1      28.294  36.806   5.855  1.00  0.00     0.145 C 
ATOM      9  C   UNL     1      27.573  37.558   6.922  1.00  0.00     0.142 C 
BRANCH   5  10
ATOM     10  O   UNL     1      30.291  36.748   7.975  1.00  0.00    -0.357 OA
ATOM     11  H   UNL     1      31.110  36.238   8.219  1.00  0.00     0.214 HD
ENDBRANCH   5  10
BRANCH   5  12
ATOM     12  C   UNL     1      29.739  34.522   8.495  1.00  0.00     0.364 C 
ATOM     13  O   UNL     1      28.931  33.752   9.066  1.00  0.00    -0.246 OA
BRANCH  12  14
ATOM     14  O   UNL     1      31.059  34.118   8.394  1.00  0.00    -0.477 OA
ATOM     15  H   UNL     1      31.625  33.846   9.190  1.00  0.00     0.296 HD
ENDBRANCH  12  14
ENDBRANCH   5  12
BRANCH   8  16
ATOM     16  O   UNL     1      29.374  37.548   5.329  1.00  0.00    -0.391 OA
ATOM     17  H   UNL     1      29.237  37.739   4.383  1.00  0.00     0.211 HD
ENDBRANCH   8  16
BRANCH   9  18
ATOM     18  N   UNL     1      26.554  38.437   6.478  1.00  0.00    -0.348 N 
ATOM     19  C   UNL     1      26.719  39.779   6.041  1.00  0.00     0.217 C 
ATOM     20  H   UNL     1      25.576  38.074   6.465  1.00  0.00     0.163 HD
ATOM     21  C   UNL     1      25.572  40.623   5.591  1.00  0.00     0.114 C 
ATOM     22  O   UNL     1      27.881  40.243   6.046  1.00  0.00    -0.275 OA
ENDBRANCH   9  18
ENDBRANCH   3   4
BRANCH   3  23
ATOM     23  O   UNL     1      24.750  36.953   8.047  1.00  0.00    -0.388 OA
ATOM     24  H   UNL     1      23.960  37.308   8.468  1.00  0.00     0.211 HD
ENDBRANCH   3  23
ENDBRANCH   2   3
BRANCH   2  25
ATOM     25  O   UNL     1      26.028  34.773   9.507  1.00  0.00    -0.388 OA
ATOM     26  H   UNL     1      26.562  34.195  10.093  1.00  0.00     0.211 HD
ENDBRANCH   2  25
ENDBRANCH   1   2
BRANCH   1  27
ATOM     27  N   UNL     1      24.225  35.188  11.562  1.00  0.00    -0.319 N 
ATOM     28  C   UNL     1      24.560  35.328  12.919  1.00  0.00     0.407 C 
ATOM     29  H   UNL     1      23.771  34.265  11.286  1.00  0.00     0.167 HD
ATOM     30  O   UNL     1      25.106  36.322  13.424  1.00  0.00    -0.225 OA
BRANCH  28  31
ATOM     31  O   UNL     1      24.266  34.271  13.799  1.00  0.00    -0.443 OA
BRANCH  31  32
ATOM     32  C   UNL     1      25.086  33.142  13.811  1.00  0.00     0.294 C 
BRANCH  32  33
ATOM     33  C   UNL     1      24.289  31.958  13.399  1.00  0.00     0.121 A 
ATOM     34  C   UNL     1      22.935  31.944  13.082  1.00  0.00     0.144 A 
ATOM     35  N   UNL     1      24.695  30.685  13.247  1.00  0.00    -0.131 NA
ATOM     36  N   UNL     1      22.562  30.694  12.755  1.00  0.00    -0.220 N 
ATOM     37  N   UNL     1      23.657  29.964  12.867  1.00  0.00    -0.062 NA
BRANCH  36  38
ATOM     38  C   UNL     1      21.255  30.284  12.372  1.00  0.00     0.070 A 
ATOM     39  C   UNL     1      20.231  31.204  12.275  1.00  0.00     0.032 A 
ATOM     40  C   UNL     1      20.942  28.971  12.084  1.00  0.00     0.079 A 
ATOM     41  C   UNL     1      18.943  30.823  11.902  1.00  0.00     0.053 A 
ATOM     42  C   UNL     1      19.662  28.567  11.709  1.00  0.00     0.167 A 
ATOM     43  C   UNL     1      18.657  29.505  11.619  1.00  0.00     0.165 A 
ATOM     44  O   UNL     1      19.106  27.335  11.374  1.00  0.00    -0.454 OA
ATOM     45  O   UNL     1      17.498  28.814  11.226  1.00  0.00    -0.454 OA
ATOM     46  C   UNL     1      17.697  27.420  11.488  1.00  0.00     0.468 C 
ENDBRANCH  36  38
ENDBRANCH  32  33
ENDBRANCH  31  32
ENDBRANCH  28  31
ENDBRANCH   1  27
TORSDOF 15
BEGIN_RES LYS A 131
REMARK  4 active torsions:
REMARK  status: ('A' for Active; 'I' for Inactive)
REMARK    1  A    between atoms: CA   and  CB  
REMARK    2  A    between atoms: CB   and  CG  
REMARK    3  A    between atoms: CG   and  CD  
REMARK    4  A    between atoms: CD   and  CE  
ROOT
ATOM      1  CA  LYS A 131      29.867  25.555  16.977  1.00 20.52     0.186 C 
ENDROOT
BRANCH   1   2
ATOM      2  CB  LYS A 131      28.345  25.722  17.026  1.00 20.94     0.034 C 
BRANCH   2   3
ATOM      3  CG  LYS A 131      27.602  24.400  16.915  1.00 22.96     0.005 C 
BRANCH   3   4
ATOM      4  CD  LYS A 131      26.189  24.500  17.419  1.00 24.33     0.041 C 
BRANCH   4   5
ATOM      5  CE  LYS A 131      25.878  23.300  18.307  1.00 26.91     0.338 C 
ATOM      6  NZ  LYS A 131      25.422  23.747  19.644  1.00 27.40     0.618 N 
ENDBRANCH   4   5
ENDBRANCH   3   4
ENDBRANCH   2   3
ENDBRANCH   1   2
END_RES LYS A 131
BEGIN_RES LYS A 135
REMARK  4 active torsions:
REMARK  status: ('A' for Active; 'I' for Inactive)
REMARK    5  A    between atoms: CA   and  CB  
REMARK    6  A    between atoms: CB   and  CG  
REMARK    7  A    between atoms: CG   and  CD  
REMARK    8  A    between atoms: CD   and  CE  
ROOT
ATOM      7  CA  LYS A 135      33.193  34.663   9.290  1.00 25.02     0.186 C 
ENDROOT
BRANCH   7   8
ATOM      8  CB  LYS A 135      32.060  35.360  10.034  1.00 26.63     0.034 C 
BRANCH   8   9
ATOM      9  CG  LYS A 135      32.519  36.135  11.242  1.00 29.45     0.005 C 
BRANCH   9  10
ATOM     10  CD  LYS A 135      31.519  35.999  12.379  1.00 32.00     0.041 C 
BRANCH  10  11
ATOM     11  CE  LYS A 135      30.145  35.650  11.841  1.00 34.25     0.338 C 
ATOM     12  NZ  LYS A 135      29.218  36.812  11.943  1.00 35.99     0.618 N 
ENDBRANCH  10  11
ENDBRANCH   9  10
ENDBRANCH   8   9
ENDBRANCH   7   8
END_RES LYS A 135
