REMARK VINA RESULT:    -5.487      5.821      9.841
REMARK INTER + INTRA:         -14.523
REMARK INTER:                  -8.313
REMARK INTRA:                  -6.210
REMARK UNBOUND:                -5.026
REMARK SMILES CC(=O)N[C@@H]1[C@@H](O)C[C@](O)(C(=O)O)O[C@H]1C(O)[C@H](O)CNC(=O)OCc1cn(C2CCCC2)nn1
REMARK SMILES IDX 20 1 18 2 16 3 15 4 9 5 8 6 14 7 6 8 5 9 10 10 11 12 12 13
REMARK SMILES IDX 13 14 7 16 4 18 2 19 1 21 3 22 17 23 19 25 21 27 22 28 23 30
REMARK SMILES IDX 24 31 25 32 26 33 27 34 35 35 28 36 34 37 29 38 30 39 33 40
REMARK SMILES IDX 31 41 32 42
REMARK H PARENT 10 11 13 15 7 17 4 20 17 24 19 26 21 29
REMARK Flexibility Score: inf
ROOT
ATOM      1  C   UNL     1      24.653  40.811  10.727  1.00  0.00     0.154 C 
ENDROOT
BRANCH   1   2
ATOM      2  C   UNL     1      23.484  40.102  10.103  1.00  0.00     0.165 C 
BRANCH   2   3
ATOM      3  C   UNL     1      23.191  38.904  10.986  1.00  0.00     0.176 C 
BRANCH   3   4
ATOM      4  C   UNL     1      23.411  37.604  10.280  1.00  0.00     0.178 C 
ATOM      5  C   UNL     1      22.269  36.018   9.033  1.00  0.00     0.269 C 
ATOM      6  C   UNL     1      23.648  35.378   9.066  1.00  0.00     0.112 C 
ATOM      7  O   UNL     1      22.209  36.977  10.047  1.00  0.00    -0.332 OA
ATOM      8  C   UNL     1      24.049  35.271  10.523  1.00  0.00     0.145 C 
ATOM      9  C   UNL     1      24.369  36.686  10.987  1.00  0.00     0.142 C 
BRANCH   5  10
ATOM     10  O   UNL     1      21.353  34.999   9.261  1.00  0.00    -0.357 OA
ATOM     11  H   UNL     1      21.882  34.148   9.362  1.00  0.00     0.214 HD
ENDBRANCH   5  10
BRANCH   5  12
ATOM     12  C   UNL     1      21.979  36.638   7.735  1.00  0.00     0.364 C 
ATOM     13  O   UNL     1      22.829  37.346   7.140  1.00  0.00    -0.246 OA
BRANCH  12  14
ATOM     14  O   UNL     1      20.749  36.459   7.124  1.00  0.00    -0.477 OA
ATOM     15  H   UNL     1      20.521  36.878   6.213  1.00  0.00     0.296 HD
ENDBRANCH  12  14
ENDBRANCH   5  12
BRANCH   8  16
ATOM     16  O   UNL     1      22.926  34.793  11.219  1.00  0.00    -0.391 OA
ATOM     17  H   UNL     1      22.508  35.576  11.664  1.00  0.00     0.211 HD
ENDBRANCH   8  16
BRANCH   9  18
ATOM     18  N   UNL     1      25.750  36.980  10.662  1.00  0.00    -0.348 N 
ATOM     19  C   UNL     1      26.720  37.123  11.679  1.00  0.00     0.217 C 
ATOM     20  H   UNL     1      26.039  37.087   9.674  1.00  0.00     0.163 HD
ATOM     21  C   UNL     1      28.149  37.423  11.418  1.00  0.00     0.114 C 
ATOM     22  O   UNL     1      26.353  36.990  12.868  1.00  0.00    -0.275 OA
ENDBRANCH   9  18
ENDBRANCH   3   4
BRANCH   3  23
ATOM     23  O   UNL     1      24.089  38.970  12.053  1.00  0.00    -0.388 OA
ATOM     24  H   UNL     1      24.373  38.094  12.382  1.00  0.00     0.211 HD
ENDBRANCH   3  23
ENDBRANCH   2   3
BRANCH   2  25
ATOM     25  O   UNL     1      23.755  39.682   8.822  1.00  0.00    -0.388 OA
ATOM     26  H   UNL     1      24.681  39.953   8.577  1.00  0.00     0.211 HD
ENDBRANCH   2  25
ENDBRANCH   1   2
BRANCH   1  27
ATOM     27  N   UNL     1      25.945  40.389  10.288  1.00  0.00    -0.319 N 
ATOM     28  C   UNL     1      26.859  41.153   9.554  1.00  0.00     0.407 C 
ATOM     29  H   UNL     1      26.230  39.393  10.552  1.00  0.00     0.167 HD
ATOM     30  O   UNL     1      26.571  42.323   9.213  1.00  0.00    -0.225 OA
BRANCH  28  31
ATOM     31  O   UNL     1      28.108  40.615   9.193  1.00  0.00    -0.443 OA
BRANCH  31  32
ATOM     32  C   UNL     1      28.248  40.132   7.869  1.00  0.00     0.294 C 
BRANCH  32  33
ATOM     33  C   UNL     1      27.672  38.771   7.808  1.00  0.00     0.120 A 
ATOM     34  C   UNL     1      28.434  37.617   7.691  1.00  0.00     0.138 A 
ATOM     35  N   UNL     1      26.407  38.370   7.846  1.00  0.00    -0.132 NA
ATOM     36  N   UNL     1      27.598  36.580   7.665  1.00  0.00    -0.249 N 
ATOM     37  N   UNL     1      26.369  37.050   7.759  1.00  0.00    -0.067 NA
BRANCH  36  38
ATOM     38  C   UNL     1      28.033  35.192   7.549  1.00  0.00     0.109 C 
ATOM     39  C   UNL     1      29.425  35.104   8.106  1.00  0.00     0.027 C 
ATOM     40  C   UNL     1      27.148  34.329   8.420  1.00  0.00     0.027 C 
ATOM     41  C   UNL     1      29.391  34.074   9.189  1.00  0.00     0.002 C 
ATOM     42  C   UNL     1      27.968  34.107   9.679  1.00  0.00     0.002 C 
ENDBRANCH  36  38
ENDBRANCH  32  33
ENDBRANCH  31  32
ENDBRANCH  28  31
ENDBRANCH   1  27
TORSDOF 15
BEGIN_RES LYS A 131
REMARK  4 active torsions:
REMARK  status: ('A' for Active; 'I' for Inactive)
REMARK    1  A    between atoms: CA   and  CB  
REMARK    2  A    between atoms: CB   and  CG  
REMARK    3  A    between atoms: CG   and  CD  
REMARK    4  A    between atoms: CD   and  CE  
ROOT
ATOM      1  CA  LYS A 131      29.867  25.555  16.977  1.00 20.52     0.186 C 
ENDROOT
BRANCH   1   2
ATOM      2  CB  LYS A 131      28.345  25.722  17.026  1.00 20.94     0.034 C 
BRANCH   2   3
ATOM      3  CG  LYS A 131      27.601  24.402  16.890  1.00 22.96     0.005 C 
BRANCH   3   4
ATOM      4  CD  LYS A 131      26.149  24.530  17.260  1.00 24.33     0.041 C 
BRANCH   4   5
ATOM      5  CE  LYS A 131      26.007  24.518  18.778  1.00 26.91     0.338 C 
ATOM      6  NZ  LYS A 131      25.536  23.192  19.245  1.00 27.40     0.618 N 
ENDBRANCH   4   5
ENDBRANCH   3   4
ENDBRANCH   2   3
ENDBRANCH   1   2
END_RES LYS A 131
BEGIN_RES LYS A 135
REMARK  4 active torsions:
REMARK  status: ('A' for Active; 'I' for Inactive)
REMARK    5  A    between atoms: CA   and  CB  
REMARK    6  A    between atoms: CB   and  CG  
REMARK    7  A    between atoms: CG   and  CD  
REMARK    8  A    between atoms: CD   and  CE  
ROOT
ATOM      7  CA  LYS A 135      33.193  34.663   9.290  1.00 25.02     0.186 C 
ENDROOT
BRANCH   7   8
ATOM      8  CB  LYS A 135      32.060  35.360  10.034  1.00 26.63     0.034 C 
BRANCH   8   9
ATOM      9  CG  LYS A 135      32.506  36.059  11.293  1.00 29.45     0.005 C 
BRANCH   9  10
ATOM     10  CD  LYS A 135      31.909  37.455  11.371  1.00 32.00     0.041 C 
BRANCH  10  11
ATOM     11  CE  LYS A 135      31.502  37.939   9.993  1.00 34.25     0.338 C 
ATOM     12  NZ  LYS A 135      31.228  39.403   9.997  1.00 35.99     0.618 N 
ENDBRANCH  10  11
ENDBRANCH   9  10
ENDBRANCH   8   9
ENDBRANCH   7   8
END_RES LYS A 135
