REMARK VINA RESULT:    -5.592      4.919      9.221
REMARK INTER + INTRA:         -15.822
REMARK INTER:                  -9.648
REMARK INTRA:                  -6.174
REMARK UNBOUND:                -5.490
REMARK SMILES CC(=O)N[C@@H]1[C@@H](O)C[C@](O)(C(=O)O)O[C@H]1C(O)[C@H](O)CNC(=O)OCc1cn(C(c2ccccc2)c2ccccc2)nn1
REMARK SMILES IDX 21 1 22 2 23 3 20 5 18 6 16 7 15 8 9 9 8 10 14 11 6 12 5 13
REMARK SMILES IDX 10 14 11 16 12 17 13 18 7 20 4 22 2 23 1 25 3 26 17 27 19 29
REMARK SMILES IDX 24 31 25 32 26 33 27 34 43 35 28 36 42 37 29 38 30 39 31 40
REMARK SMILES IDX 35 41 32 42 34 43 33 44 36 45 37 46 41 47 38 48 40 49 39 50
REMARK H PARENT 21 4 10 15 13 19 7 21 4 24 17 28 19 30
REMARK Flexibility Score: inf
ROOT
ATOM      1  N   UNL     1      25.314  39.349   6.781  1.00  0.00    -0.319 N 
ATOM      2  C   UNL     1      24.083  39.968   7.087  1.00  0.00     0.407 C 
ATOM      3  O   UNL     1      23.903  41.180   6.822  1.00  0.00    -0.225 OA
ATOM      4  H   UNL     1      25.433  38.343   7.016  1.00  0.00     0.167 HD
ENDROOT
BRANCH   1   5
ATOM      5  C   UNL     1      26.382  40.070   6.163  1.00  0.00     0.154 C 
BRANCH   5   6
ATOM      6  C   UNL     1      27.177  39.109   5.278  1.00  0.00     0.165 C 
BRANCH   6   7
ATOM      7  C   UNL     1      27.539  37.936   6.174  1.00  0.00     0.176 C 
BRANCH   7   8
ATOM      8  C   UNL     1      28.968  37.916   6.640  1.00  0.00     0.178 C 
ATOM      9  C   UNL     1      28.933  36.015   8.030  1.00  0.00     0.269 C 
ATOM     10  C   UNL     1      29.053  36.880   9.266  1.00  0.00     0.112 C 
ATOM     11  O   UNL     1      29.299  36.594   6.863  1.00  0.00    -0.332 OA
ATOM     12  C   UNL     1      28.560  38.279   9.050  1.00  0.00     0.145 C 
ATOM     13  C   UNL     1      29.211  38.796   7.802  1.00  0.00     0.142 C 
BRANCH   9  14
ATOM     14  O   UNL     1      27.583  35.667   7.948  1.00  0.00    -0.357 OA
ATOM     15  H   UNL     1      27.283  35.468   8.880  1.00  0.00     0.214 HD
ENDBRANCH   9  14
BRANCH   9  16
ATOM     16  C   UNL     1      29.688  34.733   8.278  1.00  0.00     0.364 C 
ATOM     17  O   UNL     1      29.209  33.822   8.960  1.00  0.00    -0.246 OA
BRANCH  16  18
ATOM     18  O   UNL     1      30.938  34.598   7.721  1.00  0.00    -0.477 OA
ATOM     19  H   UNL     1      31.712  34.267   8.308  1.00  0.00     0.296 HD
ENDBRANCH  16  18
ENDBRANCH   9  16
BRANCH  12  20
ATOM     20  O   UNL     1      27.195  38.260   9.017  1.00  0.00    -0.391 OA
ATOM     21  H   UNL     1      26.837  38.855   8.302  1.00  0.00     0.211 HD
ENDBRANCH  12  20
BRANCH  13  22
ATOM     22  N   UNL     1      30.655  38.908   8.089  1.00  0.00    -0.348 N 
ATOM     23  C   UNL     1      31.297  40.151   8.223  1.00  0.00     0.217 C 
ATOM     24  H   UNL     1      31.202  38.027   8.189  1.00  0.00     0.163 HD
ATOM     25  C   UNL     1      32.754  40.219   8.512  1.00  0.00     0.114 C 
ATOM     26  O   UNL     1      30.647  41.225   8.101  1.00  0.00    -0.275 OA
ENDBRANCH  13  22
ENDBRANCH   7   8
BRANCH   7  27
ATOM     27  O   UNL     1      27.346  36.779   5.333  1.00  0.00    -0.388 OA
ATOM     28  H   UNL     1      26.649  36.206   5.689  1.00  0.00     0.211 HD
ENDBRANCH   7  27
ENDBRANCH   6   7
BRANCH   6  29
ATOM     29  O   UNL     1      28.292  39.826   4.870  1.00  0.00    -0.388 OA
ATOM     30  H   UNL     1      28.124  40.784   4.776  1.00  0.00     0.211 HD
ENDBRANCH   6  29
ENDBRANCH   5   6
ENDBRANCH   1   5
BRANCH   2  31
ATOM     31  O   UNL     1      23.040  39.270   7.684  1.00  0.00    -0.443 OA
BRANCH  31  32
ATOM     32  C   UNL     1      22.970  37.880   7.515  1.00  0.00     0.294 C 
BRANCH  32  33
ATOM     33  C   UNL     1      23.822  37.225   8.541  1.00  0.00     0.120 A 
ATOM     34  C   UNL     1      23.663  37.357   9.923  1.00  0.00     0.139 A 
ATOM     35  N   UNL     1      24.880  36.408   8.406  1.00  0.00    -0.132 NA
ATOM     36  N   UNL     1      24.603  36.636  10.538  1.00  0.00    -0.240 N 
ATOM     37  N   UNL     1      25.328  36.071   9.610  1.00  0.00    -0.066 NA
BRANCH  36  38
ATOM     38  C   UNL     1      24.818  36.481  11.970  1.00  0.00     0.169 C 
BRANCH  38  39
ATOM     39  C   UNL     1      23.889  35.512  12.552  1.00  0.00    -0.019 A 
ATOM     40  C   UNL     1      23.398  34.422  11.824  1.00  0.00     0.006 A 
ATOM     41  C   UNL     1      23.485  35.647  13.866  1.00  0.00     0.006 A 
ATOM     42  C   UNL     1      22.537  33.516  12.404  1.00  0.00     0.000 A 
ATOM     43  C   UNL     1      22.622  34.725  14.423  1.00  0.00     0.000 A 
ATOM     44  C   UNL     1      22.130  33.647  13.716  1.00  0.00     0.000 A 
ENDBRANCH  38  39
BRANCH  38  45
ATOM     45  C   UNL     1      26.229  36.330  12.336  1.00  0.00    -0.019 A 
ATOM     46  C   UNL     1      26.803  35.051  12.448  1.00  0.00     0.006 A 
ATOM     47  C   UNL     1      27.015  37.433  12.568  1.00  0.00     0.006 A 
ATOM     48  C   UNL     1      28.124  34.905  12.782  1.00  0.00     0.000 A 
ATOM     49  C   UNL     1      28.362  37.271  12.910  1.00  0.00     0.000 A 
ATOM     50  C   UNL     1      28.908  36.014  13.015  1.00  0.00     0.000 A 
ENDBRANCH  38  45
ENDBRANCH  36  38
ENDBRANCH  32  33
ENDBRANCH  31  32
ENDBRANCH   2  31
TORSDOF 17
BEGIN_RES LYS A 131
REMARK  4 active torsions:
REMARK  status: ('A' for Active; 'I' for Inactive)
REMARK    1  A    between atoms: CA   and  CB  
REMARK    2  A    between atoms: CB   and  CG  
REMARK    3  A    between atoms: CG   and  CD  
REMARK    4  A    between atoms: CD   and  CE  
ROOT
ATOM      1  CA  LYS A 131      29.867  25.555  16.977  1.00 20.52     0.186 C 
ENDROOT
BRANCH   1   2
ATOM      2  CB  LYS A 131      28.345  25.722  17.026  1.00 20.94     0.034 C 
BRANCH   2   3
ATOM      3  CG  LYS A 131      27.599  24.461  16.618  1.00 22.96     0.005 C 
BRANCH   3   4
ATOM      4  CD  LYS A 131      27.021  23.737  17.803  1.00 24.33     0.041 C 
BRANCH   4   5
ATOM      5  CE  LYS A 131      25.570  23.365  17.514  1.00 26.91     0.338 C 
ATOM      6  NZ  LYS A 131      24.805  24.558  17.081  1.00 27.40     0.618 N 
ENDBRANCH   4   5
ENDBRANCH   3   4
ENDBRANCH   2   3
ENDBRANCH   1   2
END_RES LYS A 131
BEGIN_RES LYS A 135
REMARK  4 active torsions:
REMARK  status: ('A' for Active; 'I' for Inactive)
REMARK    5  A    between atoms: CA   and  CB  
REMARK    6  A    between atoms: CB   and  CG  
REMARK    7  A    between atoms: CG   and  CD  
REMARK    8  A    between atoms: CD   and  CE  
ROOT
ATOM      7  CA  LYS A 135      33.193  34.663   9.290  1.00 25.02     0.186 C 
ENDROOT
BRANCH   7   8
ATOM      8  CB  LYS A 135      32.060  35.360  10.034  1.00 26.63     0.034 C 
BRANCH   8   9
ATOM      9  CG  LYS A 135      32.171  35.257  11.533  1.00 29.45     0.005 C 
BRANCH   9  10
ATOM     10  CD  LYS A 135      32.333  36.635  12.155  1.00 32.00     0.041 C 
BRANCH  10  11
ATOM     11  CE  LYS A 135      32.005  37.718  11.145  1.00 34.25     0.338 C 
ATOM     12  NZ  LYS A 135      31.437  38.921  11.814  1.00 35.99     0.618 N 
ENDBRANCH  10  11
ENDBRANCH   9  10
ENDBRANCH   8   9
ENDBRANCH   7   8
END_RES LYS A 135
