REMARK VINA RESULT:    -4.232      4.006      9.088
REMARK INTER + INTRA:         -14.111
REMARK INTER:                  -7.418
REMARK INTRA:                  -6.694
REMARK UNBOUND:                -6.292
REMARK SMILES CC(=O)N[C@@H]1[C@@H](O)C[C@](O)(C(=O)O)O[C@H]1C(O)[C@H](O)CNC(=O)OCc1cn(CCC2OCCO2)nn1
REMARK SMILES IDX 21 1 22 2 23 3 20 5 18 6 16 7 15 8 9 9 8 10 14 11 6 12 5 13
REMARK SMILES IDX 10 14 11 16 12 17 13 18 7 20 4 22 2 23 1 25 3 26 17 27 19 29
REMARK SMILES IDX 24 31 25 32 26 33 27 34 37 35 28 36 36 37 29 38 30 39 31 40
REMARK SMILES IDX 32 41 35 42 33 43 34 44
REMARK H PARENT 21 4 10 15 13 19 7 21 4 24 17 28 19 30
REMARK Flexibility Score: inf
ROOT
ATOM      1  N   UNL     1      21.864  38.968   7.900  1.00  0.00    -0.319 N 
ATOM      2  C   UNL     1      20.864  38.640   8.847  1.00  0.00     0.407 C 
ATOM      3  O   UNL     1      20.883  39.208   9.992  1.00  0.00    -0.225 OA
ATOM      4  H   UNL     1      21.857  38.516   6.971  1.00  0.00     0.167 HD
ENDROOT
BRANCH   1   5
ATOM      5  C   UNL     1      22.869  39.921   8.236  1.00  0.00     0.154 C 
BRANCH   5   6
ATOM      6  C   UNL     1      24.209  39.307   8.537  1.00  0.00     0.165 C 
BRANCH   6   7
ATOM      7  C   UNL     1      24.788  38.561   7.373  1.00  0.00     0.176 C 
BRANCH   7   8
ATOM      8  C   UNL     1      26.217  38.990   7.125  1.00  0.00     0.178 C 
ATOM      9  C   UNL     1      27.563  39.800   5.410  1.00  0.00     0.269 C 
ATOM     10  C   UNL     1      28.661  38.898   5.897  1.00  0.00     0.112 C 
ATOM     11  O   UNL     1      26.308  39.463   5.842  1.00  0.00    -0.332 OA
ATOM     12  C   UNL     1      28.039  37.556   6.219  1.00  0.00     0.145 C 
ATOM     13  C   UNL     1      27.097  37.779   7.395  1.00  0.00     0.142 C 
BRANCH   9  14
ATOM     14  O   UNL     1      27.545  39.702   3.999  1.00  0.00    -0.357 OA
ATOM     15  H   UNL     1      26.676  39.949   3.629  1.00  0.00     0.214 HD
ENDBRANCH   9  14
BRANCH   9  16
ATOM     16  C   UNL     1      27.908  41.229   5.694  1.00  0.00     0.364 C 
ATOM     17  O   UNL     1      27.248  42.205   5.274  1.00  0.00    -0.246 OA
BRANCH  16  18
ATOM     18  O   UNL     1      29.034  41.464   6.472  1.00  0.00    -0.477 OA
ATOM     19  H   UNL     1      29.182  42.307   7.017  1.00  0.00     0.296 HD
ENDBRANCH  16  18
ENDBRANCH   9  16
BRANCH  12  20
ATOM     20  O   UNL     1      27.277  37.147   5.114  1.00  0.00    -0.391 OA
ATOM     21  H   UNL     1      27.073  36.183   5.139  1.00  0.00     0.211 HD
ENDBRANCH  12  20
BRANCH  13  22
ATOM     22  N   UNL     1      27.904  37.963   8.591  1.00  0.00    -0.348 N 
ATOM     23  C   UNL     1      27.477  37.376   9.809  1.00  0.00     0.217 C 
ATOM     24  H   UNL     1      28.801  38.528   8.562  1.00  0.00     0.163 HD
ATOM     25  C   UNL     1      28.229  37.507  11.083  1.00  0.00     0.114 C 
ATOM     26  O   UNL     1      26.402  36.709   9.798  1.00  0.00    -0.275 OA
ENDBRANCH  13  22
ENDBRANCH   7   8
BRANCH   7  27
ATOM     27  O   UNL     1      24.667  37.182   7.545  1.00  0.00    -0.388 OA
ATOM     28  H   UNL     1      25.487  36.684   7.341  1.00  0.00     0.211 HD
ENDBRANCH   7  27
ENDBRANCH   6   7
BRANCH   6  29
ATOM     29  O   UNL     1      24.080  38.451   9.621  1.00  0.00    -0.388 OA
ATOM     30  H   UNL     1      23.354  37.807   9.533  1.00  0.00     0.211 HD
ENDBRANCH   6  29
ENDBRANCH   5   6
ENDBRANCH   1   5
BRANCH   2  31
ATOM     31  O   UNL     1      19.856  37.744   8.632  1.00  0.00    -0.443 OA
BRANCH  31  32
ATOM     32  C   UNL     1      19.978  36.335   8.638  1.00  0.00     0.294 C 
BRANCH  32  33
ATOM     33  C   UNL     1      21.230  35.879   9.287  1.00  0.00     0.120 A 
ATOM     34  C   UNL     1      21.373  35.454  10.587  1.00  0.00     0.138 A 
ATOM     35  N   UNL     1      22.451  35.798   8.735  1.00  0.00    -0.132 NA
ATOM     36  N   UNL     1      22.668  35.129  10.787  1.00  0.00    -0.252 N 
ATOM     37  N   UNL     1      23.299  35.347   9.648  1.00  0.00    -0.067 NA
BRANCH  36  38
ATOM     38  C   UNL     1      23.304  34.625  11.998  1.00  0.00     0.151 C 
BRANCH  38  39
ATOM     39  C   UNL     1      24.805  34.550  11.818  1.00  0.00     0.086 C 
BRANCH  39  40
ATOM     40  C   UNL     1      25.515  34.683  13.122  1.00  0.00     0.251 C 
ATOM     41  O   UNL     1      26.879  34.915  13.007  1.00  0.00    -0.350 OA
ATOM     42  O   UNL     1      25.366  33.593  13.966  1.00  0.00    -0.350 OA
ATOM     43  C   UNL     1      27.449  34.508  14.211  1.00  0.00     0.192 C 
ATOM     44  C   UNL     1      26.455  33.552  14.803  1.00  0.00     0.192 C 
ENDBRANCH  39  40
ENDBRANCH  38  39
ENDBRANCH  36  38
ENDBRANCH  32  33
ENDBRANCH  31  32
ENDBRANCH   2  31
TORSDOF 17
BEGIN_RES LYS A 131
REMARK  4 active torsions:
REMARK  status: ('A' for Active; 'I' for Inactive)
REMARK    1  A    between atoms: CA   and  CB  
REMARK    2  A    between atoms: CB   and  CG  
REMARK    3  A    between atoms: CG   and  CD  
REMARK    4  A    between atoms: CD   and  CE  
ROOT
ATOM      1  CA  LYS A 131      29.867  25.555  16.977  1.00 20.52     0.186 C 
ENDROOT
BRANCH   1   2
ATOM      2  CB  LYS A 131      28.345  25.722  17.026  1.00 20.94     0.034 C 
BRANCH   2   3
ATOM      3  CG  LYS A 131      27.601  24.405  16.868  1.00 22.96     0.005 C 
BRANCH   3   4
ATOM      4  CD  LYS A 131      26.204  24.474  17.422  1.00 24.33     0.041 C 
BRANCH   4   5
ATOM      5  CE  LYS A 131      26.165  25.462  18.583  1.00 26.91     0.338 C 
ATOM      6  NZ  LYS A 131      25.500  24.854  19.759  1.00 27.40     0.618 N 
ENDBRANCH   4   5
ENDBRANCH   3   4
ENDBRANCH   2   3
ENDBRANCH   1   2
END_RES LYS A 131
BEGIN_RES LYS A 135
REMARK  4 active torsions:
REMARK  status: ('A' for Active; 'I' for Inactive)
REMARK    5  A    between atoms: CA   and  CB  
REMARK    6  A    between atoms: CB   and  CG  
REMARK    7  A    between atoms: CG   and  CD  
REMARK    8  A    between atoms: CD   and  CE  
ROOT
ATOM      7  CA  LYS A 135      33.193  34.663   9.290  1.00 25.02     0.186 C 
ENDROOT
BRANCH   7   8
ATOM      8  CB  LYS A 135      32.060  35.360  10.034  1.00 26.63     0.034 C 
BRANCH   8   9
ATOM      9  CG  LYS A 135      30.800  35.500   9.219  1.00 29.45     0.005 C 
BRANCH   9  10
ATOM     10  CD  LYS A 135      30.178  34.138   8.954  1.00 32.00     0.041 C 
BRANCH  10  11
ATOM     11  CE  LYS A 135      28.710  34.283   8.600  1.00 34.25     0.338 C 
ATOM     12  NZ  LYS A 135      27.844  33.634   9.623  1.00 35.99     0.618 N 
ENDBRANCH  10  11
ENDBRANCH   9  10
ENDBRANCH   8   9
ENDBRANCH   7   8
END_RES LYS A 135
