REMARK VINA RESULT:    -5.339      4.598      8.100
REMARK INTER + INTRA:         -14.301
REMARK INTER:                  -9.236
REMARK INTRA:                  -5.065
REMARK UNBOUND:                -4.749
REMARK SMILES CC(=O)N[C@@H]1[C@@H](O)C[C@](O)(C(=O)O)O[C@H]1C(O)[C@H](O)CNC(=O)OCc1cn(-c2ccc([N+](=O)[O-])cc2)nn1
REMARK SMILES IDX 21 1 22 2 23 3 20 5 18 6 16 7 15 8 9 9 8 10 14 11 6 12 5 13
REMARK SMILES IDX 10 14 11 16 12 17 13 18 7 20 4 22 2 23 1 25 3 26 17 27 19 29
REMARK SMILES IDX 24 31 25 32 26 33 27 34 39 35 28 36 38 37 29 38 30 39 37 40
REMARK SMILES IDX 31 41 36 42 32 43 33 44 34 45 35 46
REMARK H PARENT 21 4 10 15 13 19 7 21 4 24 17 28 19 30
REMARK Flexibility Score: inf
ROOT
ATOM      1  N   UNL     1      29.486  34.026  16.996  1.00  0.00    -0.319 N 
ATOM      2  C   UNL     1      30.731  34.680  16.936  1.00  0.00     0.407 C 
ATOM      3  O   UNL     1      31.807  34.126  17.222  1.00  0.00    -0.225 OA
ATOM      4  H   UNL     1      28.630  34.608  16.696  1.00  0.00     0.167 HD
ENDROOT
BRANCH   1   5
ATOM      5  C   UNL     1      29.291  32.693  17.414  1.00  0.00     0.154 C 
BRANCH   5   6
ATOM      6  C   UNL     1      29.531  31.573  16.484  1.00  0.00     0.165 C 
BRANCH   6   7
ATOM      7  C   UNL     1      28.455  30.774  15.909  1.00  0.00     0.176 C 
BRANCH   7   8
ATOM      8  C   UNL     1      27.401  30.376  16.949  1.00  0.00     0.178 C 
ATOM      9  C   UNL     1      26.832  28.516  18.224  1.00  0.00     0.269 C 
ATOM     10  C   UNL     1      25.716  29.426  18.685  1.00  0.00     0.112 C 
ATOM     11  O   UNL     1      27.829  29.167  17.534  1.00  0.00    -0.332 OA
ATOM     12  C   UNL     1      25.067  30.165  17.558  1.00  0.00     0.145 C 
ATOM     13  C   UNL     1      26.053  30.128  16.376  1.00  0.00     0.142 C 
BRANCH   9  14
ATOM     14  O   UNL     1      26.253  27.485  17.504  1.00  0.00    -0.357 OA
ATOM     15  H   UNL     1      26.954  26.874  17.199  1.00  0.00     0.214 HD
ENDBRANCH   9  14
BRANCH   9  16
ATOM     16  C   UNL     1      27.445  27.943  19.451  1.00  0.00     0.364 C 
ATOM     17  O   UNL     1      27.251  28.474  20.575  1.00  0.00    -0.246 OA
BRANCH  16  18
ATOM     18  O   UNL     1      28.242  26.813  19.390  1.00  0.00    -0.477 OA
ATOM     19  H   UNL     1      27.850  25.876  19.265  1.00  0.00     0.296 HD
ENDBRANCH  16  18
ENDBRANCH   9  16
BRANCH  12  20
ATOM     20  O   UNL     1      23.831  29.681  17.192  1.00  0.00    -0.391 OA
ATOM     21  H   UNL     1      23.406  29.283  17.992  1.00  0.00     0.211 HD
ENDBRANCH  12  20
BRANCH  13  22
ATOM     22  N   UNL     1      25.579  31.139  15.455  1.00  0.00    -0.348 N 
ATOM     23  C   UNL     1      24.722  30.784  14.360  1.00  0.00     0.217 C 
ATOM     24  H   UNL     1      25.827  32.143  15.540  1.00  0.00     0.163 HD
ATOM     25  C   UNL     1      24.200  31.763  13.383  1.00  0.00     0.114 C 
ATOM     26  O   UNL     1      24.412  29.580  14.242  1.00  0.00    -0.275 OA
ENDBRANCH  13  22
ENDBRANCH   7   8
BRANCH   7  27
ATOM     27  O   UNL     1      28.929  29.677  15.238  1.00  0.00    -0.388 OA
ATOM     28  H   UNL     1      29.587  29.124  15.713  1.00  0.00     0.211 HD
ENDBRANCH   7  27
ENDBRANCH   6   7
BRANCH   6  29
ATOM     29  O   UNL     1      30.537  30.780  17.108  1.00  0.00    -0.388 OA
ATOM     30  H   UNL     1      31.130  30.386  16.417  1.00  0.00     0.211 HD
ENDBRANCH   6  29
ENDBRANCH   5   6
ENDBRANCH   1   5
BRANCH   2  31
ATOM     31  O   UNL     1      30.732  36.033  16.529  1.00  0.00    -0.443 OA
BRANCH  31  32
ATOM     32  C   UNL     1      31.483  36.334  15.369  1.00  0.00     0.294 C 
BRANCH  32  33
ATOM     33  C   UNL     1      30.788  35.792  14.152  1.00  0.00     0.121 A 
ATOM     34  C   UNL     1      29.627  36.257  13.573  1.00  0.00     0.144 A 
ATOM     35  N   UNL     1      31.159  34.742  13.380  1.00  0.00    -0.131 NA
ATOM     36  N   UNL     1      29.319  35.504  12.490  1.00  0.00    -0.220 N 
ATOM     37  N   UNL     1      30.277  34.604  12.420  1.00  0.00    -0.062 NA
BRANCH  36  38
ATOM     38  C   UNL     1      28.196  35.664  11.626  1.00  0.00     0.067 A 
ATOM     39  C   UNL     1      27.860  36.884  11.078  1.00  0.00     0.035 A 
ATOM     40  C   UNL     1      27.390  34.590  11.298  1.00  0.00     0.035 A 
ATOM     41  C   UNL     1      26.769  37.016  10.244  1.00  0.00     0.088 A 
ATOM     42  C   UNL     1      26.297  34.722  10.463  1.00  0.00     0.088 A 
ATOM     43  C   UNL     1      25.959  35.940   9.913  1.00  0.00     0.269 A 
BRANCH  43  44
ATOM     44  N   UNL     1      24.840  36.066   9.058  1.00  0.00     0.062 N 
ATOM     45  O   UNL     1      24.934  36.799   8.058  1.00  0.00    -0.258 OA
ATOM     46  O   UNL     1      23.651  35.425   9.264  1.00  0.00    -0.258 OA
ENDBRANCH  43  44
ENDBRANCH  36  38
ENDBRANCH  32  33
ENDBRANCH  31  32
ENDBRANCH   2  31
TORSDOF 16
BEGIN_RES LYS A 131
REMARK  4 active torsions:
REMARK  status: ('A' for Active; 'I' for Inactive)
REMARK    1  A    between atoms: CA   and  CB  
REMARK    2  A    between atoms: CB   and  CG  
REMARK    3  A    between atoms: CG   and  CD  
REMARK    4  A    between atoms: CD   and  CE  
ROOT
ATOM      1  CA  LYS A 131      29.867  25.555  16.977  1.00 20.52     0.186 C 
ENDROOT
BRANCH   1   2
ATOM      2  CB  LYS A 131      28.345  25.722  17.026  1.00 20.94     0.034 C 
BRANCH   2   3
ATOM      3  CG  LYS A 131      27.599  24.436  16.706  1.00 22.96     0.005 C 
BRANCH   3   4
ATOM      4  CD  LYS A 131      26.983  23.819  17.932  1.00 24.33     0.041 C 
BRANCH   4   5
ATOM      5  CE  LYS A 131      25.589  23.299  17.594  1.00 26.91     0.338 C 
ATOM      6  NZ  LYS A 131      24.791  24.353  16.925  1.00 27.40     0.618 N 
ENDBRANCH   4   5
ENDBRANCH   3   4
ENDBRANCH   2   3
ENDBRANCH   1   2
END_RES LYS A 131
BEGIN_RES LYS A 135
REMARK  4 active torsions:
REMARK  status: ('A' for Active; 'I' for Inactive)
REMARK    5  A    between atoms: CA   and  CB  
REMARK    6  A    between atoms: CB   and  CG  
REMARK    7  A    between atoms: CG   and  CD  
REMARK    8  A    between atoms: CD   and  CE  
ROOT
ATOM      7  CA  LYS A 135      33.193  34.663   9.290  1.00 25.02     0.186 C 
ENDROOT
BRANCH   7   8
ATOM      8  CB  LYS A 135      32.060  35.360  10.034  1.00 26.63     0.034 C 
BRANCH   8   9
ATOM      9  CG  LYS A 135      30.931  35.798   9.138  1.00 29.45     0.005 C 
BRANCH   9  10
ATOM     10  CD  LYS A 135      30.410  34.627   8.318  1.00 32.00     0.041 C 
BRANCH  10  11
ATOM     11  CE  LYS A 135      28.964  34.855   7.923  1.00 34.25     0.338 C 
ATOM     12  NZ  LYS A 135      28.870  35.525   6.597  1.00 35.99     0.618 N 
ENDBRANCH  10  11
ENDBRANCH   9  10
ENDBRANCH   8   9
ENDBRANCH   7   8
END_RES LYS A 135
