REMARK VINA RESULT:    -5.055      2.840      6.020
REMARK INTER + INTRA:         -16.850
REMARK INTER:                 -11.090
REMARK INTRA:                  -5.761
REMARK UNBOUND:                -6.771
REMARK SMILES CC(=O)N[C@@H]1[C@@H](O)C[C@](O)(C(=O)O)O[C@H]1C(O)[C@H](O)CNC(=O)OCc1cn(CC(O)CCc2ccccc2)nn1
REMARK SMILES IDX 24 1 22 2 21 3 23 5 20 6 18 7 16 8 15 9 9 10 8 11 14 12 6 13
REMARK SMILES IDX 5 14 10 15 11 17 12 18 13 19 7 21 4 23 2 24 1 26 3 27 17 28
REMARK SMILES IDX 19 30 25 32 26 33 27 34 41 35 28 36 40 37 29 38 30 39 31 40
REMARK SMILES IDX 32 42 33 43 34 44 35 45 39 46 36 47 38 48 37 49
REMARK H PARENT 21 4 10 16 13 20 7 22 4 25 17 29 19 31 31 41
REMARK Flexibility Score: inf
ROOT
ATOM      1  O   UNL     1      27.485  36.107  11.725  1.00  0.00    -0.443 OA
ENDROOT
BRANCH   1   2
ATOM      2  C   UNL     1      26.438  35.849  10.858  1.00  0.00     0.407 C 
ATOM      3  N   UNL     1      26.321  36.552   9.641  1.00  0.00    -0.319 N 
ATOM      4  H   UNL     1      27.030  37.268   9.400  1.00  0.00     0.167 HD
ATOM      5  O   UNL     1      25.581  34.984  11.150  1.00  0.00    -0.225 OA
BRANCH   3   6
ATOM      6  C   UNL     1      25.237  36.310   8.699  1.00  0.00     0.154 C 
BRANCH   6   7
ATOM      7  C   UNL     1      24.422  37.571   8.477  1.00  0.00     0.165 C 
BRANCH   7   8
ATOM      8  C   UNL     1      23.258  37.560   9.454  1.00  0.00     0.176 C 
BRANCH   8   9
ATOM      9  C   UNL     1      22.564  36.195   9.434  1.00  0.00     0.178 C 
ATOM     10  C   UNL     1      20.423  36.381   8.521  1.00  0.00     0.269 C 
ATOM     11  C   UNL     1      19.992  36.887   9.852  1.00  0.00     0.112 C 
ATOM     12  O   UNL     1      21.719  36.027   8.395  1.00  0.00    -0.332 OA
ATOM     13  C   UNL     1      20.587  36.154  11.001  1.00  0.00     0.145 C 
ATOM     14  C   UNL     1      22.052  35.875  10.803  1.00  0.00     0.142 C 
BRANCH  10  15
ATOM     15  O   UNL     1      20.157  37.408   7.583  1.00  0.00    -0.357 OA
ATOM     16  H   UNL     1      20.393  38.284   7.983  1.00  0.00     0.214 HD
ENDBRANCH  10  15
BRANCH  10  17
ATOM     17  C   UNL     1      19.504  35.247   8.145  1.00  0.00     0.364 C 
ATOM     18  O   UNL     1      18.323  35.164   8.557  1.00  0.00    -0.246 OA
BRANCH  17  19
ATOM     19  O   UNL     1      19.935  34.218   7.303  1.00  0.00    -0.477 OA
ATOM     20  H   UNL     1      19.913  33.241   7.628  1.00  0.00     0.296 HD
ENDBRANCH  17  19
ENDBRANCH  10  17
BRANCH  13  21
ATOM     21  O   UNL     1      20.352  36.902  12.178  1.00  0.00    -0.391 OA
ATOM     22  H   UNL     1      19.953  37.794  11.950  1.00  0.00     0.211 HD
ENDBRANCH  13  21
BRANCH  14  23
ATOM     23  N   UNL     1      22.387  34.496  11.165  1.00  0.00    -0.348 N 
ATOM     24  C   UNL     1      22.565  34.105  12.500  1.00  0.00     0.217 C 
ATOM     25  H   UNL     1      22.487  33.811  10.358  1.00  0.00     0.163 HD
ATOM     26  C   UNL     1      22.902  32.705  12.815  1.00  0.00     0.114 C 
ATOM     27  O   UNL     1      22.441  34.930  13.425  1.00  0.00    -0.275 OA
ENDBRANCH  14  23
ENDBRANCH   8   9
BRANCH   8  28
ATOM     28  O   UNL     1      23.845  37.644  10.730  1.00  0.00    -0.388 OA
ATOM     29  H   UNL     1      24.518  36.913  10.874  1.00  0.00     0.211 HD
ENDBRANCH   8  28
ENDBRANCH   7   8
BRANCH   7  30
ATOM     30  O   UNL     1      23.950  37.610   7.171  1.00  0.00    -0.388 OA
ATOM     31  H   UNL     1      24.134  38.513   6.819  1.00  0.00     0.211 HD
ENDBRANCH   7  30
ENDBRANCH   6   7
ENDBRANCH   3   6
ENDBRANCH   1   2
BRANCH   1  32
ATOM     32  C   UNL     1      28.022  37.439  11.688  1.00  0.00     0.294 C 
BRANCH  32  33
ATOM     33  C   UNL     1      29.424  37.436  12.160  1.00  0.00     0.120 A 
ATOM     34  C   UNL     1      29.970  36.832  13.268  1.00  0.00     0.138 A 
ATOM     35  N   UNL     1      30.436  38.061  11.534  1.00  0.00    -0.132 NA
ATOM     36  N   UNL     1      31.283  37.102  13.287  1.00  0.00    -0.250 N 
ATOM     37  N   UNL     1      31.545  37.833  12.249  1.00  0.00    -0.067 NA
BRANCH  36  38
ATOM     38  C   UNL     1      32.282  36.667  14.289  1.00  0.00     0.177 C 
BRANCH  38  39
ATOM     39  C   UNL     1      32.866  35.366  13.832  1.00  0.00     0.136 C 
BRANCH  39  40
ATOM     40  O   UNL     1      32.741  35.195  12.446  1.00  0.00    -0.391 OA
ATOM     41  H   UNL     1      33.264  34.378  12.203  1.00  0.00     0.211 HD
ENDBRANCH  39  40
BRANCH  39  42
ATOM     42  C   UNL     1      32.671  34.208  14.674  1.00  0.00     0.038 C 
BRANCH  42  43
ATOM     43  C   UNL     1      32.172  34.381  16.043  1.00  0.00     0.038 C 
BRANCH  43  44
ATOM     44  C   UNL     1      31.391  33.273  16.569  1.00  0.00    -0.048 A 
ATOM     45  C   UNL     1      31.076  33.277  17.934  1.00  0.00     0.004 A 
ATOM     46  C   UNL     1      30.989  32.180  15.866  1.00  0.00     0.004 A 
ATOM     47  C   UNL     1      30.400  32.228  18.510  1.00  0.00     0.000 A 
ATOM     48  C   UNL     1      30.307  31.115  16.427  1.00  0.00     0.000 A 
ATOM     49  C   UNL     1      30.005  31.136  17.773  1.00  0.00     0.000 A 
ENDBRANCH  43  44
ENDBRANCH  42  43
ENDBRANCH  39  42
ENDBRANCH  38  39
ENDBRANCH  36  38
ENDBRANCH  32  33
ENDBRANCH   1  32
TORSDOF 20
BEGIN_RES LYS A 131
REMARK  4 active torsions:
REMARK  status: ('A' for Active; 'I' for Inactive)
REMARK    1  A    between atoms: CA   and  CB  
REMARK    2  A    between atoms: CB   and  CG  
REMARK    3  A    between atoms: CG   and  CD  
REMARK    4  A    between atoms: CD   and  CE  
ROOT
ATOM      1  CA  LYS A 131      29.867  25.555  16.977  1.00 20.52     0.186 C 
ENDROOT
BRANCH   1   2
ATOM      2  CB  LYS A 131      28.345  25.722  17.026  1.00 20.94     0.034 C 
BRANCH   2   3
ATOM      3  CG  LYS A 131      27.603  24.396  16.963  1.00 22.96     0.005 C 
BRANCH   3   4
ATOM      4  CD  LYS A 131      26.114  24.574  17.078  1.00 24.33     0.041 C 
BRANCH   4   5
ATOM      5  CE  LYS A 131      25.504  23.342  17.739  1.00 26.91     0.338 C 
ATOM      6  NZ  LYS A 131      25.784  23.341  19.194  1.00 27.40     0.618 N 
ENDBRANCH   4   5
ENDBRANCH   3   4
ENDBRANCH   2   3
ENDBRANCH   1   2
END_RES LYS A 131
BEGIN_RES LYS A 135
REMARK  4 active torsions:
REMARK  status: ('A' for Active; 'I' for Inactive)
REMARK    5  A    between atoms: CA   and  CB  
REMARK    6  A    between atoms: CB   and  CG  
REMARK    7  A    between atoms: CG   and  CD  
REMARK    8  A    between atoms: CD   and  CE  
ROOT
ATOM      7  CA  LYS A 135      33.193  34.663   9.290  1.00 25.02     0.186 C 
ENDROOT
BRANCH   7   8
ATOM      8  CB  LYS A 135      32.060  35.360  10.034  1.00 26.63     0.034 C 
BRANCH   8   9
ATOM      9  CG  LYS A 135      30.799  35.496   9.220  1.00 29.45     0.005 C 
BRANCH   9  10
ATOM     10  CD  LYS A 135      30.029  34.185   9.200  1.00 32.00     0.041 C 
BRANCH  10  11
ATOM     11  CE  LYS A 135      28.742  34.335   8.411  1.00 34.25     0.338 C 
ATOM     12  NZ  LYS A 135      28.882  35.367   7.347  1.00 35.99     0.618 N 
ENDBRANCH  10  11
ENDBRANCH   9  10
ENDBRANCH   8   9
ENDBRANCH   7   8
END_RES LYS A 135
