REMARK VINA RESULT:    -4.864      5.571     11.892
REMARK INTER + INTRA:         -15.464
REMARK INTER:                  -9.555
REMARK INTRA:                  -5.909
REMARK UNBOUND:                -5.909
REMARK SMILES CC(=O)N[C@@H]1[C@@H](O)C[C@](O)(C(=O)O)O[C@H]1C(O)[C@H](O)CNC(=O)OCc1cn(CCNC(=O)NCc2ccco2)nn1
REMARK SMILES IDX 24 1 22 2 21 3 23 5 20 6 18 7 16 8 15 9 9 10 8 11 14 12 6 13
REMARK SMILES IDX 5 14 10 15 11 17 12 18 13 19 7 21 4 23 2 24 1 26 3 27 17 28
REMARK SMILES IDX 19 30 25 32 26 33 27 34 42 35 28 36 41 37 29 38 30 39 31 40
REMARK SMILES IDX 32 41 33 43 34 44 35 46 36 47 37 48 40 49 38 50 39 51
REMARK H PARENT 21 4 10 16 13 20 7 22 4 25 17 29 19 31 31 42 34 45
REMARK Flexibility Score: inf
ROOT
ATOM      1  O   UNL     1      23.801  35.729  12.714  1.00  0.00    -0.443 OA
ENDROOT
BRANCH   1   2
ATOM      2  C   UNL     1      23.591  36.047  11.376  1.00  0.00     0.407 C 
ATOM      3  N   UNL     1      24.490  35.758  10.340  1.00  0.00    -0.319 N 
ATOM      4  H   UNL     1      25.376  35.276  10.547  1.00  0.00     0.167 HD
ATOM      5  O   UNL     1      22.517  36.637  11.086  1.00  0.00    -0.225 OA
BRANCH   3   6
ATOM      6  C   UNL     1      24.167  36.140   8.962  1.00  0.00     0.154 C 
BRANCH   6   7
ATOM      7  C   UNL     1      25.399  36.716   8.316  1.00  0.00     0.165 C 
BRANCH   7   8
ATOM      8  C   UNL     1      26.125  37.676   9.217  1.00  0.00     0.176 C 
BRANCH   8   9
ATOM      9  C   UNL     1      27.376  38.225   8.594  1.00  0.00     0.178 C 
ATOM     10  C   UNL     1      28.800  37.744   6.805  1.00  0.00     0.269 C 
ATOM     11  C   UNL     1      29.938  38.448   7.470  1.00  0.00     0.112 C 
ATOM     12  O   UNL     1      27.818  37.300   7.632  1.00  0.00    -0.332 OA
ATOM     13  C   UNL     1      29.633  39.074   8.771  1.00  0.00     0.145 C 
ATOM     14  C   UNL     1      28.541  38.357   9.543  1.00  0.00     0.142 C 
BRANCH  10  15
ATOM     15  O   UNL     1      29.371  36.587   6.214  1.00  0.00    -0.357 OA
ATOM     16  H   UNL     1      28.785  36.234   5.499  1.00  0.00     0.214 HD
ENDBRANCH  10  15
BRANCH  10  17
ATOM     17  C   UNL     1      28.204  38.528   5.697  1.00  0.00     0.364 C 
ATOM     18  O   UNL     1      28.684  39.642   5.341  1.00  0.00    -0.246 OA
BRANCH  17  19
ATOM     19  O   UNL     1      27.090  38.097   4.986  1.00  0.00    -0.477 OA
ATOM     20  H   UNL     1      26.282  38.704   4.892  1.00  0.00     0.296 HD
ENDBRANCH  17  19
ENDBRANCH  10  17
BRANCH  13  21
ATOM     21  O   UNL     1      30.803  39.137   9.557  1.00  0.00    -0.391 OA
ATOM     22  H   UNL     1      30.738  38.569  10.350  1.00  0.00     0.211 HD
ENDBRANCH  13  21
BRANCH  14  23
ATOM     23  N   UNL     1      28.269  39.025  10.769  1.00  0.00    -0.348 N 
ATOM     24  C   UNL     1      28.798  38.481  11.981  1.00  0.00     0.217 C 
ATOM     25  H   UNL     1      27.712  39.900  10.857  1.00  0.00     0.163 HD
ATOM     26  C   UNL     1      28.573  39.099  13.305  1.00  0.00     0.114 C 
ATOM     27  O   UNL     1      29.493  37.424  11.942  1.00  0.00    -0.275 OA
ENDBRANCH  14  23
ENDBRANCH   8   9
BRANCH   8  28
ATOM     28  O   UNL     1      25.305  38.637   9.781  1.00  0.00    -0.388 OA
ATOM     29  H   UNL     1      25.611  39.566   9.627  1.00  0.00     0.211 HD
ENDBRANCH   8  28
ENDBRANCH   7   8
BRANCH   7  30
ATOM     30  O   UNL     1      24.925  37.507   7.234  1.00  0.00    -0.388 OA
ATOM     31  H   UNL     1      25.733  38.039   6.958  1.00  0.00     0.211 HD
ENDBRANCH   7  30
ENDBRANCH   6   7
ENDBRANCH   3   6
ENDBRANCH   1   2
BRANCH   1  32
ATOM     32  C   UNL     1      25.059  35.284  13.176  1.00  0.00     0.294 C 
BRANCH  32  33
ATOM     33  C   UNL     1      24.900  33.910  13.701  1.00  0.00     0.120 A 
ATOM     34  C   UNL     1      24.933  33.518  15.011  1.00  0.00     0.138 A 
ATOM     35  N   UNL     1      24.691  32.802  12.972  1.00  0.00    -0.132 NA
ATOM     36  N   UNL     1      24.744  32.187  15.043  1.00  0.00    -0.250 N 
ATOM     37  N   UNL     1      24.597  31.755  13.801  1.00  0.00    -0.067 NA
BRANCH  36  38
ATOM     38  C   UNL     1      24.702  31.330  16.231  1.00  0.00     0.167 C 
BRANCH  38  39
ATOM     39  C   UNL     1      25.517  30.099  15.929  1.00  0.00     0.141 C 
BRANCH  39  40
ATOM     40  N   UNL     1      26.807  30.492  15.421  1.00  0.00    -0.336 N 
ATOM     41  C   UNL     1      27.986  30.551  16.201  1.00  0.00     0.315 C 
ATOM     42  H   UNL     1      26.909  30.758  14.401  1.00  0.00     0.165 HD
ATOM     43  O   UNL     1      27.910  30.238  17.427  1.00  0.00    -0.249 OA
ATOM     44  N   UNL     1      29.211  30.954  15.607  1.00  0.00    -0.331 N 
ATOM     45  H   UNL     1      29.300  31.215  14.608  1.00  0.00     0.165 HD
BRANCH  44  46
ATOM     46  C   UNL     1      30.395  31.002  16.435  1.00  0.00     0.193 C 
BRANCH  46  47
ATOM     47  C   UNL     1      31.092  32.281  16.180  1.00  0.00     0.122 A 
ATOM     48  C   UNL     1      31.240  33.286  17.130  1.00  0.00     0.047 A 
ATOM     49  O   UNL     1      31.656  32.663  15.078  1.00  0.00    -0.467 OA
ATOM     50  C   UNL     1      31.938  34.291  16.495  1.00  0.00     0.042 A 
ATOM     51  C   UNL     1      32.172  33.846  15.210  1.00  0.00     0.195 A 
ENDBRANCH  46  47
ENDBRANCH  44  46
ENDBRANCH  39  40
ENDBRANCH  38  39
ENDBRANCH  36  38
ENDBRANCH  32  33
ENDBRANCH   1  32
TORSDOF 19
BEGIN_RES LYS A 131
REMARK  4 active torsions:
REMARK  status: ('A' for Active; 'I' for Inactive)
REMARK    1  A    between atoms: CA   and  CB  
REMARK    2  A    between atoms: CB   and  CG  
REMARK    3  A    between atoms: CG   and  CD  
REMARK    4  A    between atoms: CD   and  CE  
ROOT
ATOM      1  CA  LYS A 131      29.867  25.555  16.977  1.00 20.52     0.186 C 
ENDROOT
BRANCH   1   2
ATOM      2  CB  LYS A 131      28.345  25.722  17.026  1.00 20.94     0.034 C 
BRANCH   2   3
ATOM      3  CG  LYS A 131      27.601  24.403  16.887  1.00 22.96     0.005 C 
BRANCH   3   4
ATOM      4  CD  LYS A 131      26.166  24.514  17.321  1.00 24.33     0.041 C 
BRANCH   4   5
ATOM      5  CE  LYS A 131      25.612  23.122  17.609  1.00 26.91     0.338 C 
ATOM      6  NZ  LYS A 131      25.238  22.998  19.038  1.00 27.40     0.618 N 
ENDBRANCH   4   5
ENDBRANCH   3   4
ENDBRANCH   2   3
ENDBRANCH   1   2
END_RES LYS A 131
BEGIN_RES LYS A 135
REMARK  4 active torsions:
REMARK  status: ('A' for Active; 'I' for Inactive)
REMARK    5  A    between atoms: CA   and  CB  
REMARK    6  A    between atoms: CB   and  CG  
REMARK    7  A    between atoms: CG   and  CD  
REMARK    8  A    between atoms: CD   and  CE  
ROOT
ATOM      7  CA  LYS A 135      33.193  34.663   9.290  1.00 25.02     0.186 C 
ENDROOT
BRANCH   7   8
ATOM      8  CB  LYS A 135      32.060  35.360  10.034  1.00 26.63     0.034 C 
BRANCH   8   9
ATOM      9  CG  LYS A 135      30.790  35.471   9.230  1.00 29.45     0.005 C 
BRANCH   9  10
ATOM     10  CD  LYS A 135      30.091  34.123   9.142  1.00 32.00     0.041 C 
BRANCH  10  11
ATOM     11  CE  LYS A 135      28.752  34.170   9.852  1.00 34.25     0.338 C 
ATOM     12  NZ  LYS A 135      27.626  34.119   8.879  1.00 35.99     0.618 N 
ENDBRANCH  10  11
ENDBRANCH   9  10
ENDBRANCH   8   9
ENDBRANCH   7   8
END_RES LYS A 135
