REMARK VINA RESULT:    -4.815      3.330      7.956
REMARK INTER + INTRA:         -14.490
REMARK INTER:                  -9.096
REMARK INTRA:                  -5.394
REMARK UNBOUND:                -5.735
REMARK SMILES CC(=O)N[C@@H]1[C@@H](O)C[C@](O)(C(=O)O)O[C@H]1C(O)[C@H](O)CNC(=O)OCc1cn(-c2ccc(CO)cn2)nn1
REMARK SMILES IDX 21 1 22 2 23 3 20 5 18 6 16 7 15 8 9 9 8 10 14 11 6 12 5 13
REMARK SMILES IDX 10 14 11 16 12 17 13 18 7 20 4 22 2 23 1 25 3 26 17 27 19 29
REMARK SMILES IDX 24 31 25 32 26 33 27 34 38 35 28 36 37 37 29 38 30 39 36 40
REMARK SMILES IDX 31 41 35 42 32 43 33 44 34 45
REMARK H PARENT 21 4 10 15 13 19 7 21 4 24 17 28 19 30 34 46
REMARK Flexibility Score: inf
ROOT
ATOM      1  N   UNL     1      29.651  30.727  17.342  1.00  0.00    -0.319 N 
ATOM      2  C   UNL     1      28.713  30.950  18.406  1.00  0.00     0.407 C 
ATOM      3  O   UNL     1      28.857  32.008  19.059  1.00  0.00    -0.225 OA
ATOM      4  H   UNL     1      29.487  29.842  16.816  1.00  0.00     0.167 HD
ENDROOT
BRANCH   1   5
ATOM      5  C   UNL     1      30.685  31.682  17.050  1.00  0.00     0.154 C 
BRANCH   5   6
ATOM      6  C   UNL     1      30.553  32.150  15.610  1.00  0.00     0.165 C 
BRANCH   6   7
ATOM      7  C   UNL     1      29.882  33.492  15.669  1.00  0.00     0.176 C 
BRANCH   7   8
ATOM      8  C   UNL     1      30.485  34.595  14.848  1.00  0.00     0.178 C 
ATOM      9  C   UNL     1      32.593  35.656  14.863  1.00  0.00     0.269 C 
ATOM     10  C   UNL     1      31.987  37.020  14.642  1.00  0.00     0.112 C 
ATOM     11  O   UNL     1      31.721  34.779  15.410  1.00  0.00    -0.332 OA
ATOM     12  C   UNL     1      30.663  36.982  15.380  1.00  0.00     0.145 C 
ATOM     13  C   UNL     1      29.769  35.875  14.768  1.00  0.00     0.142 C 
BRANCH   9  14
ATOM     14  O   UNL     1      33.671  35.871  15.777  1.00  0.00    -0.357 OA
ATOM     15  H   UNL     1      33.687  36.827  16.039  1.00  0.00     0.214 HD
ENDBRANCH   9  14
BRANCH   9  16
ATOM     16  C   UNL     1      33.213  35.080  13.652  1.00  0.00     0.364 C 
ATOM     17  O   UNL     1      32.939  35.559  12.534  1.00  0.00    -0.246 OA
BRANCH  16  18
ATOM     18  O   UNL     1      34.095  34.020  13.735  1.00  0.00    -0.477 OA
ATOM     19  H   UNL     1      33.907  33.183  13.197  1.00  0.00     0.296 HD
ENDBRANCH  16  18
ENDBRANCH   9  16
BRANCH  12  20
ATOM     20  O   UNL     1      30.811  36.825  16.736  1.00  0.00    -0.391 OA
ATOM     21  H   UNL     1      30.267  37.516  17.212  1.00  0.00     0.211 HD
ENDBRANCH  12  20
BRANCH  13  22
ATOM     22  N   UNL     1      29.468  36.353  13.458  1.00  0.00    -0.348 N 
ATOM     23  C   UNL     1      28.282  36.014  12.787  1.00  0.00     0.217 C 
ATOM     24  H   UNL     1      30.152  36.967  12.983  1.00  0.00     0.163 HD
ATOM     25  C   UNL     1      27.970  36.511  11.426  1.00  0.00     0.114 C 
ATOM     26  O   UNL     1      27.456  35.268  13.350  1.00  0.00    -0.275 OA
ENDBRANCH  13  22
ENDBRANCH   7   8
BRANCH   7  27
ATOM     27  O   UNL     1      29.943  33.939  17.002  1.00  0.00    -0.388 OA
ATOM     28  H   UNL     1      30.309  34.862  17.062  1.00  0.00     0.211 HD
ENDBRANCH   7  27
ENDBRANCH   6   7
BRANCH   6  29
ATOM     29  O   UNL     1      29.655  31.201  15.048  1.00  0.00    -0.388 OA
ATOM     30  H   UNL     1      30.099  30.338  15.020  1.00  0.00     0.211 HD
ENDBRANCH   6  29
ENDBRANCH   5   6
ENDBRANCH   1   5
BRANCH   2  31
ATOM     31  O   UNL     1      27.708  30.076  18.715  1.00  0.00    -0.443 OA
BRANCH  31  32
ATOM     32  C   UNL     1      27.149  29.165  17.819  1.00  0.00     0.294 C 
BRANCH  32  33
ATOM     33  C   UNL     1      26.448  29.803  16.676  1.00  0.00     0.121 A 
ATOM     34  C   UNL     1      25.222  29.366  16.169  1.00  0.00     0.146 A 
ATOM     35  N   UNL     1      26.771  30.843  15.918  1.00  0.00    -0.131 NA
ATOM     36  N   UNL     1      24.873  30.148  15.147  1.00  0.00    -0.202 N 
ATOM     37  N   UNL     1      25.822  31.042  15.002  1.00  0.00    -0.061 NA
BRANCH  36  38
ATOM     38  C   UNL     1      23.684  30.022  14.353  1.00  0.00     0.155 A 
ATOM     39  C   UNL     1      23.654  29.353  13.148  1.00  0.00     0.049 A 
ATOM     40  N   UNL     1      22.539  30.583  14.774  1.00  0.00    -0.237 NA
ATOM     41  C   UNL     1      22.526  29.239  12.380  1.00  0.00     0.011 A 
ATOM     42  C   UNL     1      21.409  30.497  14.056  1.00  0.00     0.119 A 
ATOM     43  C   UNL     1      21.363  29.826  12.839  1.00  0.00    -0.004 A 
BRANCH  43  44
ATOM     44  C   UNL     1      20.079  29.761  12.083  1.00  0.00     0.193 C 
BRANCH  44  45
ATOM     45  O   UNL     1      19.416  28.589  12.423  1.00  0.00    -0.392 OA
ATOM     46  H   UNL     1      19.816  28.200  13.242  1.00  0.00     0.211 HD
ENDBRANCH  44  45
ENDBRANCH  43  44
ENDBRANCH  36  38
ENDBRANCH  32  33
ENDBRANCH  31  32
ENDBRANCH   2  31
TORSDOF 17
BEGIN_RES LYS A 131
REMARK  4 active torsions:
REMARK  status: ('A' for Active; 'I' for Inactive)
REMARK    1  A    between atoms: CA   and  CB  
REMARK    2  A    between atoms: CB   and  CG  
REMARK    3  A    between atoms: CG   and  CD  
REMARK    4  A    between atoms: CD   and  CE  
ROOT
ATOM      1  CA  LYS A 131      29.867  25.555  16.977  1.00 20.52     0.186 C 
ENDROOT
BRANCH   1   2
ATOM      2  CB  LYS A 131      28.345  25.722  17.026  1.00 20.94     0.034 C 
BRANCH   2   3
ATOM      3  CG  LYS A 131      27.601  24.401  16.906  1.00 22.96     0.005 C 
BRANCH   3   4
ATOM      4  CD  LYS A 131      26.153  24.529  17.287  1.00 24.33     0.041 C 
BRANCH   4   5
ATOM      5  CE  LYS A 131      25.636  23.184  17.787  1.00 26.91     0.338 C 
ATOM      6  NZ  LYS A 131      25.515  23.192  19.264  1.00 27.40     0.618 N 
ENDBRANCH   4   5
ENDBRANCH   3   4
ENDBRANCH   2   3
ENDBRANCH   1   2
END_RES LYS A 131
BEGIN_RES LYS A 135
REMARK  4 active torsions:
REMARK  status: ('A' for Active; 'I' for Inactive)
REMARK    5  A    between atoms: CA   and  CB  
REMARK    6  A    between atoms: CB   and  CG  
REMARK    7  A    between atoms: CG   and  CD  
REMARK    8  A    between atoms: CD   and  CE  
ROOT
ATOM      7  CA  LYS A 135      33.193  34.663   9.290  1.00 25.02     0.186 C 
ENDROOT
BRANCH   7   8
ATOM      8  CB  LYS A 135      32.060  35.360  10.034  1.00 26.63     0.034 C 
BRANCH   8   9
ATOM      9  CG  LYS A 135      30.738  34.646   9.924  1.00 29.45     0.005 C 
BRANCH   9  10
ATOM     10  CD  LYS A 135      30.506  34.162   8.501  1.00 32.00     0.041 C 
BRANCH  10  11
ATOM     11  CE  LYS A 135      29.565  35.098   7.767  1.00 34.25     0.338 C 
ATOM     12  NZ  LYS A 135      28.146  34.823   8.128  1.00 35.99     0.618 N 
ENDBRANCH  10  11
ENDBRANCH   9  10
ENDBRANCH   8   9
ENDBRANCH   7   8
END_RES LYS A 135
