REMARK VINA RESULT:    -4.960      4.261      9.320
REMARK INTER + INTRA:         -14.572
REMARK INTER:                  -8.276
REMARK INTRA:                  -6.296
REMARK UNBOUND:                -5.118
REMARK SMILES COc1ccc(Cn2cc(COC(=O)NC[C@@H](O)C(O)[C@@H]3O[C@@](O)(C(=O)O)C[C@H](O)[C@H]3NC(C)=O)nn2)cc1OC
REMARK SMILES IDX 15 1 13 2 14 3 16 5 17 6 19 7 21 8 23 9 28 10 22 11 29 12
REMARK SMILES IDX 31 13 24 14 25 16 26 17 27 18 30 20 32 22 33 23 34 25 35 26
REMARK SMILES IDX 20 27 18 29 12 31 11 32 10 33 9 34 36 35 8 36 37 37 7 38
REMARK SMILES IDX 6 39 38 40 5 41 39 42 4 43 3 44 40 45 41 46 2 47 1 48
REMARK H PARENT 15 4 24 15 27 19 30 21 32 24 20 28 18 30
REMARK Flexibility Score: inf
ROOT
ATOM      1  N   UNL     1      27.756  29.859  18.455  1.00  0.00    -0.319 N 
ATOM      2  C   UNL     1      27.750  28.654  19.170  1.00  0.00     0.407 C 
ATOM      3  O   UNL     1      27.495  27.566  18.610  1.00  0.00    -0.225 OA
ATOM      4  H   UNL     1      27.973  30.743  19.009  1.00  0.00     0.167 HD
ENDROOT
BRANCH   1   5
ATOM      5  C   UNL     1      27.497  30.010  17.034  1.00  0.00     0.154 C 
BRANCH   5   6
ATOM      6  C   UNL     1      28.616  30.721  16.363  1.00  0.00     0.165 C 
BRANCH   6   7
ATOM      7  C   UNL     1      28.281  32.118  15.901  1.00  0.00     0.176 C 
BRANCH   7   8
ATOM      8  C   UNL     1      29.074  33.199  16.553  1.00  0.00     0.178 C 
ATOM      9  C   UNL     1      30.799  33.716  15.071  1.00  0.00     0.269 C 
ATOM     10  C   UNL     1      31.794  34.121  16.149  1.00  0.00     0.112 C 
ATOM     11  O   UNL     1      29.553  34.045  15.532  1.00  0.00    -0.332 OA
ATOM     12  C   UNL     1      31.119  34.058  17.489  1.00  0.00     0.145 C 
ATOM     13  C   UNL     1      30.107  32.854  17.536  1.00  0.00     0.142 C 
BRANCH   9  14
ATOM     14  O   UNL     1      30.963  32.384  14.709  1.00  0.00    -0.357 OA
ATOM     15  H   UNL     1      31.410  32.280  13.829  1.00  0.00     0.214 HD
ENDBRANCH   9  14
BRANCH   9  16
ATOM     16  C   UNL     1      31.060  34.524  13.844  1.00  0.00     0.364 C 
ATOM     17  O   UNL     1      32.107  35.210  13.783  1.00  0.00    -0.246 OA
BRANCH  16  18
ATOM     18  O   UNL     1      30.189  34.548  12.765  1.00  0.00    -0.477 OA
ATOM     19  H   UNL     1      30.432  35.003  11.876  1.00  0.00     0.296 HD
ENDBRANCH  16  18
ENDBRANCH   9  16
BRANCH  12  20
ATOM     20  O   UNL     1      32.026  33.905  18.532  1.00  0.00    -0.391 OA
ATOM     21  H   UNL     1      32.886  33.557  18.213  1.00  0.00     0.211 HD
ENDBRANCH  12  20
BRANCH  13  22
ATOM     22  N   UNL     1      29.601  32.935  18.914  1.00  0.00    -0.348 N 
ATOM     23  C   UNL     1      29.824  31.943  19.899  1.00  0.00     0.217 C 
ATOM     24  H   UNL     1      29.030  33.775  19.224  1.00  0.00     0.163 HD
ATOM     25  C   UNL     1      29.296  32.050  21.282  1.00  0.00     0.114 C 
ATOM     26  O   UNL     1      30.495  30.922  19.607  1.00  0.00    -0.275 OA
ENDBRANCH  13  22
ENDBRANCH   7   8
BRANCH   7  27
ATOM     27  O   UNL     1      26.910  32.370  16.315  1.00  0.00    -0.388 OA
ATOM     28  H   UNL     1      26.957  32.927  17.128  1.00  0.00     0.211 HD
ENDBRANCH   7  27
ENDBRANCH   6   7
BRANCH   6  29
ATOM     29  O   UNL     1      29.362  29.984  15.480  1.00  0.00    -0.388 OA
ATOM     30  H   UNL     1      29.779  29.192  15.868  1.00  0.00     0.211 HD
ENDBRANCH   6  29
ENDBRANCH   5   6
ENDBRANCH   1   5
BRANCH   2  31
ATOM     31  O   UNL     1      28.032  28.630  20.553  1.00  0.00    -0.443 OA
BRANCH  31  32
ATOM     32  C   UNL     1      28.642  27.445  21.087  1.00  0.00     0.294 C 
BRANCH  32  33
ATOM     33  C   UNL     1      29.998  27.709  21.563  1.00  0.00     0.120 A 
ATOM     34  C   UNL     1      30.348  28.429  22.677  1.00  0.00     0.138 A 
ATOM     35  N   UNL     1      31.131  27.279  20.987  1.00  0.00    -0.132 NA
ATOM     36  N   UNL     1      31.675  28.425  22.757  1.00  0.00    -0.248 N 
ATOM     37  N   UNL     1      32.129  27.730  21.736  1.00  0.00    -0.067 NA
BRANCH  36  38
ATOM     38  C   UNL     1      32.500  29.069  23.773  1.00  0.00     0.181 C 
BRANCH  38  39
ATOM     39  C   UNL     1      33.351  30.099  23.100  1.00  0.00    -0.023 A 
ATOM     40  C   UNL     1      32.740  31.183  22.472  1.00  0.00     0.056 A 
ATOM     41  C   UNL     1      34.728  30.028  23.079  1.00  0.00     0.010 A 
ATOM     42  C   UNL     1      33.485  32.155  21.849  1.00  0.00     0.161 A 
ATOM     43  C   UNL     1      35.504  30.989  22.462  1.00  0.00     0.051 A 
ATOM     44  C   UNL     1      34.863  32.043  21.854  1.00  0.00     0.160 A 
BRANCH  42  45
ATOM     45  O   UNL     1      32.889  33.243  21.217  1.00  0.00    -0.493 OA
ATOM     46  C   UNL     1      32.242  34.215  22.020  1.00  0.00     0.278 C 
ENDBRANCH  42  45
BRANCH  44  47
ATOM     47  O   UNL     1      35.606  33.028  21.223  1.00  0.00    -0.493 OA
ATOM     48  C   UNL     1      36.944  32.813  20.814  1.00  0.00     0.278 C 
ENDBRANCH  44  47
ENDBRANCH  38  39
ENDBRANCH  36  38
ENDBRANCH  32  33
ENDBRANCH  31  32
ENDBRANCH   2  31
TORSDOF 18
BEGIN_RES LYS A 131
REMARK  4 active torsions:
REMARK  status: ('A' for Active; 'I' for Inactive)
REMARK    1  A    between atoms: CA   and  CB  
REMARK    2  A    between atoms: CB   and  CG  
REMARK    3  A    between atoms: CG   and  CD  
REMARK    4  A    between atoms: CD   and  CE  
ROOT
ATOM      1  CA  LYS A 131      29.867  25.555  16.977  1.00 20.52     0.186 C 
ENDROOT
BRANCH   1   2
ATOM      2  CB  LYS A 131      28.345  25.722  17.026  1.00 20.94     0.034 C 
BRANCH   2   3
ATOM      3  CG  LYS A 131      27.601  24.401  16.905  1.00 22.96     0.005 C 
BRANCH   3   4
ATOM      4  CD  LYS A 131      26.141  24.541  17.232  1.00 24.33     0.041 C 
BRANCH   4   5
ATOM      5  CE  LYS A 131      25.848  23.853  18.561  1.00 26.91     0.338 C 
ATOM      6  NZ  LYS A 131      25.634  24.857  19.629  1.00 27.40     0.618 N 
ENDBRANCH   4   5
ENDBRANCH   3   4
ENDBRANCH   2   3
ENDBRANCH   1   2
END_RES LYS A 131
BEGIN_RES LYS A 135
REMARK  4 active torsions:
REMARK  status: ('A' for Active; 'I' for Inactive)
REMARK    5  A    between atoms: CA   and  CB  
REMARK    6  A    between atoms: CB   and  CG  
REMARK    7  A    between atoms: CG   and  CD  
REMARK    8  A    between atoms: CD   and  CE  
ROOT
ATOM      7  CA  LYS A 135      33.193  34.663   9.290  1.00 25.02     0.186 C 
ENDROOT
BRANCH   7   8
ATOM      8  CB  LYS A 135      32.060  35.360  10.034  1.00 26.63     0.034 C 
BRANCH   8   9
ATOM      9  CG  LYS A 135      30.867  35.665   9.165  1.00 29.45     0.005 C 
BRANCH   9  10
ATOM     10  CD  LYS A 135      30.223  34.381   8.667  1.00 32.00     0.041 C 
BRANCH  10  11
ATOM     11  CE  LYS A 135      28.867  34.669   8.052  1.00 34.25     0.338 C 
ATOM     12  NZ  LYS A 135      28.651  36.133   7.891  1.00 35.99     0.618 N 
ENDBRANCH  10  11
ENDBRANCH   9  10
ENDBRANCH   8   9
ENDBRANCH   7   8
END_RES LYS A 135
