REMARK VINA RESULT:    -4.525      4.213      9.005
REMARK INTER + INTRA:         -14.103
REMARK INTER:                  -8.502
REMARK INTRA:                  -5.601
REMARK UNBOUND:                -5.477
REMARK SMILES CC(=O)N[C@@H]1[C@@H](O)C[C@](O)(C(=O)O)O[C@H]1C(O)[C@H](O)CNC(=O)OCc1cn(CC(O)CO)nn1
REMARK SMILES IDX 21 1 22 2 23 3 20 5 18 6 16 7 15 8 9 9 8 10 14 11 6 12 5 13
REMARK SMILES IDX 10 14 11 16 12 17 13 18 7 20 4 22 2 23 1 25 3 26 17 27 19 29
REMARK SMILES IDX 24 31 25 32 26 33 27 34 35 35 28 36 34 37 29 38 30 39 31 40
REMARK SMILES IDX 32 42 33 43
REMARK H PARENT 21 4 10 15 13 19 7 21 4 24 17 28 19 30 31 41 33 44
REMARK Flexibility Score: inf
ROOT
ATOM      1  N   UNL     1      31.274  37.587  12.106  1.00  0.00    -0.319 N 
ATOM      2  C   UNL     1      29.994  38.190  12.033  1.00  0.00     0.407 C 
ATOM      3  O   UNL     1      29.140  38.001  12.917  1.00  0.00    -0.225 OA
ATOM      4  H   UNL     1      31.933  37.809  11.300  1.00  0.00     0.167 HD
ENDROOT
BRANCH   1   5
ATOM      5  C   UNL     1      31.643  36.742  13.190  1.00  0.00     0.154 C 
BRANCH   5   6
ATOM      6  C   UNL     1      31.441  35.270  12.909  1.00  0.00     0.165 C 
BRANCH   6   7
ATOM      7  C   UNL     1      30.396  34.782  13.906  1.00  0.00     0.176 C 
BRANCH   7   8
ATOM      8  C   UNL     1      30.964  33.633  14.745  1.00  0.00     0.178 C 
ATOM      9  C   UNL     1      29.381  32.363  15.876  1.00  0.00     0.269 C 
ATOM     10  C   UNL     1      30.418  31.892  16.876  1.00  0.00     0.112 C 
ATOM     11  O   UNL     1      30.051  32.618  14.704  1.00  0.00    -0.332 OA
ATOM     12  C   UNL     1      31.317  33.044  17.165  1.00  0.00     0.145 C 
ATOM     13  C   UNL     1      31.318  34.123  16.114  1.00  0.00     0.142 C 
BRANCH   9  14
ATOM     14  O   UNL     1      28.772  33.487  16.429  1.00  0.00    -0.357 OA
ATOM     15  H   UNL     1      27.791  33.416  16.451  1.00  0.00     0.214 HD
ENDBRANCH   9  14
BRANCH   9  16
ATOM     16  C   UNL     1      28.359  31.315  15.621  1.00  0.00     0.364 C 
ATOM     17  O   UNL     1      28.742  30.128  15.468  1.00  0.00    -0.246 OA
BRANCH  16  18
ATOM     18  O   UNL     1      27.029  31.653  15.558  1.00  0.00    -0.477 OA
ATOM     19  H   UNL     1      26.653  32.132  14.745  1.00  0.00     0.296 HD
ENDBRANCH  16  18
ENDBRANCH   9  16
BRANCH  12  20
ATOM     20  O   UNL     1      30.887  33.633  18.361  1.00  0.00    -0.391 OA
ATOM     21  H   UNL     1      29.917  33.567  18.426  1.00  0.00     0.211 HD
ENDBRANCH  12  20
BRANCH  13  22
ATOM     22  N   UNL     1      32.647  34.697  16.120  1.00  0.00    -0.348 N 
ATOM     23  C   UNL     1      32.825  36.031  16.569  1.00  0.00     0.217 C 
ATOM     24  H   UNL     1      33.493  34.168  15.806  1.00  0.00     0.163 HD
ATOM     25  C   UNL     1      34.183  36.680  16.596  1.00  0.00     0.114 C 
ATOM     26  O   UNL     1      31.875  36.752  16.968  1.00  0.00    -0.275 OA
ENDBRANCH  13  22
ENDBRANCH   7   8
BRANCH   7  27
ATOM     27  O   UNL     1      29.972  35.839  14.674  1.00  0.00    -0.388 OA
ATOM     28  H   UNL     1      30.037  36.703  14.179  1.00  0.00     0.211 HD
ENDBRANCH   7  27
ENDBRANCH   6   7
BRANCH   6  29
ATOM     29  O   UNL     1      32.640  34.574  13.062  1.00  0.00    -0.388 OA
ATOM     30  H   UNL     1      33.207  35.100  13.657  1.00  0.00     0.211 HD
ENDBRANCH   6  29
ENDBRANCH   5   6
ENDBRANCH   1   5
BRANCH   2  31
ATOM     31  O   UNL     1      29.647  39.022  10.958  1.00  0.00    -0.443 OA
BRANCH  31  32
ATOM     32  C   UNL     1      30.652  39.400  10.063  1.00  0.00     0.294 C 
BRANCH  32  33
ATOM     33  C   UNL     1      30.243  39.200   8.649  1.00  0.00     0.120 A 
ATOM     34  C   UNL     1      28.998  38.877   8.193  1.00  0.00     0.138 A 
ATOM     35  N   UNL     1      31.030  39.300   7.575  1.00  0.00    -0.132 NA
ATOM     36  N   UNL     1      29.086  38.795   6.838  1.00  0.00    -0.249 N 
ATOM     37  N   UNL     1      30.334  39.056   6.475  1.00  0.00    -0.067 NA
BRANCH  36  38
ATOM     38  C   UNL     1      27.970  38.471   5.951  1.00  0.00     0.180 C 
BRANCH  38  39
ATOM     39  C   UNL     1      27.957  36.960   5.826  1.00  0.00     0.161 C 
BRANCH  39  40
ATOM     40  O   UNL     1      29.246  36.473   6.002  1.00  0.00    -0.389 OA
ATOM     41  H   UNL     1      29.401  36.364   6.978  1.00  0.00     0.211 HD
ENDBRANCH  39  40
BRANCH  39  42
ATOM     42  C   UNL     1      27.028  36.353   6.882  1.00  0.00     0.189 C 
BRANCH  42  43
ATOM     43  O   UNL     1      25.866  37.122   6.971  1.00  0.00    -0.394 OA
ATOM     44  H   UNL     1      26.087  38.005   7.394  1.00  0.00     0.210 HD
ENDBRANCH  42  43
ENDBRANCH  39  42
ENDBRANCH  38  39
ENDBRANCH  36  38
ENDBRANCH  32  33
ENDBRANCH  31  32
ENDBRANCH   2  31
TORSDOF 19
BEGIN_RES LYS A 131
REMARK  4 active torsions:
REMARK  status: ('A' for Active; 'I' for Inactive)
REMARK    1  A    between atoms: CA   and  CB  
REMARK    2  A    between atoms: CB   and  CG  
REMARK    3  A    between atoms: CG   and  CD  
REMARK    4  A    between atoms: CD   and  CE  
ROOT
ATOM      1  CA  LYS A 131      29.867  25.555  16.977  1.00 20.52     0.186 C 
ENDROOT
BRANCH   1   2
ATOM      2  CB  LYS A 131      28.345  25.722  17.026  1.00 20.94     0.034 C 
BRANCH   2   3
ATOM      3  CG  LYS A 131      27.601  24.405  16.872  1.00 22.96     0.005 C 
BRANCH   3   4
ATOM      4  CD  LYS A 131      26.553  24.218  17.934  1.00 24.33     0.041 C 
BRANCH   4   5
ATOM      5  CE  LYS A 131      25.642  23.056  17.552  1.00 26.91     0.338 C 
ATOM      6  NZ  LYS A 131      24.357  23.559  17.013  1.00 27.40     0.618 N 
ENDBRANCH   4   5
ENDBRANCH   3   4
ENDBRANCH   2   3
ENDBRANCH   1   2
END_RES LYS A 131
BEGIN_RES LYS A 135
REMARK  4 active torsions:
REMARK  status: ('A' for Active; 'I' for Inactive)
REMARK    5  A    between atoms: CA   and  CB  
REMARK    6  A    between atoms: CB   and  CG  
REMARK    7  A    between atoms: CG   and  CD  
REMARK    8  A    between atoms: CD   and  CE  
ROOT
ATOM      7  CA  LYS A 135      33.193  34.663   9.290  1.00 25.02     0.186 C 
ENDROOT
BRANCH   7   8
ATOM      8  CB  LYS A 135      32.060  35.360  10.034  1.00 26.63     0.034 C 
BRANCH   8   9
ATOM      9  CG  LYS A 135      30.799  35.497   9.220  1.00 29.45     0.005 C 
BRANCH   9  10
ATOM     10  CD  LYS A 135      30.173  34.135   8.967  1.00 32.00     0.041 C 
BRANCH  10  11
ATOM     11  CE  LYS A 135      28.734  34.113   9.446  1.00 34.25     0.338 C 
ATOM     12  NZ  LYS A 135      28.515  35.109  10.531  1.00 35.99     0.618 N 
ENDBRANCH  10  11
ENDBRANCH   9  10
ENDBRANCH   8   9
ENDBRANCH   7   8
END_RES LYS A 135
