REMARK VINA RESULT:    -4.907      8.387     13.256
REMARK INTER + INTRA:         -15.527
REMARK INTER:                  -9.306
REMARK INTRA:                  -6.221
REMARK UNBOUND:                -6.317
REMARK SMILES CC(=O)N[C@@H]1[C@@H](O)C[C@](O)(C(=O)O)O[C@H]1C(O)[C@H](O)CNC(=O)OCc1cn(-c2cccc(C=CC(=O)O)c2)nn1
REMARK SMILES IDX 21 1 22 2 23 3 20 5 18 6 16 7 15 8 9 9 8 10 14 11 6 12 5 13
REMARK SMILES IDX 10 14 11 16 12 17 13 18 7 20 4 22 2 23 1 25 3 26 17 27 19 29
REMARK SMILES IDX 24 31 25 32 26 33 27 34 41 35 28 36 40 37 29 38 39 39 30 40
REMARK SMILES IDX 33 41 31 42 32 43 34 44 35 45 36 46 37 47 38 48
REMARK H PARENT 21 4 10 15 13 19 7 21 4 24 17 28 19 30 38 49
REMARK Flexibility Score: inf
ROOT
ATOM      1  N   UNL     1      26.953  28.093  17.353  1.00  0.00    -0.319 N 
ATOM      2  C   UNL     1      26.540  29.367  16.898  1.00  0.00     0.407 C 
ATOM      3  O   UNL     1      25.571  29.978  17.393  1.00  0.00    -0.225 OA
ATOM      4  H   UNL     1      27.798  27.667  16.836  1.00  0.00     0.167 HD
ENDROOT
BRANCH   1   5
ATOM      5  C   UNL     1      26.358  27.339  18.418  1.00  0.00     0.154 C 
BRANCH   5   6
ATOM      6  C   UNL     1      27.201  27.389  19.652  1.00  0.00     0.165 C 
BRANCH   6   7
ATOM      7  C   UNL     1      27.308  28.770  20.269  1.00  0.00     0.176 C 
BRANCH   7   8
ATOM      8  C   UNL     1      28.709  29.260  20.240  1.00  0.00     0.178 C 
ATOM      9  C   UNL     1      30.814  29.357  21.186  1.00  0.00     0.269 C 
ATOM     10  C   UNL     1      31.119  30.112  19.922  1.00  0.00     0.112 C 
ATOM     11  O   UNL     1      29.553  28.792  21.197  1.00  0.00    -0.332 OA
ATOM     12  C   UNL     1      30.102  31.114  19.516  1.00  0.00     0.145 C 
ATOM     13  C   UNL     1      28.780  30.784  20.167  1.00  0.00     0.142 C 
BRANCH   9  14
ATOM     14  O   UNL     1      31.050  30.183  22.284  1.00  0.00    -0.357 OA
ATOM     15  H   UNL     1      30.779  29.770  23.132  1.00  0.00     0.214 HD
ENDBRANCH   9  14
BRANCH   9  16
ATOM     16  C   UNL     1      31.791  28.236  21.270  1.00  0.00     0.364 C 
ATOM     17  O   UNL     1      31.467  27.089  20.810  1.00  0.00    -0.246 OA
BRANCH  16  18
ATOM     18  O   UNL     1      33.050  28.390  21.834  1.00  0.00    -0.477 OA
ATOM     19  H   UNL     1      33.300  28.002  22.721  1.00  0.00     0.296 HD
ENDBRANCH  16  18
ENDBRANCH   9  16
BRANCH  12  20
ATOM     20  O   UNL     1      30.485  32.429  19.764  1.00  0.00    -0.391 OA
ATOM     21  H   UNL     1      29.810  33.037  19.422  1.00  0.00     0.211 HD
ENDBRANCH  12  20
BRANCH  13  22
ATOM     22  N   UNL     1      27.664  31.359  19.483  1.00  0.00    -0.348 N 
ATOM     23  C   UNL     1      26.950  32.476  19.988  1.00  0.00     0.217 C 
ATOM     24  H   UNL     1      27.321  30.966  18.556  1.00  0.00     0.163 HD
ATOM     25  C   UNL     1      25.804  33.035  19.246  1.00  0.00     0.114 C 
ATOM     26  O   UNL     1      27.280  33.010  21.076  1.00  0.00    -0.275 OA
ENDBRANCH  13  22
ENDBRANCH   7   8
BRANCH   7  27
ATOM     27  O   UNL     1      26.687  28.841  21.511  1.00  0.00    -0.388 OA
ATOM     28  H   UNL     1      26.673  29.783  21.788  1.00  0.00     0.211 HD
ENDBRANCH   7  27
ENDBRANCH   6   7
BRANCH   6  29
ATOM     29  O   UNL     1      28.491  26.907  19.420  1.00  0.00    -0.388 OA
ATOM     30  H   UNL     1      29.134  27.470  19.933  1.00  0.00     0.211 HD
ENDBRANCH   6  29
ENDBRANCH   5   6
ENDBRANCH   1   5
BRANCH   2  31
ATOM     31  O   UNL     1      27.219  30.014  15.845  1.00  0.00    -0.443 OA
BRANCH  31  32
ATOM     32  C   UNL     1      28.611  30.031  15.850  1.00  0.00     0.294 C 
BRANCH  32  33
ATOM     33  C   UNL     1      29.172  31.376  16.121  1.00  0.00     0.121 A 
ATOM     34  C   UNL     1      30.421  31.888  15.865  1.00  0.00     0.144 A 
ATOM     35  N   UNL     1      28.493  32.379  16.704  1.00  0.00    -0.131 NA
ATOM     36  N   UNL     1      30.481  33.175  16.290  1.00  0.00    -0.220 N 
ATOM     37  N   UNL     1      29.292  33.444  16.796  1.00  0.00    -0.062 NA
BRANCH  36  38
ATOM     38  C   UNL     1      31.625  34.025  16.188  1.00  0.00     0.067 A 
ATOM     39  C   UNL     1      32.111  34.696  17.278  1.00  0.00     0.036 A 
ATOM     40  C   UNL     1      32.261  34.186  14.979  1.00  0.00     0.028 A 
ATOM     41  C   UNL     1      33.249  35.546  17.185  1.00  0.00    -0.023 A 
ATOM     42  C   UNL     1      33.355  34.985  14.823  1.00  0.00     0.003 A 
ATOM     43  C   UNL     1      33.839  35.664  15.954  1.00  0.00     0.008 A 
BRANCH  41  44
ATOM     44  C   UNL     1      33.731  36.181  18.361  1.00  0.00     0.015 C 
ATOM     45  C   UNL     1      34.792  36.227  19.068  1.00  0.00     0.094 C 
BRANCH  45  46
ATOM     46  C   UNL     1      36.071  35.640  19.018  1.00  0.00     0.328 C 
ATOM     47  O   UNL     1      36.581  35.162  20.152  1.00  0.00    -0.247 OA
BRANCH  46  48
ATOM     48  O   UNL     1      36.958  35.447  17.989  1.00  0.00    -0.478 OA
ATOM     49  H   UNL     1      37.157  36.142  17.286  1.00  0.00     0.297 HD
ENDBRANCH  46  48
ENDBRANCH  45  46
ENDBRANCH  41  44
ENDBRANCH  36  38
ENDBRANCH  32  33
ENDBRANCH  31  32
ENDBRANCH   2  31
TORSDOF 18
BEGIN_RES LYS A 131
REMARK  4 active torsions:
REMARK  status: ('A' for Active; 'I' for Inactive)
REMARK    1  A    between atoms: CA   and  CB  
REMARK    2  A    between atoms: CB   and  CG  
REMARK    3  A    between atoms: CG   and  CD  
REMARK    4  A    between atoms: CD   and  CE  
ROOT
ATOM      1  CA  LYS A 131      29.867  25.555  16.977  1.00 20.52     0.186 C 
ENDROOT
BRANCH   1   2
ATOM      2  CB  LYS A 131      28.345  25.722  17.026  1.00 20.94     0.034 C 
BRANCH   2   3
ATOM      3  CG  LYS A 131      27.599  24.477  16.571  1.00 22.96     0.005 C 
BRANCH   3   4
ATOM      4  CD  LYS A 131      27.203  23.600  17.726  1.00 24.33     0.041 C 
BRANCH   4   5
ATOM      5  CE  LYS A 131      25.717  23.273  17.631  1.00 26.91     0.338 C 
ATOM      6  NZ  LYS A 131      24.991  24.357  16.927  1.00 27.40     0.618 N 
ENDBRANCH   4   5
ENDBRANCH   3   4
ENDBRANCH   2   3
ENDBRANCH   1   2
END_RES LYS A 131
BEGIN_RES LYS A 135
REMARK  4 active torsions:
REMARK  status: ('A' for Active; 'I' for Inactive)
REMARK    5  A    between atoms: CA   and  CB  
REMARK    6  A    between atoms: CB   and  CG  
REMARK    7  A    between atoms: CG   and  CD  
REMARK    8  A    between atoms: CD   and  CE  
ROOT
ATOM      7  CA  LYS A 135      33.193  34.663   9.290  1.00 25.02     0.186 C 
ENDROOT
BRANCH   7   8
ATOM      8  CB  LYS A 135      32.060  35.360  10.034  1.00 26.63     0.034 C 
BRANCH   8   9
ATOM      9  CG  LYS A 135      30.704  35.129   9.419  1.00 29.45     0.005 C 
BRANCH   9  10
ATOM     10  CD  LYS A 135      29.658  34.896  10.498  1.00 32.00     0.041 C 
BRANCH  10  11
ATOM     11  CE  LYS A 135      30.302  34.888  11.871  1.00 34.25     0.338 C 
ATOM     12  NZ  LYS A 135      29.317  34.511  12.923  1.00 35.99     0.618 N 
ENDBRANCH  10  11
ENDBRANCH   9  10
ENDBRANCH   8   9
ENDBRANCH   7   8
END_RES LYS A 135
