REMARK VINA RESULT:    -4.430      2.313      4.299
REMARK INTER + INTRA:         -16.209
REMARK INTER:                  -8.589
REMARK INTRA:                  -7.620
REMARK UNBOUND:                -7.118
REMARK SMILES CC(=O)N[C@@H]1[C@@H](O)C[C@](O)(C(=O)O)O[C@H]1C(O)[C@H](O)CNC(=O)OCc1cn(C[C@H](CC(=O)O)CC(C)C)nn1
REMARK SMILES IDX 24 1 22 2 21 3 23 5 20 6 18 7 16 8 15 9 9 10 8 11 14 12 6 13
REMARK SMILES IDX 5 14 10 15 11 17 12 18 13 19 7 21 4 23 2 24 1 26 3 27 17 28
REMARK SMILES IDX 19 30 25 32 26 33 27 34 40 35 28 36 39 37 29 38 30 39 31 40
REMARK SMILES IDX 32 41 33 42 34 43 35 45 36 46 37 47 38 48
REMARK H PARENT 21 4 10 16 13 20 7 22 4 25 17 29 19 31 34 44
REMARK Flexibility Score: inf
ROOT
ATOM      1  O   UNL     1      31.796  32.510  22.810  1.00  0.00    -0.443 OA
ENDROOT
BRANCH   1   2
ATOM      2  C   UNL     1      32.500  31.388  22.338  1.00  0.00     0.407 C 
ATOM      3  N   UNL     1      31.872  30.414  21.525  1.00  0.00    -0.319 N 
ATOM      4  H   UNL     1      30.843  30.589  21.296  1.00  0.00     0.167 HD
ATOM      5  O   UNL     1      33.707  31.276  22.661  1.00  0.00    -0.225 OA
BRANCH   3   6
ATOM      6  C   UNL     1      32.545  29.241  21.016  1.00  0.00     0.154 C 
BRANCH   6   7
ATOM      7  C   UNL     1      31.550  28.329  20.386  1.00  0.00     0.165 C 
BRANCH   7   8
ATOM      8  C   UNL     1      30.671  27.599  21.389  1.00  0.00     0.176 C 
BRANCH   8   9
ATOM      9  C   UNL     1      29.225  27.667  21.007  1.00  0.00     0.178 C 
ATOM     10  C   UNL     1      28.176  29.679  20.513  1.00  0.00     0.269 C 
ATOM     11  C   UNL     1      26.864  29.276  21.141  1.00  0.00     0.112 C 
ATOM     12  O   UNL     1      28.906  28.592  20.058  1.00  0.00    -0.332 OA
ATOM     13  C   UNL     1      26.910  27.864  21.684  1.00  0.00     0.145 C 
ATOM     14  C   UNL     1      28.330  27.699  22.243  1.00  0.00     0.142 C 
BRANCH  10  15
ATOM     15  O   UNL     1      28.920  30.482  21.382  1.00  0.00    -0.357 OA
ATOM     16  H   UNL     1      29.884  30.366  21.287  1.00  0.00     0.214 HD
ENDBRANCH  10  15
BRANCH  10  17
ATOM     17  C   UNL     1      27.857  30.513  19.324  1.00  0.00     0.364 C 
ATOM     18  O   UNL     1      27.613  29.937  18.220  1.00  0.00    -0.246 OA
BRANCH  17  19
ATOM     19  O   UNL     1      27.807  31.891  19.349  1.00  0.00    -0.477 OA
ATOM     20  H   UNL     1      28.639  32.416  19.660  1.00  0.00     0.296 HD
ENDBRANCH  17  19
ENDBRANCH  10  17
BRANCH  13  21
ATOM     21  O   UNL     1      25.946  27.612  22.628  1.00  0.00    -0.391 OA
ATOM     22  H   UNL     1      25.144  28.165  22.378  1.00  0.00     0.211 HD
ENDBRANCH  13  21
BRANCH  14  23
ATOM     23  N   UNL     1      28.462  26.447  22.946  1.00  0.00    -0.348 N 
ATOM     24  C   UNL     1      28.317  26.390  24.367  1.00  0.00     0.217 C 
ATOM     25  H   UNL     1      28.667  25.535  22.468  1.00  0.00     0.163 HD
ATOM     26  C   UNL     1      28.446  25.126  25.116  1.00  0.00     0.114 C 
ATOM     27  O   UNL     1      28.072  27.445  25.004  1.00  0.00    -0.275 OA
ENDBRANCH  14  23
ENDBRANCH   8   9
BRANCH   8  28
ATOM     28  O   UNL     1      30.943  28.013  22.672  1.00  0.00    -0.388 OA
ATOM     29  H   UNL     1      31.883  28.285  22.727  1.00  0.00     0.211 HD
ENDBRANCH   8  28
ENDBRANCH   7   8
BRANCH   7  30
ATOM     30  O   UNL     1      32.255  27.337  19.664  1.00  0.00    -0.388 OA
ATOM     31  H   UNL     1      32.754  27.733  18.913  1.00  0.00     0.211 HD
ENDBRANCH   7  30
ENDBRANCH   6   7
ENDBRANCH   3   6
ENDBRANCH   1   2
BRANCH   1  32
ATOM     32  C   UNL     1      31.994  33.729  22.140  1.00  0.00     0.294 C 
BRANCH  32  33
ATOM     33  C   UNL     1      31.545  33.680  20.737  1.00  0.00     0.120 A 
ATOM     34  C   UNL     1      32.174  34.121  19.583  1.00  0.00     0.138 A 
ATOM     35  N   UNL     1      30.382  33.165  20.320  1.00  0.00    -0.132 NA
ATOM     36  N   UNL     1      31.384  33.862  18.527  1.00  0.00    -0.252 N 
ATOM     37  N   UNL     1      30.308  33.285  18.998  1.00  0.00    -0.067 NA
BRANCH  36  38
ATOM     38  C   UNL     1      31.717  34.191  17.114  1.00  0.00     0.150 C 
BRANCH  38  39
ATOM     39  C   UNL     1      30.661  33.655  16.212  1.00  0.00     0.022 C 
BRANCH  39  40
ATOM     40  C   UNL     1      31.135  32.311  15.688  1.00  0.00     0.128 C 
BRANCH  40  41
ATOM     41  C   UNL     1      30.203  31.250  16.146  1.00  0.00     0.303 C 
ATOM     42  O   UNL     1      29.246  30.888  15.439  1.00  0.00    -0.252 OA
BRANCH  41  43
ATOM     43  O   UNL     1      30.446  30.680  17.399  1.00  0.00    -0.481 OA
ATOM     44  H   UNL     1      30.114  29.755  17.593  1.00  0.00     0.296 HD
ENDBRANCH  41  43
ENDBRANCH  40  41
ENDBRANCH  39  40
BRANCH  39  45
ATOM     45  C   UNL     1      30.235  34.606  15.171  1.00  0.00     0.009 C 
BRANCH  45  46
ATOM     46  C   UNL     1      30.674  34.365  13.777  1.00  0.00    -0.017 C 
ATOM     47  C   UNL     1      29.422  34.640  12.896  1.00  0.00     0.007 C 
ATOM     48  C   UNL     1      31.771  35.223  13.247  1.00  0.00     0.007 C 
ENDBRANCH  45  46
ENDBRANCH  39  45
ENDBRANCH  38  39
ENDBRANCH  36  38
ENDBRANCH  32  33
ENDBRANCH   1  32
TORSDOF 21
BEGIN_RES LYS A 131
REMARK  4 active torsions:
REMARK  status: ('A' for Active; 'I' for Inactive)
REMARK    1  A    between atoms: CA   and  CB  
REMARK    2  A    between atoms: CB   and  CG  
REMARK    3  A    between atoms: CG   and  CD  
REMARK    4  A    between atoms: CD   and  CE  
ROOT
ATOM      1  CA  LYS A 131      29.867  25.555  16.977  1.00 20.52     0.186 C 
ENDROOT
BRANCH   1   2
ATOM      2  CB  LYS A 131      28.345  25.722  17.026  1.00 20.94     0.034 C 
BRANCH   2   3
ATOM      3  CG  LYS A 131      27.599  24.432  16.720  1.00 22.96     0.005 C 
BRANCH   3   4
ATOM      4  CD  LYS A 131      26.988  23.826  17.953  1.00 24.33     0.041 C 
BRANCH   4   5
ATOM      5  CE  LYS A 131      25.648  24.497  18.239  1.00 26.91     0.338 C 
ATOM      6  NZ  LYS A 131      24.784  24.465  17.036  1.00 27.40     0.618 N 
ENDBRANCH   4   5
ENDBRANCH   3   4
ENDBRANCH   2   3
ENDBRANCH   1   2
END_RES LYS A 131
BEGIN_RES LYS A 135
REMARK  4 active torsions:
REMARK  status: ('A' for Active; 'I' for Inactive)
REMARK    5  A    between atoms: CA   and  CB  
REMARK    6  A    between atoms: CB   and  CG  
REMARK    7  A    between atoms: CG   and  CD  
REMARK    8  A    between atoms: CD   and  CE  
ROOT
ATOM      7  CA  LYS A 135      33.193  34.663   9.290  1.00 25.02     0.186 C 
ENDROOT
BRANCH   7   8
ATOM      8  CB  LYS A 135      32.060  35.360  10.034  1.00 26.63     0.034 C 
BRANCH   8   9
ATOM      9  CG  LYS A 135      30.771  35.413   9.255  1.00 29.45     0.005 C 
BRANCH   9  10
ATOM     10  CD  LYS A 135      30.162  34.025   9.130  1.00 32.00     0.041 C 
BRANCH  10  11
ATOM     11  CE  LYS A 135      28.649  34.112   9.061  1.00 34.25     0.338 C 
ATOM     12  NZ  LYS A 135      28.215  35.139   8.074  1.00 35.99     0.618 N 
ENDBRANCH  10  11
ENDBRANCH   9  10
ENDBRANCH   8   9
ENDBRANCH   7   8
END_RES LYS A 135
