REMARK VINA RESULT:    -4.082      3.057      8.765
REMARK INTER + INTRA:         -13.730
REMARK INTER:                  -8.533
REMARK INTRA:                  -5.197
REMARK UNBOUND:                -5.949
REMARK SMILES CCOC(=O)Cn1cc(COC(=O)NC[C@@H](O)C(O)[C@@H]2O[C@@](O)(C(=O)O)C[C@H](O)[C@H]2NC(C)=O)nn1
REMARK SMILES IDX 14 1 12 2 13 3 15 5 16 6 18 7 20 8 22 9 27 10 21 11 28 12
REMARK SMILES IDX 30 13 23 14 24 16 25 17 26 18 29 20 31 22 32 23 33 25 34 26
REMARK SMILES IDX 19 27 17 29 11 31 10 32 9 33 8 34 35 35 7 36 36 37 6 38 4 39
REMARK SMILES IDX 5 40 3 41 2 42 1 43
REMARK H PARENT 14 4 23 15 26 19 29 21 31 24 19 28 17 30
REMARK Flexibility Score: inf
ROOT
ATOM      1  N   UNL     1      29.639  32.106  15.008  1.00  0.00    -0.319 N 
ATOM      2  C   UNL     1      30.561  33.123  14.670  1.00  0.00     0.407 C 
ATOM      3  O   UNL     1      31.570  33.356  15.343  1.00  0.00    -0.225 OA
ATOM      4  H   UNL     1      28.820  32.027  14.319  1.00  0.00     0.167 HD
ENDROOT
BRANCH   1   5
ATOM      5  C   UNL     1      29.714  31.232  16.132  1.00  0.00     0.154 C 
BRANCH   5   6
ATOM      6  C   UNL     1      28.493  31.102  16.976  1.00  0.00     0.165 C 
BRANCH   6   7
ATOM      7  C   UNL     1      28.276  29.744  17.540  1.00  0.00     0.176 C 
BRANCH   7   8
ATOM      8  C   UNL     1      27.498  29.678  18.826  1.00  0.00     0.178 C 
ATOM      9  C   UNL     1      28.269  27.951  20.201  1.00  0.00     0.269 C 
ATOM     10  C   UNL     1      26.973  27.796  20.966  1.00  0.00     0.112 C 
ATOM     11  O   UNL     1      28.397  29.243  19.797  1.00  0.00    -0.332 OA
ATOM     12  C   UNL     1      25.861  28.391  20.183  1.00  0.00     0.145 C 
ATOM     13  C   UNL     1      26.275  28.806  18.761  1.00  0.00     0.142 C 
BRANCH   9  14
ATOM     14  O   UNL     1      28.263  26.992  19.205  1.00  0.00    -0.357 OA
ATOM     15  H   UNL     1      29.145  27.008  18.767  1.00  0.00     0.214 HD
ENDBRANCH   9  14
BRANCH   9  16
ATOM     16  C   UNL     1      29.359  27.651  21.158  1.00  0.00     0.364 C 
ATOM     17  O   UNL     1      29.529  28.417  22.130  1.00  0.00    -0.246 OA
BRANCH  16  18
ATOM     18  O   UNL     1      30.177  26.561  21.003  1.00  0.00    -0.477 OA
ATOM     19  H   UNL     1      31.113  26.521  21.407  1.00  0.00     0.296 HD
ENDBRANCH  16  18
ENDBRANCH   9  16
BRANCH  12  20
ATOM     20  O   UNL     1      24.739  27.572  20.093  1.00  0.00    -0.391 OA
ATOM     21  H   UNL     1      23.895  28.036  20.265  1.00  0.00     0.211 HD
ENDBRANCH  12  20
BRANCH  13  22
ATOM     22  N   UNL     1      25.126  29.533  18.264  1.00  0.00    -0.348 N 
ATOM     23  C   UNL     1      24.163  29.024  17.374  1.00  0.00     0.217 C 
ATOM     24  H   UNL     1      25.006  30.515  18.597  1.00  0.00     0.163 HD
ATOM     25  C   UNL     1      22.992  29.787  16.877  1.00  0.00     0.114 C 
ATOM     26  O   UNL     1      24.321  27.828  16.977  1.00  0.00    -0.275 OA
ENDBRANCH  13  22
ENDBRANCH   7   8
BRANCH   7  27
ATOM     27  O   UNL     1      27.809  28.871  16.588  1.00  0.00    -0.388 OA
ATOM     28  H   UNL     1      27.439  28.027  16.950  1.00  0.00     0.211 HD
ENDBRANCH   7  27
ENDBRANCH   6   7
BRANCH   6  29
ATOM     29  O   UNL     1      27.373  31.369  16.161  1.00  0.00    -0.388 OA
ATOM     30  H   UNL     1      27.186  32.353  16.142  1.00  0.00     0.211 HD
ENDBRANCH   6  29
ENDBRANCH   5   6
ENDBRANCH   1   5
BRANCH   2  31
ATOM     31  O   UNL     1      30.359  33.927  13.525  1.00  0.00    -0.443 OA
BRANCH  31  32
ATOM     32  C   UNL     1      29.636  35.141  13.607  1.00  0.00     0.294 C 
BRANCH  32  33
ATOM     33  C   UNL     1      28.247  34.842  13.168  1.00  0.00     0.120 A 
ATOM     34  C   UNL     1      27.169  34.489  13.946  1.00  0.00     0.139 A 
ATOM     35  N   UNL     1      27.763  34.859  11.895  1.00  0.00    -0.132 NA
ATOM     36  N   UNL     1      26.103  34.313  13.116  1.00  0.00    -0.241 N 
ATOM     37  N   UNL     1      26.499  34.546  11.876  1.00  0.00    -0.066 NA
BRANCH  36  38
ATOM     38  C   UNL     1      24.756  33.938  13.476  1.00  0.00     0.268 C 
BRANCH  38  39
ATOM     39  C   UNL     1      24.717  32.575  14.029  1.00  0.00     0.327 C 
ATOM     40  O   UNL     1      24.770  32.416  15.267  1.00  0.00    -0.250 OA
BRANCH  39  41
ATOM     41  O   UNL     1      24.622  31.502  13.142  1.00  0.00    -0.465 OA
BRANCH  41  42
ATOM     42  C   UNL     1      23.353  30.841  13.104  1.00  0.00     0.229 C 
ATOM     43  C   UNL     1      23.595  29.399  12.738  1.00  0.00     0.049 C 
ENDBRANCH  41  42
ENDBRANCH  39  41
ENDBRANCH  38  39
ENDBRANCH  36  38
ENDBRANCH  32  33
ENDBRANCH  31  32
ENDBRANCH   2  31
TORSDOF 18
BEGIN_RES LYS A 131
REMARK  4 active torsions:
REMARK  status: ('A' for Active; 'I' for Inactive)
REMARK    1  A    between atoms: CA   and  CB  
REMARK    2  A    between atoms: CB   and  CG  
REMARK    3  A    between atoms: CG   and  CD  
REMARK    4  A    between atoms: CD   and  CE  
ROOT
ATOM      1  CA  LYS A 131      29.867  25.555  16.977  1.00 20.52     0.186 C 
ENDROOT
BRANCH   1   2
ATOM      2  CB  LYS A 131      28.345  25.722  17.026  1.00 20.94     0.034 C 
BRANCH   2   3
ATOM      3  CG  LYS A 131      27.602  24.398  16.939  1.00 22.96     0.005 C 
BRANCH   3   4
ATOM      4  CD  LYS A 131      26.124  24.561  17.162  1.00 24.33     0.041 C 
BRANCH   4   5
ATOM      5  CE  LYS A 131      25.836  24.600  18.659  1.00 26.91     0.338 C 
ATOM      6  NZ  LYS A 131      25.705  23.226  19.198  1.00 27.40     0.618 N 
ENDBRANCH   4   5
ENDBRANCH   3   4
ENDBRANCH   2   3
ENDBRANCH   1   2
END_RES LYS A 131
BEGIN_RES LYS A 135
REMARK  4 active torsions:
REMARK  status: ('A' for Active; 'I' for Inactive)
REMARK    5  A    between atoms: CA   and  CB  
REMARK    6  A    between atoms: CB   and  CG  
REMARK    7  A    between atoms: CG   and  CD  
REMARK    8  A    between atoms: CD   and  CE  
ROOT
ATOM      7  CA  LYS A 135      33.193  34.663   9.290  1.00 25.02     0.186 C 
ENDROOT
BRANCH   7   8
ATOM      8  CB  LYS A 135      32.060  35.360  10.034  1.00 26.63     0.034 C 
BRANCH   8   9
ATOM      9  CG  LYS A 135      30.726  34.676   9.878  1.00 29.45     0.005 C 
BRANCH   9  10
ATOM     10  CD  LYS A 135      30.352  34.557   8.409  1.00 32.00     0.041 C 
BRANCH  10  11
ATOM     11  CE  LYS A 135      29.098  35.355   8.113  1.00 34.25     0.338 C 
ATOM     12  NZ  LYS A 135      27.874  34.543   8.359  1.00 35.99     0.618 N 
ENDBRANCH  10  11
ENDBRANCH   9  10
ENDBRANCH   8   9
ENDBRANCH   7   8
END_RES LYS A 135
