REMARK VINA RESULT:    -5.273      1.654      2.100
REMARK INTER + INTRA:         -15.552
REMARK INTER:                  -9.505
REMARK INTRA:                  -6.047
REMARK UNBOUND:                -5.964
REMARK SMILES CC(=O)N[C@@H]1[C@@H](O)C[C@](O)(C(=O)O)O[C@H]1C(O)[C@H](O)CNC(=O)OCc1cn(-c2ccc(S(N)(=O)=O)cc2)nn1
REMARK SMILES IDX 21 1 22 2 23 3 20 5 18 6 16 7 15 8 9 9 8 10 14 11 6 12 5 13
REMARK SMILES IDX 10 14 11 16 12 17 13 18 7 20 4 22 2 23 1 25 3 26 17 27 19 29
REMARK SMILES IDX 24 31 25 32 26 33 27 34 40 35 28 36 39 37 29 38 30 39 38 40
REMARK SMILES IDX 31 41 37 42 32 43 33 44 35 45 36 46 34 47
REMARK H PARENT 21 4 10 15 13 19 7 21 4 24 17 28 19 30 34 48 34 49
REMARK Flexibility Score: inf
ROOT
ATOM      1  N   UNL     1      26.762  29.281  19.676  1.00  0.00    -0.319 N 
ATOM      2  C   UNL     1      25.442  29.310  19.204  1.00  0.00     0.407 C 
ATOM      3  O   UNL     1      24.586  28.532  19.657  1.00  0.00    -0.225 OA
ATOM      4  H   UNL     1      27.441  29.971  19.252  1.00  0.00     0.167 HD
ENDROOT
BRANCH   1   5
ATOM      5  C   UNL     1      27.193  28.374  20.681  1.00  0.00     0.154 C 
BRANCH   5   6
ATOM      6  C   UNL     1      28.675  28.033  20.583  1.00  0.00     0.165 C 
BRANCH   6   7
ATOM      7  C   UNL     1      29.427  29.282  20.224  1.00  0.00     0.176 C 
BRANCH   7   8
ATOM      8  C   UNL     1      30.704  29.468  20.950  1.00  0.00     0.178 C 
ATOM      9  C   UNL     1      31.662  28.946  23.009  1.00  0.00     0.269 C 
ATOM     10  C   UNL     1      32.878  29.389  22.233  1.00  0.00     0.112 C 
ATOM     11  O   UNL     1      30.507  29.013  22.281  1.00  0.00    -0.332 OA
ATOM     12  C   UNL     1      32.691  30.703  21.541  1.00  0.00     0.145 C 
ATOM     13  C   UNL     1      31.261  30.836  21.076  1.00  0.00     0.142 C 
BRANCH   9  14
ATOM     14  O   UNL     1      31.558  29.647  24.234  1.00  0.00    -0.357 OA
ATOM     15  H   UNL     1      32.448  29.958  24.536  1.00  0.00     0.214 HD
ENDBRANCH   9  14
BRANCH   9  16
ATOM     16  C   UNL     1      31.884  27.524  23.386  1.00  0.00     0.364 C 
ATOM     17  O   UNL     1      33.003  27.013  23.132  1.00  0.00    -0.246 OA
BRANCH  16  18
ATOM     18  O   UNL     1      30.934  26.729  24.000  1.00  0.00    -0.477 OA
ATOM     19  H   UNL     1      31.001  25.714  23.965  1.00  0.00     0.296 HD
ENDBRANCH  16  18
ENDBRANCH   9  16
BRANCH  12  20
ATOM     20  O   UNL     1      33.073  31.716  22.411  1.00  0.00    -0.391 OA
ATOM     21  H   UNL     1      33.894  31.398  22.867  1.00  0.00     0.211 HD
ENDBRANCH  12  20
BRANCH  13  22
ATOM     22  N   UNL     1      31.091  31.734  19.998  1.00  0.00    -0.348 N 
ATOM     23  C   UNL     1      30.841  33.112  20.186  1.00  0.00     0.217 C 
ATOM     24  H   UNL     1      31.167  31.397  19.018  1.00  0.00     0.163 HD
ATOM     25  C   UNL     1      30.661  34.054  19.027  1.00  0.00     0.114 C 
ATOM     26  O   UNL     1      30.771  33.536  21.354  1.00  0.00    -0.275 OA
ENDBRANCH  13  22
ENDBRANCH   7   8
BRANCH   7  27
ATOM     27  O   UNL     1      29.388  29.645  18.904  1.00  0.00    -0.388 OA
ATOM     28  H   UNL     1      29.703  30.573  18.815  1.00  0.00     0.211 HD
ENDBRANCH   7  27
ENDBRANCH   6   7
BRANCH   6  29
ATOM     29  O   UNL     1      28.832  26.977  19.726  1.00  0.00    -0.388 OA
ATOM     30  H   UNL     1      29.158  27.296  18.839  1.00  0.00     0.211 HD
ENDBRANCH   6  29
ENDBRANCH   5   6
ENDBRANCH   1   5
BRANCH   2  31
ATOM     31  O   UNL     1      25.017  30.204  18.209  1.00  0.00    -0.443 OA
BRANCH  31  32
ATOM     32  C   UNL     1      25.259  29.948  16.861  1.00  0.00     0.294 C 
BRANCH  32  33
ATOM     33  C   UNL     1      26.652  30.263  16.474  1.00  0.00     0.121 A 
ATOM     34  C   UNL     1      27.226  31.464  16.132  1.00  0.00     0.144 A 
ATOM     35  N   UNL     1      27.651  29.348  16.392  1.00  0.00    -0.131 NA
ATOM     36  N   UNL     1      28.528  31.275  15.855  1.00  0.00    -0.220 N 
ATOM     37  N   UNL     1      28.748  29.986  16.022  1.00  0.00    -0.062 NA
BRANCH  36  38
ATOM     38  C   UNL     1      29.504  32.234  15.459  1.00  0.00     0.066 A 
ATOM     39  C   UNL     1      30.827  32.117  15.826  1.00  0.00     0.030 A 
ATOM     40  C   UNL     1      29.160  33.329  14.687  1.00  0.00     0.030 A 
ATOM     41  C   UNL     1      31.782  33.035  15.452  1.00  0.00     0.024 A 
ATOM     42  C   UNL     1      30.114  34.251  14.311  1.00  0.00     0.024 A 
ATOM     43  C   UNL     1      31.440  34.145  14.671  1.00  0.00     0.082 A 
BRANCH  43  44
ATOM     44  S   UNL     1      32.656  35.310  14.200  1.00  0.00     0.238 S 
ATOM     45  O   UNL     1      32.060  36.676  14.390  1.00  0.00    -0.207 OA
ATOM     46  O   UNL     1      33.818  35.207  15.161  1.00  0.00    -0.207 OA
BRANCH  44  47
ATOM     47  N   UNL     1      33.182  35.105  12.583  1.00  0.00    -0.225 NA
ATOM     48  H   UNL     1      33.553  35.950  12.134  1.00  0.00     0.137 HD
ATOM     49  H   UNL     1      33.816  34.282  12.474  1.00  0.00     0.137 HD
ENDBRANCH  44  47
ENDBRANCH  43  44
ENDBRANCH  36  38
ENDBRANCH  32  33
ENDBRANCH  31  32
ENDBRANCH   2  31
TORSDOF 17
BEGIN_RES LYS A 131
REMARK  4 active torsions:
REMARK  status: ('A' for Active; 'I' for Inactive)
REMARK    1  A    between atoms: CA   and  CB  
REMARK    2  A    between atoms: CB   and  CG  
REMARK    3  A    between atoms: CG   and  CD  
REMARK    4  A    between atoms: CD   and  CE  
ROOT
ATOM      1  CA  LYS A 131      29.867  25.555  16.977  1.00 20.52     0.186 C 
ENDROOT
BRANCH   1   2
ATOM      2  CB  LYS A 131      28.345  25.722  17.026  1.00 20.94     0.034 C 
BRANCH   2   3
ATOM      3  CG  LYS A 131      27.600  24.409  16.842  1.00 22.96     0.005 C 
BRANCH   3   4
ATOM      4  CD  LYS A 131      26.723  24.086  18.020  1.00 24.33     0.041 C 
BRANCH   4   5
ATOM      5  CE  LYS A 131      26.080  25.366  18.542  1.00 26.91     0.338 C 
ATOM      6  NZ  LYS A 131      25.602  25.178  19.932  1.00 27.40     0.618 N 
ENDBRANCH   4   5
ENDBRANCH   3   4
ENDBRANCH   2   3
ENDBRANCH   1   2
END_RES LYS A 131
BEGIN_RES LYS A 135
REMARK  4 active torsions:
REMARK  status: ('A' for Active; 'I' for Inactive)
REMARK    5  A    between atoms: CA   and  CB  
REMARK    6  A    between atoms: CB   and  CG  
REMARK    7  A    between atoms: CG   and  CD  
REMARK    8  A    between atoms: CD   and  CE  
ROOT
ATOM      7  CA  LYS A 135      33.193  34.663   9.290  1.00 25.02     0.186 C 
ENDROOT
BRANCH   7   8
ATOM      8  CB  LYS A 135      32.060  35.360  10.034  1.00 26.63     0.034 C 
BRANCH   8   9
ATOM      9  CG  LYS A 135      30.801  35.501   9.218  1.00 29.45     0.005 C 
BRANCH   9  10
ATOM     10  CD  LYS A 135      30.167  34.141   8.970  1.00 32.00     0.041 C 
BRANCH  10  11
ATOM     11  CE  LYS A 135      28.782  34.079   9.587  1.00 34.25     0.338 C 
ATOM     12  NZ  LYS A 135      27.731  34.379   8.576  1.00 35.99     0.618 N 
ENDBRANCH  10  11
ENDBRANCH   9  10
ENDBRANCH   8   9
ENDBRANCH   7   8
END_RES LYS A 135
