REMARK VINA RESULT:    -5.223      4.663      7.712
REMARK INTER + INTRA:         -14.326
REMARK INTER:                  -7.532
REMARK INTRA:                  -6.795
REMARK UNBOUND:                -5.134
REMARK SMILES CC(=O)N[C@@H]1[C@@H](O)C[C@](O)(C(=O)O)O[C@H]1C(O)[C@H](O)CNC(=O)OCc1cn(-c2nc(C)nc(N)n2)nn1
REMARK SMILES IDX 21 1 22 2 23 3 20 5 18 6 16 7 15 8 9 9 8 10 14 11 6 12 5 13
REMARK SMILES IDX 10 14 11 16 12 17 13 18 7 20 4 22 2 23 1 25 3 26 17 27 19 29
REMARK SMILES IDX 24 31 25 32 26 33 27 34 38 35 28 36 37 37 29 38 36 39 30 40
REMARK SMILES IDX 34 41 31 42 33 43 32 44 35 45
REMARK H PARENT 21 4 10 15 13 19 7 21 4 24 17 28 19 30 35 46 35 47
REMARK Flexibility Score: inf
ROOT
ATOM      1  N   UNL     1      28.510  34.773  17.689  1.00  0.00    -0.319 N 
ATOM      2  C   UNL     1      27.652  35.808  17.270  1.00  0.00     0.407 C 
ATOM      3  O   UNL     1      27.962  37.020  17.270  1.00  0.00    -0.225 OA
ATOM      4  H   UNL     1      28.214  33.751  17.669  1.00  0.00     0.167 HD
ENDROOT
BRANCH   1   5
ATOM      5  C   UNL     1      29.839  35.091  18.165  1.00  0.00     0.154 C 
BRANCH   5   6
ATOM      6  C   UNL     1      30.703  35.437  16.993  1.00  0.00     0.165 C 
BRANCH   6   7
ATOM      7  C   UNL     1      31.829  34.432  16.857  1.00  0.00     0.176 C 
BRANCH   7   8
ATOM      8  C   UNL     1      31.934  34.045  15.390  1.00  0.00     0.178 C 
ATOM      9  C   UNL     1      31.985  35.891  13.927  1.00  0.00     0.269 C 
ATOM     10  C   UNL     1      30.547  35.693  13.563  1.00  0.00     0.112 C 
ATOM     11  O   UNL     1      32.572  35.012  14.734  1.00  0.00    -0.332 OA
ATOM     12  C   UNL     1      30.295  34.191  13.504  1.00  0.00     0.145 C 
ATOM     13  C   UNL     1      30.533  33.727  14.940  1.00  0.00     0.142 C 
BRANCH   9  14
ATOM     14  O   UNL     1      32.061  37.168  14.533  1.00  0.00    -0.357 OA
ATOM     15  H   UNL     1      32.566  37.136  15.378  1.00  0.00     0.214 HD
ENDBRANCH   9  14
BRANCH   9  16
ATOM     16  C   UNL     1      32.750  35.989  12.658  1.00  0.00     0.364 C 
ATOM     17  O   UNL     1      32.516  36.910  11.836  1.00  0.00    -0.246 OA
BRANCH  16  18
ATOM     18  O   UNL     1      33.743  35.082  12.325  1.00  0.00    -0.477 OA
ATOM     19  H   UNL     1      34.128  34.414  12.995  1.00  0.00     0.296 HD
ENDBRANCH  16  18
ENDBRANCH   9  16
BRANCH  12  20
ATOM     20  O   UNL     1      28.986  33.904  13.169  1.00  0.00    -0.391 OA
ATOM     21  H   UNL     1      28.402  34.388  13.820  1.00  0.00     0.211 HD
ENDBRANCH  12  20
BRANCH  13  22
ATOM     22  N   UNL     1      30.245  32.317  15.082  1.00  0.00    -0.348 N 
ATOM     23  C   UNL     1      28.985  31.871  15.556  1.00  0.00     0.217 C 
ATOM     24  H   UNL     1      31.015  31.662  14.817  1.00  0.00     0.163 HD
ATOM     25  C   UNL     1      28.754  30.415  15.679  1.00  0.00     0.114 C 
ATOM     26  O   UNL     1      28.071  32.665  15.870  1.00  0.00    -0.275 OA
ENDBRANCH  13  22
ENDBRANCH   7   8
BRANCH   7  27
ATOM     27  O   UNL     1      31.485  33.277  17.611  1.00  0.00    -0.388 OA
ATOM     28  H   UNL     1      32.285  32.684  17.517  1.00  0.00     0.211 HD
ENDBRANCH   7  27
ENDBRANCH   6   7
BRANCH   6  29
ATOM     29  O   UNL     1      31.204  36.736  17.163  1.00  0.00    -0.388 OA
ATOM     30  H   UNL     1      32.024  36.731  17.687  1.00  0.00     0.211 HD
ENDBRANCH   6  29
ENDBRANCH   5   6
ENDBRANCH   1   5
BRANCH   2  31
ATOM     31  O   UNL     1      26.364  35.470  16.820  1.00  0.00    -0.443 OA
BRANCH  31  32
ATOM     32  C   UNL     1      25.709  36.385  15.968  1.00  0.00     0.294 C 
BRANCH  32  33
ATOM     33  C   UNL     1      26.103  36.086  14.552  1.00  0.00     0.121 A 
ATOM     34  C   UNL     1      26.598  36.971  13.613  1.00  0.00     0.148 A 
ATOM     35  N   UNL     1      26.055  34.899  13.904  1.00  0.00    -0.131 NA
ATOM     36  N   UNL     1      26.834  36.325  12.454  1.00  0.00    -0.185 N 
ATOM     37  N   UNL     1      26.495  35.073  12.662  1.00  0.00    -0.059 NA
BRANCH  36  38
ATOM     38  C   UNL     1      27.350  36.899  11.248  1.00  0.00     0.257 A 
ATOM     39  N   UNL     1      28.608  37.369  11.167  1.00  0.00    -0.175 NA
ATOM     40  N   UNL     1      26.584  36.988  10.142  1.00  0.00    -0.196 NA
ATOM     41  C   UNL     1      29.129  37.913  10.056  1.00  0.00     0.225 A 
ATOM     42  C   UNL     1      27.053  37.528   8.989  1.00  0.00     0.133 A 
ATOM     43  N   UNL     1      28.311  37.978   8.970  1.00  0.00    -0.198 NA
ATOM     44  C   UNL     1      26.217  37.632   7.763  1.00  0.00     0.090 C 
BRANCH  41  45
ATOM     45  N   UNL     1      30.447  38.407   9.969  1.00  0.00    -0.368 N 
ATOM     46  H   UNL     1      31.207  37.792   9.649  1.00  0.00     0.159 HD
ATOM     47  H   UNL     1      30.646  39.384  10.226  1.00  0.00     0.159 HD
ENDBRANCH  41  45
ENDBRANCH  36  38
ENDBRANCH  32  33
ENDBRANCH  31  32
ENDBRANCH   2  31
TORSDOF 16
BEGIN_RES LYS A 131
REMARK  4 active torsions:
REMARK  status: ('A' for Active; 'I' for Inactive)
REMARK    1  A    between atoms: CA   and  CB  
REMARK    2  A    between atoms: CB   and  CG  
REMARK    3  A    between atoms: CG   and  CD  
REMARK    4  A    between atoms: CD   and  CE  
ROOT
ATOM      1  CA  LYS A 131      29.867  25.555  16.977  1.00 20.52     0.186 C 
ENDROOT
BRANCH   1   2
ATOM      2  CB  LYS A 131      28.345  25.722  17.026  1.00 20.94     0.034 C 
BRANCH   2   3
ATOM      3  CG  LYS A 131      27.601  24.402  16.894  1.00 22.96     0.005 C 
BRANCH   3   4
ATOM      4  CD  LYS A 131      26.133  24.548  17.183  1.00 24.33     0.041 C 
BRANCH   4   5
ATOM      5  CE  LYS A 131      25.556  23.195  17.587  1.00 26.91     0.338 C 
ATOM      6  NZ  LYS A 131      24.103  23.144  17.303  1.00 27.40     0.618 N 
ENDBRANCH   4   5
ENDBRANCH   3   4
ENDBRANCH   2   3
ENDBRANCH   1   2
END_RES LYS A 131
BEGIN_RES LYS A 135
REMARK  4 active torsions:
REMARK  status: ('A' for Active; 'I' for Inactive)
REMARK    5  A    between atoms: CA   and  CB  
REMARK    6  A    between atoms: CB   and  CG  
REMARK    7  A    between atoms: CG   and  CD  
REMARK    8  A    between atoms: CD   and  CE  
ROOT
ATOM      7  CA  LYS A 135      33.193  34.663   9.290  1.00 25.02     0.186 C 
ENDROOT
BRANCH   7   8
ATOM      8  CB  LYS A 135      32.060  35.360  10.034  1.00 26.63     0.034 C 
BRANCH   8   9
ATOM      9  CG  LYS A 135      30.724  34.683   9.868  1.00 29.45     0.005 C 
BRANCH   9  10
ATOM     10  CD  LYS A 135      30.273  34.734   8.417  1.00 32.00     0.041 C 
BRANCH  10  11
ATOM     11  CE  LYS A 135      28.788  34.444   8.310  1.00 34.25     0.338 C 
ATOM     12  NZ  LYS A 135      28.266  33.847   9.570  1.00 35.99     0.618 N 
ENDBRANCH  10  11
ENDBRANCH   9  10
ENDBRANCH   8   9
ENDBRANCH   7   8
END_RES LYS A 135
