REMARK VINA RESULT:    -9.358      3.188      5.474
REMARK INTER + INTRA:         -13.829
REMARK INTER:                  -9.687
REMARK INTRA:                  -4.142
REMARK UNBOUND:                 4.555
REMARK SMILES CC(=O)N[C@@H]1[C@@H](O)C[C@](O)(C(=O)O)O[C@H]1C(O)[C@H](O)CNC(=O)OCc1cn(C2CCc3ccccc3NC2=O)nn1
REMARK SMILES IDX 24 1 22 2 21 3 23 5 20 6 18 7 16 8 15 9 9 10 8 11 14 12 6 13
REMARK SMILES IDX 5 14 10 15 11 17 12 18 13 19 7 21 4 23 2 24 1 26 3 27 17 28
REMARK SMILES IDX 19 30 25 32 26 33 27 34 42 35 28 36 41 37 29 38 39 40 38 41
REMARK SMILES IDX 40 42 37 44 32 45 36 46 33 47 35 48 34 49 31 50 30 51
REMARK H PARENT 21 4 10 16 13 20 7 22 4 25 17 29 19 31 38 43
REMARK Flexibility Score: 80.00
ROOT
ATOM      1  O   UNL     1      25.832  36.440  16.362  1.00  0.00    -0.443 OA
ENDROOT
BRANCH   1   2
ATOM      2  C   UNL     1      26.902  36.438  17.224  1.00  0.00     0.407 C 
ATOM      3  N   UNL     1      28.153  37.013  16.819  1.00  0.00    -0.319 N 
ATOM      4  H   UNL     1      28.182  37.418  15.854  1.00  0.00     0.167 HD
ATOM      5  O   UNL     1      26.834  35.943  18.377  1.00  0.00    -0.225 OA
BRANCH   3   6
ATOM      6  C   UNL     1      29.309  37.030  17.696  1.00  0.00     0.154 C 
BRANCH   6   7
ATOM      7  C   UNL     1      30.525  36.654  16.886  1.00  0.00     0.165 C 
BRANCH   7   8
ATOM      8  C   UNL     1      30.801  35.166  16.910  1.00  0.00     0.176 C 
BRANCH   8   9
ATOM      9  C   UNL     1      30.926  34.620  15.479  1.00  0.00     0.178 C 
ATOM     10  C   UNL     1      31.324  35.562  13.368  1.00  0.00     0.269 C 
ATOM     11  C   UNL     1      30.438  34.481  12.833  1.00  0.00     0.112 C 
ATOM     12  O   UNL     1      31.476  35.584  14.727  1.00  0.00    -0.332 OA
ATOM     13  C   UNL     1      29.177  34.508  13.681  1.00  0.00     0.145 C 
ATOM     14  C   UNL     1      29.569  34.133  15.088  1.00  0.00     0.142 C 
BRANCH  10  15
ATOM     15  O   UNL     1      30.749  36.804  13.026  1.00  0.00    -0.357 OA
ATOM     16  H   UNL     1      31.330  37.483  13.458  1.00  0.00     0.214 HD
ENDBRANCH  10  15
BRANCH  10  17
ATOM     17  C   UNL     1      32.678  35.535  12.761  1.00  0.00     0.364 C 
ATOM     18  O   UNL     1      32.978  36.385  11.895  1.00  0.00    -0.246 OA
BRANCH  17  19
ATOM     19  O   UNL     1      33.636  34.592  13.122  1.00  0.00    -0.477 OA
ATOM     20  H   UNL     1      34.302  34.879  13.854  1.00  0.00     0.296 HD
ENDBRANCH  17  19
ENDBRANCH  10  17
BRANCH  13  21
ATOM     21  O   UNL     1      28.711  35.819  13.682  1.00  0.00    -0.391 OA
ATOM     22  H   UNL     1      29.403  36.381  14.106  1.00  0.00     0.211 HD
ENDBRANCH  13  21
BRANCH  14  23
ATOM     23  N   UNL     1      29.583  32.682  15.148  1.00  0.00    -0.348 N 
ATOM     24  C   UNL     1      28.596  31.915  15.821  1.00  0.00     0.217 C 
ATOM     25  H   UNL     1      30.375  32.160  14.661  1.00  0.00     0.163 HD
ATOM     26  C   UNL     1      28.719  30.438  15.813  1.00  0.00     0.114 C 
ATOM     27  O   UNL     1      27.657  32.522  16.399  1.00  0.00    -0.275 OA
ENDBRANCH  14  23
ENDBRANCH   8   9
BRANCH   8  28
ATOM     28  O   UNL     1      29.682  34.567  17.500  1.00  0.00    -0.388 OA
ATOM     29  H   UNL     1      29.030  35.214  17.844  1.00  0.00     0.211 HD
ENDBRANCH   8  28
ENDBRANCH   7   8
BRANCH   7  30
ATOM     30  O   UNL     1      31.645  37.368  17.295  1.00  0.00    -0.388 OA
ATOM     31  H   UNL     1      32.122  36.937  18.035  1.00  0.00     0.211 HD
ENDBRANCH   7  30
ENDBRANCH   6   7
ENDBRANCH   3   6
ENDBRANCH   1   2
BRANCH   1  32
ATOM     32  C   UNL     1      25.831  37.217  15.176  1.00  0.00     0.294 C 
BRANCH  32  33
ATOM     33  C   UNL     1      25.245  36.463  14.040  1.00  0.00     0.120 A 
ATOM     34  C   UNL     1      25.710  36.531  12.722  1.00  0.00     0.139 A 
ATOM     35  N   UNL     1      24.209  35.605  14.001  1.00  0.00    -0.132 NA
ATOM     36  N   UNL     1      24.953  35.731  11.952  1.00  0.00    -0.240 N 
ATOM     37  N   UNL     1      24.062  35.191  12.755  1.00  0.00    -0.066 NA
BRANCH  36  38
ATOM     38  C   UNL     1      25.087  35.516  10.528  1.00  0.00     0.198 CG0
ATOM     39  G   UNL     1      26.463  35.008  10.243  1.00  0.00     0.000 G0
BRANCH  38  40
ATOM     40  C   UNL     1      24.759  36.750   9.760  1.00  0.00     0.249 C 
ATOM     41  N   UNL     1      25.417  37.411   8.696  1.00  0.00    -0.324 N 
ATOM     42  O   UNL     1      23.691  37.282  10.153  1.00  0.00    -0.272 OA
ATOM     43  H   UNL     1      25.154  38.395   8.473  1.00  0.00     0.170 HD
BRANCH  41  44
ATOM     44  C   UNL     1      26.446  36.878   7.843  1.00  0.00     0.044 A 
ATOM     45  C   UNL     1      26.976  35.601   7.871  1.00  0.00    -0.024 A 
ATOM     46  C   UNL     1      26.873  37.830   6.938  1.00  0.00     0.026 A 
ATOM     47  C   UNL     1      27.950  35.285   6.975  1.00  0.00     0.006 A 
ATOM     48  C   UNL     1      27.858  37.507   6.030  1.00  0.00     0.002 A 
ATOM     49  C   UNL     1      28.385  36.236   6.060  1.00  0.00     0.000 A 
BRANCH  45  50
ATOM     50  C   UNL     1      26.595  34.500   8.796  1.00  0.00     0.040 C 
BRANCH  50  51
ATOM     51  C   UNL     1      26.469  34.973  10.235  1.00  0.00     0.042 CG0
ATOM     52  G   UNL     1      25.107  35.506  10.540  1.00  0.00     0.000 G0
ENDBRANCH  50  51
ENDBRANCH  45  50
ENDBRANCH  41  44
ENDBRANCH  38  40
ENDBRANCH  36  38
ENDBRANCH  32  33
ENDBRANCH   1  32
TORSDOF 15
BEGIN_RES LYS A 131
REMARK  4 active torsions:
REMARK  status: ('A' for Active; 'I' for Inactive)
REMARK    1  A    between atoms: CA   and  CB  
REMARK    2  A    between atoms: CB   and  CG  
REMARK    3  A    between atoms: CG   and  CD  
REMARK    4  A    between atoms: CD   and  CE  
ROOT
ATOM      1  CA  LYS A 131      29.867  25.555  16.977  1.00 20.52     0.186 C 
ENDROOT
BRANCH   1   2
ATOM      2  CB  LYS A 131      28.345  25.722  17.026  1.00 20.94     0.034 C 
BRANCH   2   3
ATOM      3  CG  LYS A 131      27.612  24.405  17.230  1.00 22.96     0.005 C 
BRANCH   3   4
ATOM      4  CD  LYS A 131      26.406  24.558  18.114  1.00 24.33     0.041 C 
BRANCH   4   5
ATOM      5  CE  LYS A 131      25.140  24.352  17.289  1.00 26.91     0.338 C 
ATOM      6  NZ  LYS A 131      24.729  22.929  17.317  1.00 27.40     0.618 N 
ENDBRANCH   4   5
ENDBRANCH   3   4
ENDBRANCH   2   3
ENDBRANCH   1   2
END_RES LYS A 131
BEGIN_RES LYS A 135
REMARK  4 active torsions:
REMARK  status: ('A' for Active; 'I' for Inactive)
REMARK    5  A    between atoms: CA   and  CB  
REMARK    6  A    between atoms: CB   and  CG  
REMARK    7  A    between atoms: CG   and  CD  
REMARK    8  A    between atoms: CD   and  CE  
ROOT
ATOM      7  CA  LYS A 135      33.193  34.663   9.290  1.00 25.02     0.186 C 
ENDROOT
BRANCH   7   8
ATOM      8  CB  LYS A 135      32.060  35.360  10.034  1.00 26.63     0.034 C 
BRANCH   8   9
ATOM      9  CG  LYS A 135      30.780  35.441   9.243  1.00 29.45     0.005 C 
BRANCH   9  10
ATOM     10  CD  LYS A 135      29.821  36.439   9.874  1.00 32.00     0.041 C 
BRANCH  10  11
ATOM     11  CE  LYS A 135      29.938  37.791   9.197  1.00 34.25     0.338 C 
ATOM     12  NZ  LYS A 135      30.289  38.854  10.178  1.00 35.99     0.618 N 
ENDBRANCH  10  11
ENDBRANCH   9  10
ENDBRANCH   8   9
ENDBRANCH   7   8
END_RES LYS A 135
