REMARK VINA RESULT:    -5.037      4.819      9.498
REMARK INTER + INTRA:         -14.720
REMARK INTER:                  -9.598
REMARK INTRA:                  -5.122
REMARK UNBOUND:                -5.118
REMARK SMILES COc1ccc(Cn2cc(COC(=O)NC[C@@H](O)C(O)[C@@H]3O[C@@](O)(C(=O)O)C[C@H](O)[C@H]3NC(C)=O)nn2)cc1OC
REMARK SMILES IDX 15 1 13 2 14 3 16 5 17 6 19 7 21 8 23 9 28 10 22 11 29 12
REMARK SMILES IDX 31 13 24 14 25 16 26 17 27 18 30 20 32 22 33 23 34 25 35 26
REMARK SMILES IDX 20 27 18 29 12 31 11 32 10 33 9 34 36 35 8 36 37 37 7 38
REMARK SMILES IDX 6 39 38 40 5 41 39 42 4 43 3 44 40 45 41 46 2 47 1 48
REMARK H PARENT 15 4 24 15 27 19 30 21 32 24 20 28 18 30
REMARK Flexibility Score: inf
ROOT
ATOM      1  N   UNL     1      30.606  32.352  18.294  1.00  0.00    -0.319 N 
ATOM      2  C   UNL     1      31.173  32.312  19.575  1.00  0.00     0.407 C 
ATOM      3  O   UNL     1      31.116  31.283  20.281  1.00  0.00    -0.225 OA
ATOM      4  H   UNL     1      30.689  33.271  17.762  1.00  0.00     0.167 HD
ENDROOT
BRANCH   1   5
ATOM      5  C   UNL     1      29.919  31.257  17.631  1.00  0.00     0.154 C 
BRANCH   5   6
ATOM      6  C   UNL     1      30.181  31.276  16.168  1.00  0.00     0.165 C 
BRANCH   6   7
ATOM      7  C   UNL     1      30.785  32.562  15.658  1.00  0.00     0.176 C 
BRANCH   7   8
ATOM      8  C   UNL     1      29.931  33.317  14.697  1.00  0.00     0.178 C 
ATOM      9  C   UNL     1      31.193  35.159  14.023  1.00  0.00     0.269 C 
ATOM     10  C   UNL     1      29.997  36.073  13.795  1.00  0.00     0.112 C 
ATOM     11  O   UNL     1      30.786  33.885  13.731  1.00  0.00    -0.332 OA
ATOM     12  C   UNL     1      28.734  35.295  14.026  1.00  0.00     0.145 C 
ATOM     13  C   UNL     1      28.931  34.266  15.200  1.00  0.00     0.142 C 
BRANCH   9  14
ATOM     14  O   UNL     1      31.724  35.332  15.297  1.00  0.00    -0.357 OA
ATOM     15  H   UNL     1      31.287  36.070  15.795  1.00  0.00     0.214 HD
ENDBRANCH   9  14
BRANCH   9  16
ATOM     16  C   UNL     1      32.272  35.526  13.061  1.00  0.00     0.364 C 
ATOM     17  O   UNL     1      32.178  36.603  12.427  1.00  0.00    -0.246 OA
BRANCH  16  18
ATOM     18  O   UNL     1      33.379  34.721  12.836  1.00  0.00    -0.477 OA
ATOM     19  H   UNL     1      34.339  35.089  12.870  1.00  0.00     0.296 HD
ENDBRANCH  16  18
ENDBRANCH   9  16
BRANCH  12  20
ATOM     20  O   UNL     1      27.658  36.116  14.343  1.00  0.00    -0.391 OA
ATOM     21  H   UNL     1      26.926  36.017  13.697  1.00  0.00     0.211 HD
ENDBRANCH  12  20
BRANCH  13  22
ATOM     22  N   UNL     1      27.597  33.655  15.297  1.00  0.00    -0.348 N 
ATOM     23  C   UNL     1      26.972  33.311  16.519  1.00  0.00     0.217 C 
ATOM     24  H   UNL     1      27.040  33.447  14.417  1.00  0.00     0.163 HD
ATOM     25  C   UNL     1      25.625  32.691  16.586  1.00  0.00     0.114 C 
ATOM     26  O   UNL     1      27.569  33.531  17.603  1.00  0.00    -0.275 OA
ENDBRANCH  13  22
ENDBRANCH   7   8
BRANCH   7  27
ATOM     27  O   UNL     1      31.960  32.187  14.888  1.00  0.00    -0.388 OA
ATOM     28  H   UNL     1      32.057  31.209  14.977  1.00  0.00     0.211 HD
ENDBRANCH   7  27
ENDBRANCH   6   7
BRANCH   6  29
ATOM     29  O   UNL     1      29.205  30.740  15.369  1.00  0.00    -0.388 OA
ATOM     30  H   UNL     1      28.928  29.839  15.620  1.00  0.00     0.211 HD
ENDBRANCH   6  29
ENDBRANCH   5   6
ENDBRANCH   1   5
BRANCH   2  31
ATOM     31  O   UNL     1      31.830  33.441  20.112  1.00  0.00    -0.443 OA
BRANCH  31  32
ATOM     32  C   UNL     1      32.348  33.335  21.447  1.00  0.00     0.294 C 
BRANCH  32  33
ATOM     33  C   UNL     1      33.794  33.127  21.444  1.00  0.00     0.120 A 
ATOM     34  C   UNL     1      34.759  34.088  21.286  1.00  0.00     0.138 A 
ATOM     35  N   UNL     1      34.420  31.951  21.607  1.00  0.00    -0.132 NA
ATOM     36  N   UNL     1      35.943  33.487  21.353  1.00  0.00    -0.248 N 
ATOM     37  N   UNL     1      35.721  32.204  21.546  1.00  0.00    -0.067 NA
BRANCH  36  38
ATOM     38  C   UNL     1      37.257  34.107  21.230  1.00  0.00     0.181 C 
BRANCH  38  39
ATOM     39  C   UNL     1      37.643  34.101  19.785  1.00  0.00    -0.023 A 
ATOM     40  C   UNL     1      37.365  35.220  19.001  1.00  0.00     0.056 A 
ATOM     41  C   UNL     1      38.277  33.032  19.189  1.00  0.00     0.010 A 
ATOM     42  C   UNL     1      37.710  35.260  17.673  1.00  0.00     0.161 A 
ATOM     43  C   UNL     1      38.637  33.042  17.855  1.00  0.00     0.051 A 
ATOM     44  C   UNL     1      38.345  34.164  17.116  1.00  0.00     0.160 A 
BRANCH  42  45
ATOM     45  O   UNL     1      37.438  36.369  16.877  1.00  0.00    -0.493 OA
ATOM     46  C   UNL     1      36.324  37.179  17.211  1.00  0.00     0.278 C 
ENDBRANCH  42  45
BRANCH  44  47
ATOM     47  O   UNL     1      38.689  34.213  15.775  1.00  0.00    -0.493 OA
ATOM     48  C   UNL     1      37.803  33.788  14.757  1.00  0.00     0.278 C 
ENDBRANCH  44  47
ENDBRANCH  38  39
ENDBRANCH  36  38
ENDBRANCH  32  33
ENDBRANCH  31  32
ENDBRANCH   2  31
TORSDOF 18
BEGIN_RES LYS A 131
REMARK  4 active torsions:
REMARK  status: ('A' for Active; 'I' for Inactive)
REMARK    1  A    between atoms: CA   and  CB  
REMARK    2  A    between atoms: CB   and  CG  
REMARK    3  A    between atoms: CG   and  CD  
REMARK    4  A    between atoms: CD   and  CE  
ROOT
ATOM      1  CA  LYS A 131      29.867  25.555  16.977  1.00 20.52     0.186 C 
ENDROOT
BRANCH   1   2
ATOM      2  CB  LYS A 131      28.345  25.722  17.026  1.00 20.94     0.034 C 
BRANCH   2   3
ATOM      3  CG  LYS A 131      27.602  24.399  16.928  1.00 22.96     0.005 C 
BRANCH   3   4
ATOM      4  CD  LYS A 131      26.433  24.334  17.871  1.00 24.33     0.041 C 
BRANCH   4   5
ATOM      5  CE  LYS A 131      25.987  25.748  18.227  1.00 26.91     0.338 C 
ATOM      6  NZ  LYS A 131      26.022  25.949  19.695  1.00 27.40     0.618 N 
ENDBRANCH   4   5
ENDBRANCH   3   4
ENDBRANCH   2   3
ENDBRANCH   1   2
END_RES LYS A 131
BEGIN_RES LYS A 135
REMARK  4 active torsions:
REMARK  status: ('A' for Active; 'I' for Inactive)
REMARK    5  A    between atoms: CA   and  CB  
REMARK    6  A    between atoms: CB   and  CG  
REMARK    7  A    between atoms: CG   and  CD  
REMARK    8  A    between atoms: CD   and  CE  
ROOT
ATOM      7  CA  LYS A 135      33.193  34.663   9.290  1.00 25.02     0.186 C 
ENDROOT
BRANCH   7   8
ATOM      8  CB  LYS A 135      32.060  35.360  10.034  1.00 26.63     0.034 C 
BRANCH   8   9
ATOM      9  CG  LYS A 135      30.816  35.542   9.203  1.00 29.45     0.005 C 
BRANCH   9  10
ATOM     10  CD  LYS A 135      30.280  34.197   8.737  1.00 32.00     0.041 C 
BRANCH  10  11
ATOM     11  CE  LYS A 135      28.865  33.985   9.237  1.00 34.25     0.338 C 
ATOM     12  NZ  LYS A 135      28.481  35.035  10.221  1.00 35.99     0.618 N 
ENDBRANCH  10  11
ENDBRANCH   9  10
ENDBRANCH   8   9
ENDBRANCH   7   8
END_RES LYS A 135
