REMARK VINA RESULT:    -4.523      3.292      5.468
REMARK INTER + INTRA:         -14.132
REMARK INTER:                  -7.937
REMARK INTRA:                  -6.195
REMARK UNBOUND:                -5.644
REMARK SMILES CC(=O)N[C@@H]1[C@@H](O)C[C@](O)(C(=O)O)O[C@H]1C(O)[C@H](O)CNC(=O)OCc1cn(CCC(=O)O)nn1
REMARK SMILES IDX 21 1 22 2 23 3 20 5 18 6 16 7 15 8 9 9 8 10 14 11 6 12 5 13
REMARK SMILES IDX 10 14 11 16 12 17 13 18 7 20 4 22 2 23 1 25 3 26 17 27 19 29
REMARK SMILES IDX 24 31 25 32 26 33 27 34 35 35 28 36 34 37 29 38 30 39 31 40
REMARK SMILES IDX 32 41 33 42
REMARK H PARENT 21 4 10 15 13 19 7 21 4 24 17 28 19 30 33 43
REMARK Flexibility Score: inf
ROOT
ATOM      1  N   UNL     1      32.346  34.730  15.929  1.00  0.00    -0.319 N 
ATOM      2  C   UNL     1      32.151  36.119  15.722  1.00  0.00     0.407 C 
ATOM      3  O   UNL     1      31.572  36.838  16.591  1.00  0.00    -0.225 OA
ATOM      4  H   UNL     1      32.826  34.175  15.194  1.00  0.00     0.167 HD
ENDROOT
BRANCH   1   5
ATOM      5  C   UNL     1      31.893  34.069  17.129  1.00  0.00     0.154 C 
BRANCH   5   6
ATOM      6  C   UNL     1      30.551  33.404  16.986  1.00  0.00     0.165 C 
BRANCH   6   7
ATOM      7  C   UNL     1      30.690  32.027  16.339  1.00  0.00     0.176 C 
BRANCH   7   8
ATOM      8  C   UNL     1      29.356  31.301  16.379  1.00  0.00     0.178 C 
ATOM      9  C   UNL     1      27.116  31.944  16.238  1.00  0.00     0.269 C 
ATOM     10  C   UNL     1      26.706  30.645  16.873  1.00  0.00     0.112 C 
ATOM     11  O   UNL     1      28.375  31.925  15.680  1.00  0.00    -0.332 OA
ATOM     12  C   UNL     1      27.788  29.930  17.601  1.00  0.00     0.145 C 
ATOM     13  C   UNL     1      28.951  30.918  17.779  1.00  0.00     0.142 C 
BRANCH   9  14
ATOM     14  O   UNL     1      26.957  32.960  17.174  1.00  0.00    -0.357 OA
ATOM     15  H   UNL     1      27.502  32.688  17.964  1.00  0.00     0.214 HD
ENDBRANCH   9  14
BRANCH   9  16
ATOM     16  C   UNL     1      26.160  32.195  15.134  1.00  0.00     0.364 C 
ATOM     17  O   UNL     1      26.054  33.293  14.547  1.00  0.00    -0.246 OA
BRANCH  16  18
ATOM     18  O   UNL     1      25.330  31.171  14.716  1.00  0.00    -0.477 OA
ATOM     19  H   UNL     1      25.669  30.290  14.349  1.00  0.00     0.296 HD
ENDBRANCH  16  18
ENDBRANCH   9  16
BRANCH  12  20
ATOM     20  O   UNL     1      27.382  29.428  18.834  1.00  0.00    -0.391 OA
ATOM     21  H   UNL     1      28.082  28.858  19.257  1.00  0.00     0.211 HD
ENDBRANCH  12  20
BRANCH  13  22
ATOM     22  N   UNL     1      30.039  30.289  18.501  1.00  0.00    -0.348 N 
ATOM     23  C   UNL     1      30.401  30.745  19.799  1.00  0.00     0.217 C 
ATOM     24  H   UNL     1      30.590  29.493  18.101  1.00  0.00     0.163 HD
ATOM     25  C   UNL     1      31.521  30.124  20.584  1.00  0.00     0.114 C 
ATOM     26  O   UNL     1      29.769  31.710  20.336  1.00  0.00    -0.275 OA
ENDBRANCH  13  22
ENDBRANCH   7   8
BRANCH   7  27
ATOM     27  O   UNL     1      31.066  32.212  15.011  1.00  0.00    -0.388 OA
ATOM     28  H   UNL     1      31.976  31.854  14.821  1.00  0.00     0.211 HD
ENDBRANCH   7  27
ENDBRANCH   6   7
BRANCH   6  29
ATOM     29  O   UNL     1      29.762  34.238  16.191  1.00  0.00    -0.388 OA
ATOM     30  H   UNL     1      29.456  35.003  16.739  1.00  0.00     0.211 HD
ENDBRANCH   6  29
ENDBRANCH   5   6
ENDBRANCH   1   5
BRANCH   2  31
ATOM     31  O   UNL     1      32.602  36.694  14.556  1.00  0.00    -0.443 OA
BRANCH  31  32
ATOM     32  C   UNL     1      32.357  36.149  13.271  1.00  0.00     0.294 C 
BRANCH  32  33
ATOM     33  C   UNL     1      30.937  35.669  13.176  1.00  0.00     0.120 A 
ATOM     34  C   UNL     1      29.824  36.427  12.925  1.00  0.00     0.138 A 
ATOM     35  N   UNL     1      30.537  34.392  13.336  1.00  0.00    -0.132 NA
ATOM     36  N   UNL     1      28.760  35.588  12.936  1.00  0.00    -0.252 N 
ATOM     37  N   UNL     1      29.223  34.370  13.186  1.00  0.00    -0.067 NA
BRANCH  36  38
ATOM     38  C   UNL     1      27.394  36.006  12.706  1.00  0.00     0.158 C 
BRANCH  38  39
ATOM     39  C   UNL     1      27.132  35.931  11.204  1.00  0.00     0.146 C 
BRANCH  39  40
ATOM     40  C   UNL     1      26.695  34.531  10.917  1.00  0.00     0.305 C 
ATOM     41  O   UNL     1      27.185  33.841  10.014  1.00  0.00    -0.252 OA
BRANCH  40  42
ATOM     42  O   UNL     1      25.684  34.017  11.729  1.00  0.00    -0.481 OA
ATOM     43  H   UNL     1      24.722  34.323  11.590  1.00  0.00     0.296 HD
ENDBRANCH  40  42
ENDBRANCH  39  40
ENDBRANCH  38  39
ENDBRANCH  36  38
ENDBRANCH  32  33
ENDBRANCH  31  32
ENDBRANCH   2  31
TORSDOF 18
BEGIN_RES LYS A 131
REMARK  4 active torsions:
REMARK  status: ('A' for Active; 'I' for Inactive)
REMARK    1  A    between atoms: CA   and  CB  
REMARK    2  A    between atoms: CB   and  CG  
REMARK    3  A    between atoms: CG   and  CD  
REMARK    4  A    between atoms: CD   and  CE  
ROOT
ATOM      1  CA  LYS A 131      29.867  25.555  16.977  1.00 20.52     0.186 C 
ENDROOT
BRANCH   1   2
ATOM      2  CB  LYS A 131      28.345  25.722  17.026  1.00 20.94     0.034 C 
BRANCH   2   3
ATOM      3  CG  LYS A 131      27.602  24.400  16.916  1.00 22.96     0.005 C 
BRANCH   3   4
ATOM      4  CD  LYS A 131      26.527  24.266  17.959  1.00 24.33     0.041 C 
BRANCH   4   5
ATOM      5  CE  LYS A 131      25.230  23.810  17.298  1.00 26.91     0.338 C 
ATOM      6  NZ  LYS A 131      24.147  24.790  17.549  1.00 27.40     0.618 N 
ENDBRANCH   4   5
ENDBRANCH   3   4
ENDBRANCH   2   3
ENDBRANCH   1   2
END_RES LYS A 131
BEGIN_RES LYS A 135
REMARK  4 active torsions:
REMARK  status: ('A' for Active; 'I' for Inactive)
REMARK    5  A    between atoms: CA   and  CB  
REMARK    6  A    between atoms: CB   and  CG  
REMARK    7  A    between atoms: CG   and  CD  
REMARK    8  A    between atoms: CD   and  CE  
ROOT
ATOM      7  CA  LYS A 135      33.193  34.663   9.290  1.00 25.02     0.186 C 
ENDROOT
BRANCH   7   8
ATOM      8  CB  LYS A 135      32.060  35.360  10.034  1.00 26.63     0.034 C 
BRANCH   8   9
ATOM      9  CG  LYS A 135      30.693  34.835   9.678  1.00 29.45     0.005 C 
BRANCH   9  10
ATOM     10  CD  LYS A 135      29.991  35.778   8.712  1.00 32.00     0.041 C 
BRANCH  10  11
ATOM     11  CE  LYS A 135      29.400  35.004   7.549  1.00 34.25     0.338 C 
ATOM     12  NZ  LYS A 135      28.079  35.563   7.150  1.00 35.99     0.618 N 
ENDBRANCH  10  11
ENDBRANCH   9  10
ENDBRANCH   8   9
ENDBRANCH   7   8
END_RES LYS A 135
