REMARK VINA RESULT:    -4.131      3.104      6.933
REMARK INTER + INTRA:         -13.824
REMARK INTER:                  -6.097
REMARK INTRA:                  -7.727
REMARK UNBOUND:                -5.949
REMARK SMILES CCOC(=O)Cn1cc(COC(=O)NC[C@@H](O)C(O)[C@@H]2O[C@@](O)(C(=O)O)C[C@H](O)[C@H]2NC(C)=O)nn1
REMARK SMILES IDX 14 1 12 2 13 3 15 5 16 6 18 7 20 8 22 9 27 10 21 11 28 12
REMARK SMILES IDX 30 13 23 14 24 16 25 17 26 18 29 20 31 22 32 23 33 25 34 26
REMARK SMILES IDX 19 27 17 29 11 31 10 32 9 33 8 34 35 35 7 36 36 37 6 38 4 39
REMARK SMILES IDX 5 40 3 41 2 42 1 43
REMARK H PARENT 14 4 23 15 26 19 29 21 31 24 19 28 17 30
REMARK Flexibility Score: inf
ROOT
ATOM      1  N   UNL     1      27.839  34.597  18.642  1.00  0.00    -0.319 N 
ATOM      2  C   UNL     1      28.426  34.193  19.862  1.00  0.00     0.407 C 
ATOM      3  O   UNL     1      27.786  33.621  20.751  1.00  0.00    -0.225 OA
ATOM      4  H   UNL     1      28.529  35.074  17.972  1.00  0.00     0.167 HD
ENDROOT
BRANCH   1   5
ATOM      5  C   UNL     1      26.475  34.430  18.260  1.00  0.00     0.154 C 
BRANCH   5   6
ATOM      6  C   UNL     1      26.158  33.299  17.342  1.00  0.00     0.165 C 
BRANCH   6   7
ATOM      7  C   UNL     1      26.925  32.054  17.613  1.00  0.00     0.176 C 
BRANCH   7   8
ATOM      8  C   UNL     1      26.177  30.957  18.321  1.00  0.00     0.178 C 
ATOM      9  C   UNL     1      27.642  29.395  19.259  1.00  0.00     0.269 C 
ATOM     10  C   UNL     1      26.641  28.260  19.272  1.00  0.00     0.112 C 
ATOM     11  O   UNL     1      26.979  30.575  19.393  1.00  0.00    -0.332 OA
ATOM     12  C   UNL     1      25.546  28.554  18.313  1.00  0.00     0.145 C 
ATOM     13  C   UNL     1      25.818  29.791  17.442  1.00  0.00     0.142 C 
BRANCH   9  14
ATOM     14  O   UNL     1      28.405  29.243  18.116  1.00  0.00    -0.357 OA
ATOM     15  H   UNL     1      28.493  30.128  17.693  1.00  0.00     0.214 HD
ENDBRANCH   9  14
BRANCH   9  16
ATOM     16  C   UNL     1      28.504  29.206  20.448  1.00  0.00     0.364 C 
ATOM     17  O   UNL     1      28.411  28.140  21.092  1.00  0.00    -0.246 OA
BRANCH  16  18
ATOM     18  O   UNL     1      29.396  30.167  20.853  1.00  0.00    -0.477 OA
ATOM     19  H   UNL     1      30.320  30.263  20.432  1.00  0.00     0.296 HD
ENDBRANCH  16  18
ENDBRANCH   9  16
BRANCH  12  20
ATOM     20  O   UNL     1      25.235  27.486  17.476  1.00  0.00    -0.391 OA
ATOM     21  H   UNL     1      25.797  27.431  16.678  1.00  0.00     0.211 HD
ENDBRANCH  12  20
BRANCH  13  22
ATOM     22  N   UNL     1      24.566  30.009  16.748  1.00  0.00    -0.348 N 
ATOM     23  C   UNL     1      24.438  30.394  15.402  1.00  0.00     0.217 C 
ATOM     24  H   UNL     1      23.690  29.866  17.297  1.00  0.00     0.163 HD
ATOM     25  C   UNL     1      23.144  30.611  14.710  1.00  0.00     0.114 C 
ATOM     26  O   UNL     1      25.512  30.564  14.747  1.00  0.00    -0.275 OA
ENDBRANCH  13  22
ENDBRANCH   7   8
BRANCH   7  27
ATOM     27  O   UNL     1      27.584  31.614  16.491  1.00  0.00    -0.388 OA
ATOM     28  H   UNL     1      27.234  30.767  16.115  1.00  0.00     0.211 HD
ENDBRANCH   7  27
ENDBRANCH   6   7
BRANCH   6  29
ATOM     29  O   UNL     1      26.506  33.694  16.034  1.00  0.00    -0.388 OA
ATOM     30  H   UNL     1      27.117  34.488  16.063  1.00  0.00     0.211 HD
ENDBRANCH   6  29
ENDBRANCH   5   6
ENDBRANCH   1   5
BRANCH   2  31
ATOM     31  O   UNL     1      29.796  34.431  20.116  1.00  0.00    -0.443 OA
BRANCH  31  32
ATOM     32  C   UNL     1      30.732  33.370  20.112  1.00  0.00     0.294 C 
BRANCH  32  33
ATOM     33  C   UNL     1      30.737  32.807  18.736  1.00  0.00     0.120 A 
ATOM     34  C   UNL     1      31.128  33.421  17.569  1.00  0.00     0.139 A 
ATOM     35  N   UNL     1      30.352  31.557  18.356  1.00  0.00    -0.132 NA
ATOM     36  N   UNL     1      30.961  32.524  16.557  1.00  0.00    -0.241 N 
ATOM     37  N   UNL     1      30.487  31.402  17.070  1.00  0.00    -0.066 NA
BRANCH  36  38
ATOM     38  C   UNL     1      31.238  32.717  15.153  1.00  0.00     0.268 C 
BRANCH  38  39
ATOM     39  C   UNL     1      30.239  33.603  14.535  1.00  0.00     0.327 C 
ATOM     40  O   UNL     1      29.027  33.307  14.614  1.00  0.00    -0.250 OA
BRANCH  39  41
ATOM     41  O   UNL     1      30.686  34.750  13.876  1.00  0.00    -0.465 OA
BRANCH  41  42
ATOM     42  C   UNL     1      32.105  34.924  13.832  1.00  0.00     0.229 C 
ATOM     43  C   UNL     1      32.399  36.078  12.907  1.00  0.00     0.049 C 
ENDBRANCH  41  42
ENDBRANCH  39  41
ENDBRANCH  38  39
ENDBRANCH  36  38
ENDBRANCH  32  33
ENDBRANCH  31  32
ENDBRANCH   2  31
TORSDOF 18
BEGIN_RES LYS A 131
REMARK  4 active torsions:
REMARK  status: ('A' for Active; 'I' for Inactive)
REMARK    1  A    between atoms: CA   and  CB  
REMARK    2  A    between atoms: CB   and  CG  
REMARK    3  A    between atoms: CG   and  CD  
REMARK    4  A    between atoms: CD   and  CE  
ROOT
ATOM      1  CA  LYS A 131      29.867  25.555  16.977  1.00 20.52     0.186 C 
ENDROOT
BRANCH   1   2
ATOM      2  CB  LYS A 131      28.345  25.722  17.026  1.00 20.94     0.034 C 
BRANCH   2   3
ATOM      3  CG  LYS A 131      27.601  24.402  16.890  1.00 22.96     0.005 C 
BRANCH   3   4
ATOM      4  CD  LYS A 131      26.601  24.200  17.994  1.00 24.33     0.041 C 
BRANCH   4   5
ATOM      5  CE  LYS A 131      25.238  23.874  17.392  1.00 26.91     0.338 C 
ATOM      6  NZ  LYS A 131      24.926  22.434  17.561  1.00 27.40     0.618 N 
ENDBRANCH   4   5
ENDBRANCH   3   4
ENDBRANCH   2   3
ENDBRANCH   1   2
END_RES LYS A 131
BEGIN_RES LYS A 135
REMARK  4 active torsions:
REMARK  status: ('A' for Active; 'I' for Inactive)
REMARK    5  A    between atoms: CA   and  CB  
REMARK    6  A    between atoms: CB   and  CG  
REMARK    7  A    between atoms: CG   and  CD  
REMARK    8  A    between atoms: CD   and  CE  
ROOT
ATOM      7  CA  LYS A 135      33.193  34.663   9.290  1.00 25.02     0.186 C 
ENDROOT
BRANCH   7   8
ATOM      8  CB  LYS A 135      32.060  35.360  10.034  1.00 26.63     0.034 C 
BRANCH   8   9
ATOM      9  CG  LYS A 135      30.713  34.719   9.818  1.00 29.45     0.005 C 
BRANCH   9  10
ATOM     10  CD  LYS A 135      30.410  34.594   8.333  1.00 32.00     0.041 C 
BRANCH  10  11
ATOM     11  CE  LYS A 135      28.920  34.718   8.082  1.00 34.25     0.338 C 
ATOM     12  NZ  LYS A 135      28.138  34.006   9.131  1.00 35.99     0.618 N 
ENDBRANCH  10  11
ENDBRANCH   9  10
ENDBRANCH   8   9
ENDBRANCH   7   8
END_RES LYS A 135
