REMARK VINA RESULT:    -6.081      1.797      2.302
REMARK INTER + INTRA:         -16.630
REMARK INTER:                 -11.268
REMARK INTRA:                  -5.362
REMARK UNBOUND:                -5.216
REMARK SMILES CC(=O)N[C@@H]1[C@@H](O)C[C@](O)(C(=O)O)O[C@H]1C(O)[C@H](O)CNC(=O)OCc1cn(-c2cc(C(=O)O)nc(-c3ccccc3)c2)nn1
REMARK SMILES IDX 21 1 22 2 23 3 20 5 18 6 16 7 15 8 9 9 8 10 14 11 6 12 5 13
REMARK SMILES IDX 10 14 11 16 12 17 13 18 7 20 4 22 2 23 1 25 3 26 17 27 19 29
REMARK SMILES IDX 24 31 25 32 26 33 27 34 45 35 28 36 44 37 29 38 30 39 43 40
REMARK SMILES IDX 31 41 36 42 35 43 32 44 33 45 34 46 37 48 38 49 42 50 39 51
REMARK SMILES IDX 41 52 40 53
REMARK H PARENT 21 4 10 15 13 19 7 21 4 24 17 28 19 30 34 47
REMARK Flexibility Score: inf
ROOT
ATOM      1  N   UNL     1      26.536  35.967  17.502  1.00  0.00    -0.319 N 
ATOM      2  C   UNL     1      26.245  34.655  17.992  1.00  0.00     0.407 C 
ATOM      3  O   UNL     1      26.937  34.208  18.943  1.00  0.00    -0.225 OA
ATOM      4  H   UNL     1      25.916  36.284  16.700  1.00  0.00     0.167 HD
ENDROOT
BRANCH   1   5
ATOM      5  C   UNL     1      27.576  36.802  18.037  1.00  0.00     0.154 C 
BRANCH   5   6
ATOM      6  C   UNL     1      28.765  36.839  17.124  1.00  0.00     0.165 C 
BRANCH   6   7
ATOM      7  C   UNL     1      28.525  35.842  15.997  1.00  0.00     0.176 C 
BRANCH   7   8
ATOM      8  C   UNL     1      29.794  35.143  15.654  1.00  0.00     0.178 C 
ATOM      9  C   UNL     1      31.293  34.895  13.893  1.00  0.00     0.269 C 
ATOM     10  C   UNL     1      32.103  34.233  15.001  1.00  0.00     0.112 C 
ATOM     11  O   UNL     1      30.176  35.543  14.355  1.00  0.00    -0.332 OA
ATOM     12  C   UNL     1      31.241  33.201  15.637  1.00  0.00     0.145 C 
ATOM     13  C   UNL     1      29.763  33.654  15.628  1.00  0.00     0.142 C 
BRANCH   9  14
ATOM     14  O   UNL     1      30.957  33.835  13.018  1.00  0.00    -0.357 OA
ATOM     15  H   UNL     1      30.549  33.141  13.599  1.00  0.00     0.214 HD
ENDBRANCH   9  14
BRANCH   9  16
ATOM     16  C   UNL     1      32.108  35.869  13.143  1.00  0.00     0.364 C 
ATOM     17  O   UNL     1      31.858  37.086  13.222  1.00  0.00    -0.246 OA
BRANCH  16  18
ATOM     18  O   UNL     1      33.152  35.444  12.351  1.00  0.00    -0.477 OA
ATOM     19  H   UNL     1      34.015  35.970  12.244  1.00  0.00     0.296 HD
ENDBRANCH  16  18
ENDBRANCH   9  16
BRANCH  12  20
ATOM     20  O   UNL     1      31.371  31.943  15.092  1.00  0.00    -0.391 OA
ATOM     21  H   UNL     1      30.498  31.497  15.028  1.00  0.00     0.211 HD
ENDBRANCH  12  20
BRANCH  13  22
ATOM     22  N   UNL     1      29.089  33.014  16.725  1.00  0.00    -0.348 N 
ATOM     23  C   UNL     1      28.366  31.778  16.543  1.00  0.00     0.217 C 
ATOM     24  H   UNL     1      29.121  33.428  17.659  1.00  0.00     0.163 HD
ATOM     25  C   UNL     1      27.664  31.090  17.636  1.00  0.00     0.114 C 
ATOM     26  O   UNL     1      28.375  31.316  15.363  1.00  0.00    -0.275 OA
ENDBRANCH  13  22
ENDBRANCH   7   8
BRANCH   7  27
ATOM     27  O   UNL     1      27.872  36.374  14.919  1.00  0.00    -0.388 OA
ATOM     28  H   UNL     1      27.264  35.776  14.448  1.00  0.00     0.211 HD
ENDBRANCH   7  27
ENDBRANCH   6   7
BRANCH   6  29
ATOM     29  O   UNL     1      29.853  36.395  17.903  1.00  0.00    -0.388 OA
ATOM     30  H   UNL     1      29.727  35.428  18.000  1.00  0.00     0.211 HD
ENDBRANCH   6  29
ENDBRANCH   5   6
ENDBRANCH   1   5
BRANCH   2  31
ATOM     31  O   UNL     1      25.224  33.902  17.429  1.00  0.00    -0.443 OA
BRANCH  31  32
ATOM     32  C   UNL     1      24.303  34.563  16.586  1.00  0.00     0.294 C 
BRANCH  32  33
ATOM     33  C   UNL     1      24.841  34.481  15.203  1.00  0.00     0.121 A 
ATOM     34  C   UNL     1      24.246  34.979  14.037  1.00  0.00     0.144 A 
ATOM     35  N   UNL     1      25.992  33.926  14.756  1.00  0.00    -0.131 NA
ATOM     36  N   UNL     1      25.031  34.716  12.977  1.00  0.00    -0.220 N 
ATOM     37  N   UNL     1      26.079  34.078  13.441  1.00  0.00    -0.062 NA
BRANCH  36  38
ATOM     38  C   UNL     1      24.706  35.097  11.625  1.00  0.00     0.071 A 
ATOM     39  C   UNL     1      23.407  35.216  11.201  1.00  0.00     0.064 A 
ATOM     40  C   UNL     1      25.717  35.354  10.706  1.00  0.00     0.057 A 
ATOM     41  C   UNL     1      23.062  35.577   9.916  1.00  0.00     0.151 A 
ATOM     42  C   UNL     1      25.389  35.715   9.425  1.00  0.00     0.073 A 
ATOM     43  N   UNL     1      24.084  35.812   9.078  1.00  0.00    -0.241 NA
BRANCH  41  44
ATOM     44  C   UNL     1      21.678  35.698   9.490  1.00  0.00     0.354 C 
ATOM     45  O   UNL     1      20.973  36.604   9.976  1.00  0.00    -0.245 OA
BRANCH  44  46
ATOM     46  O   UNL     1      21.130  34.837   8.563  1.00  0.00    -0.477 OA
ATOM     47  H   UNL     1      20.560  35.159   7.773  1.00  0.00     0.297 HD
ENDBRANCH  44  46
ENDBRANCH  41  44
BRANCH  42  48
ATOM     48  C   UNL     1      26.440  35.993   8.429  1.00  0.00     0.000 A 
ATOM     49  C   UNL     1      27.120  34.923   7.887  1.00  0.00     0.010 A 
ATOM     50  C   UNL     1      26.723  37.277   8.061  1.00  0.00     0.010 A 
ATOM     51  C   UNL     1      28.101  35.178   6.959  1.00  0.00     0.001 A 
ATOM     52  C   UNL     1      27.716  37.489   7.125  1.00  0.00     0.001 A 
ATOM     53  C   UNL     1      28.425  36.456   6.553  1.00  0.00     0.000 A 
ENDBRANCH  42  48
ENDBRANCH  36  38
ENDBRANCH  32  33
ENDBRANCH  31  32
ENDBRANCH   2  31
TORSDOF 18
BEGIN_RES LYS A 131
REMARK  4 active torsions:
REMARK  status: ('A' for Active; 'I' for Inactive)
REMARK    1  A    between atoms: CA   and  CB  
REMARK    2  A    between atoms: CB   and  CG  
REMARK    3  A    between atoms: CG   and  CD  
REMARK    4  A    between atoms: CD   and  CE  
ROOT
ATOM      1  CA  LYS A 131      29.867  25.555  16.977  1.00 20.52     0.186 C 
ENDROOT
BRANCH   1   2
ATOM      2  CB  LYS A 131      28.345  25.722  17.026  1.00 20.94     0.034 C 
BRANCH   2   3
ATOM      3  CG  LYS A 131      27.601  24.401  16.906  1.00 22.96     0.005 C 
BRANCH   3   4
ATOM      4  CD  LYS A 131      26.133  24.549  17.193  1.00 24.33     0.041 C 
BRANCH   4   5
ATOM      5  CE  LYS A 131      25.909  25.762  18.089  1.00 26.91     0.338 C 
ATOM      6  NZ  LYS A 131      25.637  25.335  19.482  1.00 27.40     0.618 N 
ENDBRANCH   4   5
ENDBRANCH   3   4
ENDBRANCH   2   3
ENDBRANCH   1   2
END_RES LYS A 131
BEGIN_RES LYS A 135
REMARK  4 active torsions:
REMARK  status: ('A' for Active; 'I' for Inactive)
REMARK    5  A    between atoms: CA   and  CB  
REMARK    6  A    between atoms: CB   and  CG  
REMARK    7  A    between atoms: CG   and  CD  
REMARK    8  A    between atoms: CD   and  CE  
ROOT
ATOM      7  CA  LYS A 135      33.193  34.663   9.290  1.00 25.02     0.186 C 
ENDROOT
BRANCH   7   8
ATOM      8  CB  LYS A 135      32.060  35.360  10.034  1.00 26.63     0.034 C 
BRANCH   8   9
ATOM      9  CG  LYS A 135      30.691  35.020   9.503  1.00 29.45     0.005 C 
BRANCH   9  10
ATOM     10  CD  LYS A 135      29.609  35.538  10.438  1.00 32.00     0.041 C 
BRANCH  10  11
ATOM     11  CE  LYS A 135      29.569  37.054  10.418  1.00 34.25     0.338 C 
ATOM     12  NZ  LYS A 135      28.613  37.578  11.432  1.00 35.99     0.618 N 
ENDBRANCH  10  11
ENDBRANCH   9  10
ENDBRANCH   8   9
ENDBRANCH   7   8
END_RES LYS A 135
