REMARK VINA RESULT:    -5.382      5.971     11.078
REMARK INTER + INTRA:         -15.220
REMARK INTER:                 -10.088
REMARK INTRA:                  -5.132
REMARK UNBOUND:                -5.276
REMARK SMILES COc1ccc(Cn2cc(COC(=O)NC[C@@H](O)C(O)[C@@H]3O[C@@](O)(C(=O)O)C[C@H](O)[C@H]3NC(C)=O)nn2)cc1
REMARK SMILES IDX 15 1 13 2 14 3 16 5 17 6 19 7 21 8 23 9 28 10 22 11 29 12
REMARK SMILES IDX 31 13 24 14 25 16 26 17 27 18 30 20 32 22 33 23 34 25 35 26
REMARK SMILES IDX 20 27 18 29 12 31 11 32 10 33 9 34 36 35 8 36 37 37 7 38
REMARK SMILES IDX 6 39 5 40 38 41 4 42 39 43 3 44 2 45 1 46
REMARK H PARENT 15 4 24 15 27 19 30 21 32 24 20 28 18 30
REMARK Flexibility Score: inf
ROOT
ATOM      1  N   UNL     1      25.309  33.987  12.277  1.00  0.00    -0.319 N 
ATOM      2  C   UNL     1      26.283  34.845  12.832  1.00  0.00     0.407 C 
ATOM      3  O   UNL     1      26.031  35.679  13.735  1.00  0.00    -0.225 OA
ATOM      4  H   UNL     1      25.630  33.334  11.525  1.00  0.00     0.167 HD
ENDROOT
BRANCH   1   5
ATOM      5  C   UNL     1      23.939  33.956  12.677  1.00  0.00     0.154 C 
BRANCH   5   6
ATOM      6  C   UNL     1      22.979  34.504  11.677  1.00  0.00     0.165 C 
BRANCH   6   7
ATOM      7  C   UNL     1      23.497  35.748  10.990  1.00  0.00     0.176 C 
BRANCH   7   8
ATOM      8  C   UNL     1      22.604  36.277   9.925  1.00  0.00     0.178 C 
ATOM      9  C   UNL     1      20.976  35.705   8.383  1.00  0.00     0.269 C 
ATOM     10  C   UNL     1      21.586  36.575   7.321  1.00  0.00     0.112 C 
ATOM     11  O   UNL     1      21.823  35.275   9.355  1.00  0.00    -0.332 OA
ATOM     12  C   UNL     1      22.604  37.549   7.876  1.00  0.00     0.145 C 
ATOM     13  C   UNL     1      23.499  36.775   8.785  1.00  0.00     0.142 C 
BRANCH   9  14
ATOM     14  O   UNL     1      20.543  34.540   7.695  1.00  0.00    -0.357 OA
ATOM     15  H   UNL     1      20.661  33.800   8.339  1.00  0.00     0.214 HD
ENDBRANCH   9  14
BRANCH   9  16
ATOM     16  C   UNL     1      19.747  36.376   8.868  1.00  0.00     0.364 C 
ATOM     17  O   UNL     1      19.175  37.298   8.214  1.00  0.00    -0.246 OA
BRANCH  16  18
ATOM     18  O   UNL     1      19.149  36.029  10.078  1.00  0.00    -0.477 OA
ATOM     19  H   UNL     1      18.152  36.002  10.170  1.00  0.00     0.296 HD
ENDBRANCH  16  18
ENDBRANCH   9  16
BRANCH  12  20
ATOM     20  O   UNL     1      23.270  38.171   6.839  1.00  0.00    -0.391 OA
ATOM     21  H   UNL     1      23.729  38.959   7.171  1.00  0.00     0.211 HD
ENDBRANCH  12  20
BRANCH  13  22
ATOM     22  N   UNL     1      24.655  37.483   9.233  1.00  0.00    -0.348 N 
ATOM     23  C   UNL     1      25.895  37.508   8.579  1.00  0.00     0.217 C 
ATOM     24  H   UNL     1      24.571  38.038  10.127  1.00  0.00     0.163 HD
ATOM     25  C   UNL     1      27.021  38.285   9.149  1.00  0.00     0.114 C 
ATOM     26  O   UNL     1      26.056  36.882   7.527  1.00  0.00    -0.275 OA
ENDBRANCH  13  22
ENDBRANCH   7   8
BRANCH   7  27
ATOM     27  O   UNL     1      23.765  36.713  11.936  1.00  0.00    -0.388 OA
ATOM     28  H   UNL     1      23.548  37.635  11.675  1.00  0.00     0.211 HD
ENDBRANCH   7  27
ENDBRANCH   6   7
BRANCH   6  29
ATOM     29  O   UNL     1      21.715  34.670  12.161  1.00  0.00    -0.388 OA
ATOM     30  H   UNL     1      21.768  34.679  13.164  1.00  0.00     0.211 HD
ENDBRANCH   6  29
ENDBRANCH   5   6
ENDBRANCH   1   5
BRANCH   2  31
ATOM     31  O   UNL     1      27.609  34.781  12.364  1.00  0.00    -0.443 OA
BRANCH  31  32
ATOM     32  C   UNL     1      28.367  35.968  12.341  1.00  0.00     0.294 C 
BRANCH  32  33
ATOM     33  C   UNL     1      29.585  35.875  13.166  1.00  0.00     0.120 A 
ATOM     34  C   UNL     1      30.223  34.709  13.600  1.00  0.00     0.138 A 
ATOM     35  N   UNL     1      30.323  36.880  13.667  1.00  0.00    -0.132 NA
ATOM     36  N   UNL     1      31.295  35.050  14.328  1.00  0.00    -0.248 N 
ATOM     37  N   UNL     1      31.333  36.368  14.354  1.00  0.00    -0.067 NA
BRANCH  36  38
ATOM     38  C   UNL     1      32.240  34.175  14.971  1.00  0.00     0.181 C 
BRANCH  38  39
ATOM     39  C   UNL     1      31.585  33.315  15.979  1.00  0.00    -0.026 A 
ATOM     40  C   UNL     1      31.123  32.065  15.636  1.00  0.00     0.009 A 
ATOM     41  C   UNL     1      31.435  33.767  17.264  1.00  0.00     0.009 A 
ATOM     42  C   UNL     1      30.507  31.261  16.593  1.00  0.00     0.047 A 
ATOM     43  C   UNL     1      30.821  32.973  18.231  1.00  0.00     0.047 A 
ATOM     44  C   UNL     1      30.362  31.727  17.890  1.00  0.00     0.118 A 
BRANCH  44  45
ATOM     45  O   UNL     1      29.742  30.907  18.834  1.00  0.00    -0.497 OA
ATOM     46  C   UNL     1      30.513  30.338  19.879  1.00  0.00     0.278 C 
ENDBRANCH  44  45
ENDBRANCH  38  39
ENDBRANCH  36  38
ENDBRANCH  32  33
ENDBRANCH  31  32
ENDBRANCH   2  31
TORSDOF 17
BEGIN_RES LYS A 131
REMARK  4 active torsions:
REMARK  status: ('A' for Active; 'I' for Inactive)
REMARK    1  A    between atoms: CA   and  CB  
REMARK    2  A    between atoms: CB   and  CG  
REMARK    3  A    between atoms: CG   and  CD  
REMARK    4  A    between atoms: CD   and  CE  
ROOT
ATOM      1  CA  LYS A 131      29.867  25.555  16.977  1.00 20.52     0.186 C 
ENDROOT
BRANCH   1   2
ATOM      2  CB  LYS A 131      28.345  25.722  17.026  1.00 20.94     0.034 C 
BRANCH   2   3
ATOM      3  CG  LYS A 131      27.601  24.402  16.889  1.00 22.96     0.005 C 
BRANCH   3   4
ATOM      4  CD  LYS A 131      26.714  24.126  18.071  1.00 24.33     0.041 C 
BRANCH   4   5
ATOM      5  CE  LYS A 131      26.043  25.421  18.517  1.00 26.91     0.338 C 
ATOM      6  NZ  LYS A 131      24.814  25.668  17.727  1.00 27.40     0.618 N 
ENDBRANCH   4   5
ENDBRANCH   3   4
ENDBRANCH   2   3
ENDBRANCH   1   2
END_RES LYS A 131
BEGIN_RES LYS A 135
REMARK  4 active torsions:
REMARK  status: ('A' for Active; 'I' for Inactive)
REMARK    5  A    between atoms: CA   and  CB  
REMARK    6  A    between atoms: CB   and  CG  
REMARK    7  A    between atoms: CG   and  CD  
REMARK    8  A    between atoms: CD   and  CE  
ROOT
ATOM      7  CA  LYS A 135      33.193  34.663   9.290  1.00 25.02     0.186 C 
ENDROOT
BRANCH   7   8
ATOM      8  CB  LYS A 135      32.060  35.360  10.034  1.00 26.63     0.034 C 
BRANCH   8   9
ATOM      9  CG  LYS A 135      30.712  34.726   9.809  1.00 29.45     0.005 C 
BRANCH   9  10
ATOM     10  CD  LYS A 135      30.466  34.499   8.325  1.00 32.00     0.041 C 
BRANCH  10  11
ATOM     11  CE  LYS A 135      29.094  35.011   7.929  1.00 34.25     0.338 C 
ATOM     12  NZ  LYS A 135      28.025  34.357   8.732  1.00 35.99     0.618 N 
ENDBRANCH  10  11
ENDBRANCH   9  10
ENDBRANCH   8   9
ENDBRANCH   7   8
END_RES LYS A 135
