REMARK VINA RESULT:    -4.800      8.635     13.194
REMARK INTER + INTRA:         -13.580
REMARK INTER:                  -8.491
REMARK INTRA:                  -5.088
REMARK UNBOUND:                -5.272
REMARK SMILES CC(=O)N[C@@H]1[C@@H](O)C[C@](O)(C(=O)O)O[C@H]1C(O)[C@H](O)CNC(=O)OCc1cn(-c2ccncc2)nn1
REMARK SMILES IDX 20 1 18 2 16 3 15 4 9 5 8 6 14 7 6 8 5 9 10 10 11 12 12 13
REMARK SMILES IDX 13 14 7 16 4 18 2 19 1 21 3 22 17 23 19 25 21 27 22 28 23 30
REMARK SMILES IDX 24 31 25 32 26 33 27 34 36 35 28 36 35 37 29 38 30 39 34 40
REMARK SMILES IDX 31 41 33 42 32 43
REMARK H PARENT 10 11 13 15 7 17 4 20 17 24 19 26 21 29
REMARK Flexibility Score: inf
ROOT
ATOM      1  C   UNL     1      23.081  36.609   8.547  1.00  0.00     0.154 C 
ENDROOT
BRANCH   1   2
ATOM      2  C   UNL     1      23.514  37.599   7.523  1.00  0.00     0.165 C 
BRANCH   2   3
ATOM      3  C   UNL     1      24.961  38.030   7.701  1.00  0.00     0.176 C 
BRANCH   3   4
ATOM      4  C   UNL     1      25.931  36.907   7.624  1.00  0.00     0.178 C 
ATOM      5  C   UNL     1      27.421  35.617   8.824  1.00  0.00     0.269 C 
ATOM      6  C   UNL     1      27.728  35.007   7.479  1.00  0.00     0.112 C 
ATOM      7  O   UNL     1      26.287  36.382   8.835  1.00  0.00    -0.332 OA
ATOM      8  C   UNL     1      27.830  36.034   6.385  1.00  0.00     0.145 C 
ATOM      9  C   UNL     1      27.204  37.314   6.902  1.00  0.00     0.142 C 
BRANCH   5  10
ATOM     10  O   UNL     1      28.515  36.313   9.341  1.00  0.00    -0.357 OA
ATOM     11  H   UNL     1      28.341  37.291   9.391  1.00  0.00     0.214 HD
ENDBRANCH   5  10
BRANCH   5  12
ATOM     12  C   UNL     1      27.182  34.465   9.762  1.00  0.00     0.364 C 
ATOM     13  O   UNL     1      27.841  33.414   9.735  1.00  0.00    -0.246 OA
BRANCH  12  14
ATOM     14  O   UNL     1      26.157  34.643  10.688  1.00  0.00    -0.477 OA
ATOM     15  H   UNL     1      25.906  33.893  11.326  1.00  0.00     0.296 HD
ENDBRANCH  12  14
ENDBRANCH   5  12
BRANCH   8  16
ATOM     16  O   UNL     1      29.152  36.261   6.003  1.00  0.00    -0.391 OA
ATOM     17  H   UNL     1      29.179  36.968   5.313  1.00  0.00     0.211 HD
ENDBRANCH   8  16
BRANCH   9  18
ATOM     18  N   UNL     1      26.947  38.254   5.835  1.00  0.00    -0.348 N 
ATOM     19  C   UNL     1      27.892  39.266   5.512  1.00  0.00     0.217 C 
ATOM     20  H   UNL     1      26.074  38.219   5.278  1.00  0.00     0.163 HD
ATOM     21  C   UNL     1      27.658  40.255   4.413  1.00  0.00     0.114 C 
ATOM     22  O   UNL     1      28.960  39.330   6.172  1.00  0.00    -0.275 OA
ENDBRANCH   9  18
ENDBRANCH   3   4
BRANCH   3  23
ATOM     23  O   UNL     1      25.098  38.878   8.770  1.00  0.00    -0.388 OA
ATOM     24  H   UNL     1      26.008  39.281   8.751  1.00  0.00     0.211 HD
ENDBRANCH   3  23
ENDBRANCH   2   3
BRANCH   2  25
ATOM     25  O   UNL     1      22.769  38.764   7.543  1.00  0.00    -0.388 OA
ATOM     26  H   UNL     1      23.133  39.479   6.974  1.00  0.00     0.211 HD
ENDBRANCH   2  25
ENDBRANCH   1   2
BRANCH   1  27
ATOM     27  N   UNL     1      23.295  37.106   9.876  1.00  0.00    -0.319 N 
ATOM     28  C   UNL     1      23.372  36.376  11.069  1.00  0.00     0.407 C 
ATOM     29  H   UNL     1      23.415  38.171   9.992  1.00  0.00     0.167 HD
ATOM     30  O   UNL     1      23.242  35.152  11.072  1.00  0.00    -0.225 OA
BRANCH  28  31
ATOM     31  O   UNL     1      23.598  36.987  12.317  1.00  0.00    -0.443 OA
BRANCH  31  32
ATOM     32  C   UNL     1      24.434  38.148  12.386  1.00  0.00     0.294 C 
BRANCH  32  33
ATOM     33  C   UNL     1      25.853  37.780  12.365  1.00  0.00     0.121 A 
ATOM     34  C   UNL     1      26.555  36.950  13.209  1.00  0.00     0.144 A 
ATOM     35  N   UNL     1      26.748  38.224  11.458  1.00  0.00    -0.131 NA
ATOM     36  N   UNL     1      27.836  36.932  12.773  1.00  0.00    -0.220 N 
ATOM     37  N   UNL     1      27.942  37.702  11.720  1.00  0.00    -0.062 NA
BRANCH  36  38
ATOM     38  C   UNL     1      28.922  36.202  13.348  1.00  0.00     0.069 A 
ATOM     39  C   UNL     1      29.169  34.927  12.900  1.00  0.00     0.048 A 
ATOM     40  C   UNL     1      29.707  36.775  14.341  1.00  0.00     0.048 A 
ATOM     41  C   UNL     1      30.220  34.236  13.465  1.00  0.00     0.113 A 
ATOM     42  C   UNL     1      30.737  36.050  14.868  1.00  0.00     0.113 A 
ATOM     43  N   UNL     1      30.971  34.799  14.420  1.00  0.00    -0.265 NA
ENDBRANCH  36  38
ENDBRANCH  32  33
ENDBRANCH  31  32
ENDBRANCH  28  31
ENDBRANCH   1  27
TORSDOF 15
BEGIN_RES LYS A 131
REMARK  4 active torsions:
REMARK  status: ('A' for Active; 'I' for Inactive)
REMARK    1  A    between atoms: CA   and  CB  
REMARK    2  A    between atoms: CB   and  CG  
REMARK    3  A    between atoms: CG   and  CD  
REMARK    4  A    between atoms: CD   and  CE  
ROOT
ATOM      1  CA  LYS A 131      29.867  25.555  16.977  1.00 20.52     0.186 C 
ENDROOT
BRANCH   1   2
ATOM      2  CB  LYS A 131      28.345  25.722  17.026  1.00 20.94     0.034 C 
BRANCH   2   3
ATOM      3  CG  LYS A 131      27.602  24.398  16.933  1.00 22.96     0.005 C 
BRANCH   3   4
ATOM      4  CD  LYS A 131      26.132  24.553  17.208  1.00 24.33     0.041 C 
BRANCH   4   5
ATOM      5  CE  LYS A 131      25.574  23.240  17.748  1.00 26.91     0.338 C 
ATOM      6  NZ  LYS A 131      25.610  23.230  19.230  1.00 27.40     0.618 N 
ENDBRANCH   4   5
ENDBRANCH   3   4
ENDBRANCH   2   3
ENDBRANCH   1   2
END_RES LYS A 131
BEGIN_RES LYS A 135
REMARK  4 active torsions:
REMARK  status: ('A' for Active; 'I' for Inactive)
REMARK    5  A    between atoms: CA   and  CB  
REMARK    6  A    between atoms: CB   and  CG  
REMARK    7  A    between atoms: CG   and  CD  
REMARK    8  A    between atoms: CD   and  CE  
ROOT
ATOM      7  CA  LYS A 135      33.193  34.663   9.290  1.00 25.02     0.186 C 
ENDROOT
BRANCH   7   8
ATOM      8  CB  LYS A 135      32.060  35.360  10.034  1.00 26.63     0.034 C 
BRANCH   8   9
ATOM      9  CG  LYS A 135      32.529  36.213  11.184  1.00 29.45     0.005 C 
BRANCH   9  10
ATOM     10  CD  LYS A 135      31.689  37.476  11.294  1.00 32.00     0.041 C 
BRANCH  10  11
ATOM     11  CE  LYS A 135      32.022  38.437  10.170  1.00 34.25     0.338 C 
ATOM     12  NZ  LYS A 135      30.797  38.836   9.424  1.00 35.99     0.618 N 
ENDBRANCH  10  11
ENDBRANCH   9  10
ENDBRANCH   8   9
ENDBRANCH   7   8
END_RES LYS A 135
