REMARK VINA RESULT:    -3.981      4.349      7.923
REMARK INTER + INTRA:         -14.164
REMARK INTER:                  -7.590
REMARK INTRA:                  -6.574
REMARK UNBOUND:                -7.042
REMARK SMILES CC(=O)N[C@@H]1[C@@H](O)C[C@](O)(C(=O)O)O[C@H]1C(O)[C@H](O)CNC(=O)OCc1cn(-c2ncccc2C#N)nn1
REMARK SMILES IDX 21 1 22 2 23 3 20 5 18 6 16 7 15 8 9 9 8 10 14 11 6 12 5 13
REMARK SMILES IDX 10 14 11 16 12 17 13 18 7 20 4 22 2 23 1 25 3 26 17 27 19 29
REMARK SMILES IDX 24 31 25 32 26 33 27 34 38 35 28 36 37 37 29 38 30 39 34 40
REMARK SMILES IDX 31 41 33 42 32 43 35 44 36 45
REMARK H PARENT 21 4 10 15 13 19 7 21 4 24 17 28 19 30
REMARK Flexibility Score: inf
ROOT
ATOM      1  N   UNL     1      29.536  31.637  18.463  1.00  0.00    -0.319 N 
ATOM      2  C   UNL     1      28.341  32.276  18.937  1.00  0.00     0.407 C 
ATOM      3  O   UNL     1      28.119  33.473  18.723  1.00  0.00    -0.225 OA
ATOM      4  H   UNL     1      29.571  30.592  18.708  1.00  0.00     0.167 HD
ENDROOT
BRANCH   1   5
ATOM      5  C   UNL     1      30.532  32.252  17.726  1.00  0.00     0.154 C 
BRANCH   5   6
ATOM      6  C   UNL     1      30.587  31.976  16.202  1.00  0.00     0.165 C 
BRANCH   6   7
ATOM      7  C   UNL     1      29.747  33.044  15.614  1.00  0.00     0.176 C 
BRANCH   7   8
ATOM      8  C   UNL     1      30.228  33.789  14.421  1.00  0.00     0.178 C 
ATOM      9  C   UNL     1      32.159  35.116  14.624  1.00  0.00     0.269 C 
ATOM     10  C   UNL     1      31.831  35.978  13.430  1.00  0.00     0.112 C 
ATOM     11  O   UNL     1      31.648  33.823  14.494  1.00  0.00    -0.332 OA
ATOM     12  C   UNL     1      30.442  35.608  12.874  1.00  0.00     0.145 C 
ATOM     13  C   UNL     1      29.682  35.112  14.128  1.00  0.00     0.142 C 
BRANCH   9  14
ATOM     14  O   UNL     1      31.792  35.753  15.799  1.00  0.00    -0.357 OA
ATOM     15  H   UNL     1      30.839  35.778  15.970  1.00  0.00     0.214 HD
ENDBRANCH   9  14
BRANCH   9  16
ATOM     16  C   UNL     1      33.624  34.925  14.592  1.00  0.00     0.364 C 
ATOM     17  O   UNL     1      34.479  35.286  15.305  1.00  0.00    -0.246 OA
BRANCH  16  18
ATOM     18  O   UNL     1      34.047  34.118  13.427  1.00  0.00    -0.477 OA
ATOM     19  H   UNL     1      34.166  34.638  12.555  1.00  0.00     0.296 HD
ENDBRANCH  16  18
ENDBRANCH   9  16
BRANCH  12  20
ATOM     20  O   UNL     1      29.828  36.696  12.308  1.00  0.00    -0.391 OA
ATOM     21  H   UNL     1      29.011  36.938  12.778  1.00  0.00     0.211 HD
ENDBRANCH  12  20
BRANCH  13  22
ATOM     22  N   UNL     1      28.254  35.106  13.778  1.00  0.00    -0.348 N 
ATOM     23  C   UNL     1      27.377  35.899  14.533  1.00  0.00     0.217 C 
ATOM     24  H   UNL     1      27.934  34.557  13.003  1.00  0.00     0.163 HD
ATOM     25  C   UNL     1      25.991  36.188  14.501  1.00  0.00     0.114 C 
ATOM     26  O   UNL     1      28.090  36.531  15.509  1.00  0.00    -0.275 OA
ENDBRANCH  13  22
ENDBRANCH   7   8
BRANCH   7  27
ATOM     27  O   UNL     1      28.420  32.729  15.667  1.00  0.00    -0.388 OA
ATOM     28  H   UNL     1      27.847  33.406  15.219  1.00  0.00     0.211 HD
ENDBRANCH   7  27
ENDBRANCH   6   7
BRANCH   6  29
ATOM     29  O   UNL     1      30.189  30.677  16.058  1.00  0.00    -0.388 OA
ATOM     30  H   UNL     1      30.776  30.220  15.405  1.00  0.00     0.211 HD
ENDBRANCH   6  29
ENDBRANCH   5   6
ENDBRANCH   1   5
BRANCH   2  31
ATOM     31  O   UNL     1      27.412  31.516  19.650  1.00  0.00    -0.443 OA
BRANCH  31  32
ATOM     32  C   UNL     1      27.154  30.139  19.300  1.00  0.00     0.294 C 
BRANCH  32  33
ATOM     33  C   UNL     1      26.843  30.224  17.826  1.00  0.00     0.121 A 
ATOM     34  C   UNL     1      25.783  30.862  17.255  1.00  0.00     0.146 A 
ATOM     35  N   UNL     1      27.625  29.751  16.856  1.00  0.00    -0.131 NA
ATOM     36  N   UNL     1      25.973  30.754  15.904  1.00  0.00    -0.201 N 
ATOM     37  N   UNL     1      27.109  30.070  15.705  1.00  0.00    -0.060 NA
BRANCH  36  38
ATOM     38  C   UNL     1      25.166  31.273  14.897  1.00  0.00     0.173 A 
ATOM     39  N   UNL     1      25.436  32.532  14.353  1.00  0.00    -0.236 NA
ATOM     40  C   UNL     1      24.011  30.697  14.410  1.00  0.00     0.097 A 
ATOM     41  C   UNL     1      24.649  33.042  13.501  1.00  0.00     0.113 A 
ATOM     42  C   UNL     1      23.198  31.243  13.522  1.00  0.00     0.025 A 
ATOM     43  C   UNL     1      23.448  32.525  12.952  1.00  0.00     0.022 A 
BRANCH  40  44
ATOM     44  C   UNL     1      23.597  29.363  14.994  1.00  0.00     0.103 C 
ATOM     45  N   UNL     1      23.307  28.481  15.392  1.00  0.00    -0.192 NA
ENDBRANCH  40  44
ENDBRANCH  36  38
ENDBRANCH  32  33
ENDBRANCH  31  32
ENDBRANCH   2  31
TORSDOF 16
BEGIN_RES LYS A 131
REMARK  4 active torsions:
REMARK  status: ('A' for Active; 'I' for Inactive)
REMARK    1  A    between atoms: CA   and  CB  
REMARK    2  A    between atoms: CB   and  CG  
REMARK    3  A    between atoms: CG   and  CD  
REMARK    4  A    between atoms: CD   and  CE  
ROOT
ATOM      1  CA  LYS A 131      29.867  25.555  16.977  1.00 20.52     0.186 C 
ENDROOT
BRANCH   1   2
ATOM      2  CB  LYS A 131      28.345  25.722  17.026  1.00 20.94     0.034 C 
BRANCH   2   3
ATOM      3  CG  LYS A 131      27.601  24.403  16.887  1.00 22.96     0.005 C 
BRANCH   3   4
ATOM      4  CD  LYS A 131      26.479  24.278  17.880  1.00 24.33     0.041 C 
BRANCH   4   5
ATOM      5  CE  LYS A 131      25.143  24.315  17.145  1.00 26.91     0.338 C 
ATOM      6  NZ  LYS A 131      24.333  23.120  17.479  1.00 27.40     0.618 N 
ENDBRANCH   4   5
ENDBRANCH   3   4
ENDBRANCH   2   3
ENDBRANCH   1   2
END_RES LYS A 131
BEGIN_RES LYS A 135
REMARK  4 active torsions:
REMARK  status: ('A' for Active; 'I' for Inactive)
REMARK    5  A    between atoms: CA   and  CB  
REMARK    6  A    between atoms: CB   and  CG  
REMARK    7  A    between atoms: CG   and  CD  
REMARK    8  A    between atoms: CD   and  CE  
ROOT
ATOM      7  CA  LYS A 135      33.193  34.663   9.290  1.00 25.02     0.186 C 
ENDROOT
BRANCH   7   8
ATOM      8  CB  LYS A 135      32.060  35.360  10.034  1.00 26.63     0.034 C 
BRANCH   8   9
ATOM      9  CG  LYS A 135      30.805  35.513   9.214  1.00 29.45     0.005 C 
BRANCH   9  10
ATOM     10  CD  LYS A 135      30.093  34.177   9.069  1.00 32.00     0.041 C 
BRANCH  10  11
ATOM     11  CE  LYS A 135      28.791  34.180   9.847  1.00 34.25     0.338 C 
ATOM     12  NZ  LYS A 135      27.618  34.128   8.931  1.00 35.99     0.618 N 
ENDBRANCH  10  11
ENDBRANCH   9  10
ENDBRANCH   8   9
ENDBRANCH   7   8
END_RES LYS A 135
