REMARK VINA RESULT:    -3.851      3.245      5.583
REMARK INTER + INTRA:         -17.326
REMARK INTER:                 -12.035
REMARK INTRA:                  -5.291
REMARK UNBOUND:                -8.298
REMARK SMILES CC(=O)N[C@@H]1[C@@H](O)C[C@](O)(C(=O)O)O[C@H]1C(O)[C@H](O)CNC(=O)OCc1cn(CCCCCCCCCCC(=O)O)nn1
REMARK SMILES IDX 29 1 28 2 26 3 27 4 43 5 42 6 25 7 24 8 22 9 21 10 23 12
REMARK SMILES IDX 20 13 18 14 16 15 15 16 9 17 8 18 14 19 6 20 5 21 10 22
REMARK SMILES IDX 11 24 12 25 13 26 7 28 4 30 2 31 1 33 3 34 17 35 19 37 30 39
REMARK SMILES IDX 31 40 32 41 33 42 34 43 35 44 36 45 37 46 38 47 39 48 40 49
REMARK SMILES IDX 41 50
REMARK H PARENT 21 11 10 23 13 27 7 29 4 32 17 36 19 38 41 51
REMARK Flexibility Score: inf
ROOT
ATOM      1  C   UNL     1      29.808  35.200  14.054  1.00  0.00     0.146 C 
ENDROOT
BRANCH   1   2
ATOM      2  N   UNL     1      29.286  34.106  14.826  1.00  0.00    -0.252 N 
ATOM      3  C   UNL     1      28.869  32.155  15.740  1.00  0.00     0.120 A 
ATOM      4  C   UNL     1      29.675  32.799  14.839  1.00  0.00     0.138 A 
ATOM      5  N   UNL     1      28.019  33.073  16.250  1.00  0.00    -0.132 NA
ATOM      6  N   UNL     1      28.294  34.218  15.686  1.00  0.00    -0.067 NA
BRANCH   3   7
ATOM      7  C   UNL     1      28.943  30.716  16.070  1.00  0.00     0.294 C 
BRANCH   7   8
ATOM      8  O   UNL     1      27.753  30.057  15.695  1.00  0.00    -0.443 OA
BRANCH   8   9
ATOM      9  C   UNL     1      27.062  29.268  16.604  1.00  0.00     0.407 C 
ATOM     10  N   UNL     1      27.740  28.475  17.569  1.00  0.00    -0.319 N 
ATOM     11  H   UNL     1      28.781  28.470  17.610  1.00  0.00     0.167 HD
ATOM     12  O   UNL     1      25.784  29.272  16.556  1.00  0.00    -0.225 OA
BRANCH  10  13
ATOM     13  C   UNL     1      26.989  27.679  18.488  1.00  0.00     0.154 C 
BRANCH  13  14
ATOM     14  C   UNL     1      26.889  28.309  19.861  1.00  0.00     0.165 C 
BRANCH  14  15
ATOM     15  C   UNL     1      28.129  28.019  20.651  1.00  0.00     0.176 C 
BRANCH  15  16
ATOM     16  C   UNL     1      28.860  29.308  20.957  1.00  0.00     0.178 C 
ATOM     17  C   UNL     1      28.815  31.569  20.449  1.00  0.00     0.269 C 
ATOM     18  C   UNL     1      30.270  31.506  20.858  1.00  0.00     0.112 C 
ATOM     19  O   UNL     1      28.271  30.312  20.237  1.00  0.00    -0.332 OA
ATOM     20  C   UNL     1      30.925  30.387  20.097  1.00  0.00     0.145 C 
ATOM     21  C   UNL     1      30.318  29.086  20.642  1.00  0.00     0.142 C 
BRANCH  17  22
ATOM     22  O   UNL     1      28.772  32.242  19.232  1.00  0.00    -0.357 OA
ATOM     23  H   UNL     1      28.454  33.166  19.344  1.00  0.00     0.214 HD
ENDBRANCH  17  22
BRANCH  17  24
ATOM     24  C   UNL     1      28.099  32.353  21.456  1.00  0.00     0.364 C 
ATOM     25  O   UNL     1      28.488  33.516  21.720  1.00  0.00    -0.246 OA
BRANCH  24  26
ATOM     26  O   UNL     1      26.993  31.893  22.158  1.00  0.00    -0.477 OA
ATOM     27  H   UNL     1      26.533  31.027  21.836  1.00  0.00     0.296 HD
ENDBRANCH  24  26
ENDBRANCH  17  24
BRANCH  20  28
ATOM     28  O   UNL     1      30.723  30.521  18.740  1.00  0.00    -0.391 OA
ATOM     29  H   UNL     1      31.056  31.413  18.467  1.00  0.00     0.211 HD
ENDBRANCH  20  28
BRANCH  21  30
ATOM     30  N   UNL     1      31.072  28.778  21.839  1.00  0.00    -0.348 N 
ATOM     31  C   UNL     1      31.741  27.533  21.912  1.00  0.00     0.217 C 
ATOM     32  H   UNL     1      31.137  29.447  22.646  1.00  0.00     0.163 HD
ATOM     33  C   UNL     1      32.531  27.177  23.131  1.00  0.00     0.114 C 
ATOM     34  O   UNL     1      31.675  26.729  20.963  1.00  0.00    -0.275 OA
ENDBRANCH  21  30
ENDBRANCH  15  16
BRANCH  15  35
ATOM     35  O   UNL     1      28.915  27.132  19.908  1.00  0.00    -0.388 OA
ATOM     36  H   UNL     1      29.352  27.548  19.144  1.00  0.00     0.211 HD
ENDBRANCH  15  35
ENDBRANCH  14  15
BRANCH  14  37
ATOM     37  O   UNL     1      25.797  27.813  20.572  1.00  0.00    -0.388 OA
ATOM     38  H   UNL     1      25.025  28.405  20.500  1.00  0.00     0.211 HD
ENDBRANCH  14  37
ENDBRANCH  13  14
ENDBRANCH  10  13
ENDBRANCH   8   9
ENDBRANCH   7   8
ENDBRANCH   3   7
ENDBRANCH   1   2
BRANCH   1  39
ATOM     39  C   UNL     1      28.701  35.785  13.219  1.00  0.00     0.024 C 
BRANCH  39  40
ATOM     40  C   UNL     1      28.301  34.900  12.074  1.00  0.00     0.002 C 
BRANCH  40  41
ATOM     41  C   UNL     1      26.832  34.561  12.091  1.00  0.00     0.000 C 
BRANCH  41  42
ATOM     42  C   UNL     1      26.265  34.673  10.678  1.00  0.00     0.000 C 
BRANCH  42  43
ATOM     43  C   UNL     1      27.276  34.127   9.705  1.00  0.00     0.000 C 
BRANCH  43  44
ATOM     44  C   UNL     1      27.066  34.674   8.323  1.00  0.00     0.000 C 
BRANCH  44  45
ATOM     45  C   UNL     1      26.649  36.106   8.381  1.00  0.00     0.001 C 
BRANCH  45  46
ATOM     46  C   UNL     1      26.637  36.731   6.989  1.00  0.00     0.012 C 
BRANCH  46  47
ATOM     47  C   UNL     1      27.811  36.289   6.159  1.00  0.00     0.122 C 
BRANCH  47  48
ATOM     48  C   UNL     1      28.293  37.500   5.424  1.00  0.00     0.303 C 
ATOM     49  O   UNL     1      29.434  37.985   5.571  1.00  0.00    -0.252 OA
BRANCH  48  50
ATOM     50  O   UNL     1      27.434  38.132   4.523  1.00  0.00    -0.481 OA
ATOM     51  H   UNL     1      27.279  39.122   4.610  1.00  0.00     0.296 HD
ENDBRANCH  48  50
ENDBRANCH  47  48
ENDBRANCH  46  47
ENDBRANCH  45  46
ENDBRANCH  44  45
ENDBRANCH  43  44
ENDBRANCH  42  43
ENDBRANCH  41  42
ENDBRANCH  40  41
ENDBRANCH  39  40
ENDBRANCH   1  39
TORSDOF 26
BEGIN_RES LYS A 131
REMARK  4 active torsions:
REMARK  status: ('A' for Active; 'I' for Inactive)
REMARK    1  A    between atoms: CA   and  CB  
REMARK    2  A    between atoms: CB   and  CG  
REMARK    3  A    between atoms: CG   and  CD  
REMARK    4  A    between atoms: CD   and  CE  
ROOT
ATOM      1  CA  LYS A 131      29.867  25.555  16.977  1.00 20.52     0.186 C 
ENDROOT
BRANCH   1   2
ATOM      2  CB  LYS A 131      28.345  25.722  17.026  1.00 20.94     0.034 C 
BRANCH   2   3
ATOM      3  CG  LYS A 131      27.603  24.396  16.966  1.00 22.96     0.005 C 
BRANCH   3   4
ATOM      4  CD  LYS A 131      26.155  24.539  17.345  1.00 24.33     0.041 C 
BRANCH   4   5
ATOM      5  CE  LYS A 131      25.753  23.391  18.265  1.00 26.91     0.338 C 
ATOM      6  NZ  LYS A 131      25.380  22.196  17.471  1.00 27.40     0.618 N 
ENDBRANCH   4   5
ENDBRANCH   3   4
ENDBRANCH   2   3
ENDBRANCH   1   2
END_RES LYS A 131
BEGIN_RES LYS A 135
REMARK  4 active torsions:
REMARK  status: ('A' for Active; 'I' for Inactive)
REMARK    5  A    between atoms: CA   and  CB  
REMARK    6  A    between atoms: CB   and  CG  
REMARK    7  A    between atoms: CG   and  CD  
REMARK    8  A    between atoms: CD   and  CE  
ROOT
ATOM      7  CA  LYS A 135      33.193  34.663   9.290  1.00 25.02     0.186 C 
ENDROOT
BRANCH   7   8
ATOM      8  CB  LYS A 135      32.060  35.360  10.034  1.00 26.63     0.034 C 
BRANCH   8   9
ATOM      9  CG  LYS A 135      30.733  35.280   9.324  1.00 29.45     0.005 C 
BRANCH   9  10
ATOM     10  CD  LYS A 135      30.372  36.623   8.708  1.00 32.00     0.041 C 
BRANCH  10  11
ATOM     11  CE  LYS A 135      30.442  37.722   9.751  1.00 34.25     0.338 C 
ATOM     12  NZ  LYS A 135      29.106  37.968  10.362  1.00 35.99     0.618 N 
ENDBRANCH  10  11
ENDBRANCH   9  10
ENDBRANCH   8   9
ENDBRANCH   7   8
END_RES LYS A 135
