REMARK VINA RESULT:    -4.142      7.532     12.149
REMARK INTER + INTRA:         -13.723
REMARK INTER:                  -7.907
REMARK INTRA:                  -5.816
REMARK UNBOUND:                -6.555
REMARK SMILES CC(=O)N[C@@H]1[C@@H](O)C[C@](O)(C(=O)O)O[C@H]1C(O)[C@H](O)CNC(=O)OCc1cn([C@H]2C[C@H]3CC[C@@H](C2)N3C)nn1
REMARK SMILES IDX 20 1 18 2 16 3 15 4 9 5 8 6 14 7 6 8 5 9 10 10 11 12 12 13
REMARK SMILES IDX 13 14 7 16 4 18 2 19 1 21 3 22 17 23 19 25 21 27 22 28 23 30
REMARK SMILES IDX 24 31 25 32 26 33 27 34 39 35 28 36 38 37 29 38 35 39 30 40
REMARK SMILES IDX 34 41 31 42 36 43 33 44 32 45 37 46
REMARK H PARENT 10 11 13 15 7 17 4 20 17 24 19 26 21 29
REMARK Flexibility Score: inf
ROOT
ATOM      1  C   UNL     1      23.766  36.354   9.291  1.00  0.00     0.154 C 
ENDROOT
BRANCH   1   2
ATOM      2  C   UNL     1      25.253  36.275   9.322  1.00  0.00     0.165 C 
BRANCH   2   3
ATOM      3  C   UNL     1      25.934  37.254   8.417  1.00  0.00     0.176 C 
BRANCH   3   4
ATOM      4  C   UNL     1      27.096  36.647   7.666  1.00  0.00     0.178 C 
ATOM      5  C   UNL     1      29.263  35.902   7.974  1.00  0.00     0.269 C 
ATOM      6  C   UNL     1      29.148  35.774   6.479  1.00  0.00     0.112 C 
ATOM      7  O   UNL     1      28.075  36.281   8.579  1.00  0.00    -0.332 OA
ATOM      8  C   UNL     1      28.616  37.005   5.811  1.00  0.00     0.145 C 
ATOM      9  C   UNL     1      27.698  37.711   6.771  1.00  0.00     0.142 C 
BRANCH   5  10
ATOM     10  O   UNL     1      30.306  36.743   8.360  1.00  0.00    -0.357 OA
ATOM     11  H   UNL     1      29.964  37.646   8.562  1.00  0.00     0.214 HD
ENDBRANCH   5  10
BRANCH   5  12
ATOM     12  C   UNL     1      29.597  34.542   8.503  1.00  0.00     0.364 C 
ATOM     13  O   UNL     1      28.683  33.784   8.974  1.00  0.00    -0.246 OA
BRANCH  12  14
ATOM     14  O   UNL     1      30.875  34.035   8.515  1.00  0.00    -0.477 OA
ATOM     15  H   UNL     1      31.530  34.405   9.216  1.00  0.00     0.296 HD
ENDBRANCH  12  14
ENDBRANCH   5  12
BRANCH   8  16
ATOM     16  O   UNL     1      29.591  37.812   5.274  1.00  0.00    -0.391 OA
ATOM     17  H   UNL     1      30.016  37.318   4.524  1.00  0.00     0.211 HD
ENDBRANCH   8  16
BRANCH   9  18
ATOM     18  N   UNL     1      26.694  38.511   6.117  1.00  0.00    -0.348 N 
ATOM     19  C   UNL     1      26.890  39.895   5.823  1.00  0.00     0.217 C 
ATOM     20  H   UNL     1      25.779  38.096   5.833  1.00  0.00     0.163 HD
ATOM     21  C   UNL     1      25.821  40.660   5.150  1.00  0.00     0.114 C 
ATOM     22  O   UNL     1      27.981  40.412   6.155  1.00  0.00    -0.275 OA
ENDBRANCH   9  18
ENDBRANCH   3   4
BRANCH   3  23
ATOM     23  O   UNL     1      26.423  38.313   9.180  1.00  0.00    -0.388 OA
ATOM     24  H   UNL     1      25.767  38.642   9.819  1.00  0.00     0.211 HD
ENDBRANCH   3  23
ENDBRANCH   2   3
BRANCH   2  25
ATOM     25  O   UNL     1      25.699  34.979   8.972  1.00  0.00    -0.388 OA
ATOM     26  H   UNL     1      24.896  34.394   9.076  1.00  0.00     0.211 HD
ENDBRANCH   2  25
ENDBRANCH   1   2
BRANCH   1  27
ATOM     27  N   UNL     1      23.291  37.659   8.899  1.00  0.00    -0.319 N 
ATOM     28  C   UNL     1      22.548  38.445   9.819  1.00  0.00     0.407 C 
ATOM     29  H   UNL     1      23.470  38.070   7.952  1.00  0.00     0.167 HD
ATOM     30  O   UNL     1      22.269  38.059  10.987  1.00  0.00    -0.225 OA
BRANCH  28  31
ATOM     31  O   UNL     1      22.067  39.713   9.494  1.00  0.00    -0.443 OA
BRANCH  31  32
ATOM     32  C   UNL     1      22.555  40.892  10.101  1.00  0.00     0.294 C 
BRANCH  32  33
ATOM     33  C   UNL     1      24.015  41.028   9.848  1.00  0.00     0.120 A 
ATOM     34  C   UNL     1      24.954  41.383  10.794  1.00  0.00     0.138 A 
ATOM     35  N   UNL     1      24.708  40.845   8.711  1.00  0.00    -0.132 NA
ATOM     36  N   UNL     1      26.186  41.408  10.213  1.00  0.00    -0.249 N 
ATOM     37  N   UNL     1      25.978  41.074   8.951  1.00  0.00    -0.067 NA
BRANCH  36  38
ATOM     38  C   UNL     1      27.456  41.733  10.855  1.00  0.00     0.112 C 
ATOM     39  C   UNL     1      28.477  41.909   9.793  1.00  0.00     0.046 C 
ATOM     40  C   UNL     1      27.746  40.670  11.853  1.00  0.00     0.046 C 
ATOM     41  C   UNL     1      29.860  41.503  10.157  1.00  0.00     0.058 C 
ATOM     42  C   UNL     1      29.167  40.170  11.829  1.00  0.00     0.058 C 
ATOM     43  N   UNL     1      30.021  41.318  11.582  1.00  0.00    -0.300 NA
ATOM     44  C   UNL     1      30.093  40.097   9.627  1.00  0.00     0.021 C 
ATOM     45  C   UNL     1      29.324  39.264  10.634  1.00  0.00     0.021 C 
ATOM     46  C   UNL     1      31.402  41.047  11.895  1.00  0.00     0.105 C 
ENDBRANCH  36  38
ENDBRANCH  32  33
ENDBRANCH  31  32
ENDBRANCH  28  31
ENDBRANCH   1  27
TORSDOF 15
BEGIN_RES LYS A 131
REMARK  4 active torsions:
REMARK  status: ('A' for Active; 'I' for Inactive)
REMARK    1  A    between atoms: CA   and  CB  
REMARK    2  A    between atoms: CB   and  CG  
REMARK    3  A    between atoms: CG   and  CD  
REMARK    4  A    between atoms: CD   and  CE  
ROOT
ATOM      1  CA  LYS A 131      29.867  25.555  16.977  1.00 20.52     0.186 C 
ENDROOT
BRANCH   1   2
ATOM      2  CB  LYS A 131      28.345  25.722  17.026  1.00 20.94     0.034 C 
BRANCH   2   3
ATOM      3  CG  LYS A 131      27.601  24.401  16.901  1.00 22.96     0.005 C 
BRANCH   3   4
ATOM      4  CD  LYS A 131      26.553  24.238  17.967  1.00 24.33     0.041 C 
BRANCH   4   5
ATOM      5  CE  LYS A 131      25.204  23.955  17.315  1.00 26.91     0.338 C 
ATOM      6  NZ  LYS A 131      24.838  22.528  17.477  1.00 27.40     0.618 N 
ENDBRANCH   4   5
ENDBRANCH   3   4
ENDBRANCH   2   3
ENDBRANCH   1   2
END_RES LYS A 131
BEGIN_RES LYS A 135
REMARK  4 active torsions:
REMARK  status: ('A' for Active; 'I' for Inactive)
REMARK    5  A    between atoms: CA   and  CB  
REMARK    6  A    between atoms: CB   and  CG  
REMARK    7  A    between atoms: CG   and  CD  
REMARK    8  A    between atoms: CD   and  CE  
ROOT
ATOM      7  CA  LYS A 135      33.193  34.663   9.290  1.00 25.02     0.186 C 
ENDROOT
BRANCH   7   8
ATOM      8  CB  LYS A 135      32.060  35.360  10.034  1.00 26.63     0.034 C 
BRANCH   8   9
ATOM      9  CG  LYS A 135      32.527  36.194  11.199  1.00 29.45     0.005 C 
BRANCH   9  10
ATOM     10  CD  LYS A 135      31.367  36.516  12.128  1.00 32.00     0.041 C 
BRANCH  10  11
ATOM     11  CE  LYS A 135      30.191  35.600  11.849  1.00 34.25     0.338 C 
ATOM     12  NZ  LYS A 135      30.065  34.553  12.900  1.00 35.99     0.618 N 
ENDBRANCH  10  11
ENDBRANCH   9  10
ENDBRANCH   8   9
ENDBRANCH   7   8
END_RES LYS A 135
