REMARK VINA RESULT:    -4.210      6.961     11.368
REMARK INTER + INTRA:         -13.571
REMARK INTER:                  -7.335
REMARK INTRA:                  -6.236
REMARK UNBOUND:                -6.285
REMARK SMILES CC(=O)N[C@@H]1[C@@H](O)C[C@](O)(C(=O)O)O[C@H]1C(O)[C@H](O)CNC(=O)OCc1cn(-c2ccccc2I)nn1
REMARK SMILES IDX 20 1 18 2 16 3 15 4 9 5 8 6 14 7 6 8 5 9 10 10 11 12 12 13
REMARK SMILES IDX 13 14 7 16 4 18 2 19 1 21 3 22 17 23 19 25 21 27 22 28 23 30
REMARK SMILES IDX 24 31 25 32 26 33 27 34 37 35 28 36 36 37 29 38 30 39 34 40
REMARK SMILES IDX 31 41 33 42 35 43 32 44
REMARK H PARENT 10 11 13 15 7 17 4 20 17 24 19 26 21 29
REMARK Flexibility Score: inf
ROOT
ATOM      1  C   UNL     1      21.461  41.165   8.299  1.00  0.00     0.154 C 
ENDROOT
BRANCH   1   2
ATOM      2  C   UNL     1      20.615  40.233   9.136  1.00  0.00     0.165 C 
BRANCH   2   3
ATOM      3  C   UNL     1      20.686  38.842   8.614  1.00  0.00     0.176 C 
BRANCH   3   4
ATOM      4  C   UNL     1      21.392  37.843   9.495  1.00  0.00     0.178 C 
ATOM      5  C   UNL     1      23.430  37.136   8.548  1.00  0.00     0.269 C 
ATOM      6  C   UNL     1      23.016  35.684   8.672  1.00  0.00     0.112 C 
ATOM      7  O   UNL     1      22.723  38.001   9.302  1.00  0.00    -0.332 OA
ATOM      8  C   UNL     1      21.528  35.630   8.438  1.00  0.00     0.145 C 
ATOM      9  C   UNL     1      20.859  36.467   9.499  1.00  0.00     0.142 C 
BRANCH   5  10
ATOM     10  O   UNL     1      23.250  37.465   7.205  1.00  0.00    -0.357 OA
ATOM     11  H   UNL     1      22.470  36.922   6.881  1.00  0.00     0.214 HD
ENDBRANCH   5  10
BRANCH   5  12
ATOM     12  C   UNL     1      24.901  37.189   8.822  1.00  0.00     0.364 C 
ATOM     13  O   UNL     1      25.397  37.834   9.771  1.00  0.00    -0.246 OA
BRANCH  12  14
ATOM     14  O   UNL     1      25.746  36.493   7.984  1.00  0.00    -0.477 OA
ATOM     15  H   UNL     1      26.763  36.593   8.011  1.00  0.00     0.296 HD
ENDBRANCH  12  14
ENDBRANCH   5  12
BRANCH   8  16
ATOM     16  O   UNL     1      21.308  36.115   7.147  1.00  0.00    -0.391 OA
ATOM     17  H   UNL     1      21.649  37.036   7.030  1.00  0.00     0.211 HD
ENDBRANCH   8  16
BRANCH   9  18
ATOM     18  N   UNL     1      21.154  35.815  10.788  1.00  0.00    -0.348 N 
ATOM     19  C   UNL     1      20.334  34.785  11.311  1.00  0.00     0.217 C 
ATOM     20  H   UNL     1      21.983  36.111  11.341  1.00  0.00     0.163 HD
ATOM     21  C   UNL     1      20.699  34.181  12.613  1.00  0.00     0.114 C 
ATOM     22  O   UNL     1      19.309  34.382  10.686  1.00  0.00    -0.275 OA
ENDBRANCH   9  18
ENDBRANCH   3   4
BRANCH   3  23
ATOM     23  O   UNL     1      19.475  38.391   8.108  1.00  0.00    -0.388 OA
ATOM     24  H   UNL     1      19.040  37.736   8.723  1.00  0.00     0.211 HD
ENDBRANCH   3  23
ENDBRANCH   2   3
BRANCH   2  25
ATOM     25  O   UNL     1      19.295  40.749   9.051  1.00  0.00    -0.388 OA
ATOM     26  H   UNL     1      19.340  41.743   8.994  1.00  0.00     0.211 HD
ENDBRANCH   2  25
ENDBRANCH   1   2
BRANCH   1  27
ATOM     27  N   UNL     1      22.316  40.485   7.352  1.00  0.00    -0.319 N 
ATOM     28  C   UNL     1      23.726  40.722   7.402  1.00  0.00     0.407 C 
ATOM     29  H   UNL     1      21.886  39.840   6.668  1.00  0.00     0.167 HD
ATOM     30  O   UNL     1      24.164  41.507   8.260  1.00  0.00    -0.225 OA
BRANCH  28  31
ATOM     31  O   UNL     1      24.522  40.059   6.484  1.00  0.00    -0.443 OA
BRANCH  31  32
ATOM     32  C   UNL     1      25.786  40.586   6.176  1.00  0.00     0.294 C 
BRANCH  32  33
ATOM     33  C   UNL     1      26.814  39.699   6.774  1.00  0.00     0.121 A 
ATOM     34  C   UNL     1      27.542  40.009   7.928  1.00  0.00     0.144 A 
ATOM     35  N   UNL     1      27.249  38.497   6.380  1.00  0.00    -0.131 NA
ATOM     36  N   UNL     1      28.352  38.965   8.129  1.00  0.00    -0.219 N 
ATOM     37  N   UNL     1      28.184  38.045   7.199  1.00  0.00    -0.062 NA
BRANCH  36  38
ATOM     38  C   UNL     1      29.274  38.851   9.198  1.00  0.00     0.080 A 
ATOM     39  C   UNL     1      28.828  38.357  10.423  1.00  0.00     0.029 A 
ATOM     40  C   UNL     1      30.576  39.224   9.005  1.00  0.00     0.039 A 
ATOM     41  C   UNL     1      29.719  38.242  11.469  1.00  0.00     0.002 A 
ATOM     42  C   UNL     1      31.454  39.101  10.067  1.00  0.00     0.017 A 
ATOM     43  I   UNL     1      31.296  39.974   7.174  1.00  0.00    -0.042 I 
ATOM     44  C   UNL     1      31.034  38.615  11.292  1.00  0.00     0.001 A 
ENDBRANCH  36  38
ENDBRANCH  32  33
ENDBRANCH  31  32
ENDBRANCH  28  31
ENDBRANCH   1  27
TORSDOF 15
BEGIN_RES LYS A 131
REMARK  4 active torsions:
REMARK  status: ('A' for Active; 'I' for Inactive)
REMARK    1  A    between atoms: CA   and  CB  
REMARK    2  A    between atoms: CB   and  CG  
REMARK    3  A    between atoms: CG   and  CD  
REMARK    4  A    between atoms: CD   and  CE  
ROOT
ATOM      1  CA  LYS A 131      29.867  25.555  16.977  1.00 20.52     0.186 C 
ENDROOT
BRANCH   1   2
ATOM      2  CB  LYS A 131      28.345  25.722  17.026  1.00 20.94     0.034 C 
BRANCH   2   3
ATOM      3  CG  LYS A 131      27.599  24.418  16.785  1.00 22.96     0.005 C 
BRANCH   3   4
ATOM      4  CD  LYS A 131      26.197  24.460  17.325  1.00 24.33     0.041 C 
BRANCH   4   5
ATOM      5  CE  LYS A 131      25.854  23.113  17.953  1.00 26.91     0.338 C 
ATOM      6  NZ  LYS A 131      25.456  23.287  19.370  1.00 27.40     0.618 N 
ENDBRANCH   4   5
ENDBRANCH   3   4
ENDBRANCH   2   3
ENDBRANCH   1   2
END_RES LYS A 131
BEGIN_RES LYS A 135
REMARK  4 active torsions:
REMARK  status: ('A' for Active; 'I' for Inactive)
REMARK    5  A    between atoms: CA   and  CB  
REMARK    6  A    between atoms: CB   and  CG  
REMARK    7  A    between atoms: CG   and  CD  
REMARK    8  A    between atoms: CD   and  CE  
ROOT
ATOM      7  CA  LYS A 135      33.193  34.663   9.290  1.00 25.02     0.186 C 
ENDROOT
BRANCH   7   8
ATOM      8  CB  LYS A 135      32.060  35.360  10.034  1.00 26.63     0.034 C 
BRANCH   8   9
ATOM      9  CG  LYS A 135      30.798  35.492   9.222  1.00 29.45     0.005 C 
BRANCH   9  10
ATOM     10  CD  LYS A 135      29.970  34.219   9.305  1.00 32.00     0.041 C 
BRANCH  10  11
ATOM     11  CE  LYS A 135      28.674  34.473  10.050  1.00 34.25     0.338 C 
ATOM     12  NZ  LYS A 135      27.542  33.735   9.424  1.00 35.99     0.618 N 
ENDBRANCH  10  11
ENDBRANCH   9  10
ENDBRANCH   8   9
ENDBRANCH   7   8
END_RES LYS A 135
