REMARK VINA RESULT:    -4.770      6.586     14.117
REMARK INTER + INTRA:         -14.637
REMARK INTER:                  -8.880
REMARK INTRA:                  -5.757
REMARK UNBOUND:                -5.964
REMARK SMILES CC(=O)N[C@@H]1[C@@H](O)C[C@](O)(C(=O)O)O[C@H]1C(O)[C@H](O)CNC(=O)OCc1cn(-c2ccc(S(N)(=O)=O)cc2)nn1
REMARK SMILES IDX 21 1 22 2 23 3 20 5 18 6 16 7 15 8 9 9 8 10 14 11 6 12 5 13
REMARK SMILES IDX 10 14 11 16 12 17 13 18 7 20 4 22 2 23 1 25 3 26 17 27 19 29
REMARK SMILES IDX 24 31 25 32 26 33 27 34 40 35 28 36 39 37 29 38 30 39 38 40
REMARK SMILES IDX 31 41 37 42 32 43 33 44 35 45 36 46 34 47
REMARK H PARENT 21 4 10 15 13 19 7 21 4 24 17 28 19 30 34 48 34 49
REMARK Flexibility Score: inf
ROOT
ATOM      1  N   UNL     1      28.902  39.271   6.492  1.00  0.00    -0.319 N 
ATOM      2  C   UNL     1      30.149  39.884   6.301  1.00  0.00     0.407 C 
ATOM      3  O   UNL     1      30.999  39.379   5.551  1.00  0.00    -0.225 OA
ATOM      4  H   UNL     1      28.222  39.753   7.141  1.00  0.00     0.167 HD
ENDROOT
BRANCH   1   5
ATOM      5  C   UNL     1      28.544  38.054   5.852  1.00  0.00     0.154 C 
BRANCH   5   6
ATOM      6  C   UNL     1      27.363  37.354   6.513  1.00  0.00     0.165 C 
BRANCH   6   7
ATOM      7  C   UNL     1      27.080  38.035   7.821  1.00  0.00     0.176 C 
BRANCH   7   8
ATOM      8  C   UNL     1      25.649  38.318   8.076  1.00  0.00     0.178 C 
ATOM      9  C   UNL     1      23.583  37.249   7.948  1.00  0.00     0.269 C 
ATOM     10  C   UNL     1      23.219  38.478   8.744  1.00  0.00     0.112 C 
ATOM     11  O   UNL     1      24.904  37.207   7.599  1.00  0.00    -0.332 OA
ATOM     12  C   UNL     1      23.708  39.750   8.125  1.00  0.00     0.145 C 
ATOM     13  C   UNL     1      25.034  39.510   7.445  1.00  0.00     0.142 C 
BRANCH   9  14
ATOM     14  O   UNL     1      22.734  37.102   6.825  1.00  0.00    -0.357 OA
ATOM     15  H   UNL     1      23.040  37.674   6.077  1.00  0.00     0.214 HD
ENDBRANCH   9  14
BRANCH   9  16
ATOM     16  C   UNL     1      23.299  36.073   8.813  1.00  0.00     0.364 C 
ATOM     17  O   UNL     1      24.180  35.719   9.636  1.00  0.00    -0.246 OA
BRANCH  16  18
ATOM     18  O   UNL     1      22.126  35.343   8.768  1.00  0.00    -0.477 OA
ATOM     19  H   UNL     1      21.355  35.554   9.396  1.00  0.00     0.296 HD
ENDBRANCH  16  18
ENDBRANCH   9  16
BRANCH  12  20
ATOM     20  O   UNL     1      22.731  40.219   7.255  1.00  0.00    -0.391 OA
ATOM     21  H   UNL     1      22.552  39.485   6.614  1.00  0.00     0.211 HD
ENDBRANCH  12  20
BRANCH  13  22
ATOM     22  N   UNL     1      25.821  40.675   7.297  1.00  0.00    -0.348 N 
ATOM     23  C   UNL     1      25.812  41.456   6.119  1.00  0.00     0.217 C 
ATOM     24  H   UNL     1      26.423  41.004   8.077  1.00  0.00     0.163 HD
ATOM     25  C   UNL     1      26.657  42.693   5.978  1.00  0.00     0.114 C 
ATOM     26  O   UNL     1      25.078  41.090   5.184  1.00  0.00    -0.275 OA
ENDBRANCH  13  22
ENDBRANCH   7   8
BRANCH   7  27
ATOM     27  O   UNL     1      27.846  37.634   8.883  1.00  0.00    -0.388 OA
ATOM     28  H   UNL     1      27.293  37.626   9.695  1.00  0.00     0.211 HD
ENDBRANCH   7  27
ENDBRANCH   6   7
BRANCH   6  29
ATOM     29  O   UNL     1      27.626  36.012   6.585  1.00  0.00    -0.388 OA
ATOM     30  H   UNL     1      27.075  35.589   7.299  1.00  0.00     0.211 HD
ENDBRANCH   6  29
ENDBRANCH   5   6
ENDBRANCH   1   5
BRANCH   2  31
ATOM     31  O   UNL     1      30.502  41.084   6.937  1.00  0.00    -0.443 OA
BRANCH  31  32
ATOM     32  C   UNL     1      31.450  41.105   7.958  1.00  0.00     0.294 C 
BRANCH  32  33
ATOM     33  C   UNL     1      31.068  40.238   9.094  1.00  0.00     0.121 A 
ATOM     34  C   UNL     1      31.849  39.476   9.929  1.00  0.00     0.144 A 
ATOM     35  N   UNL     1      29.793  40.050   9.520  1.00  0.00    -0.131 NA
ATOM     36  N   UNL     1      31.066  38.851  10.827  1.00  0.00    -0.220 N 
ATOM     37  N   UNL     1      29.832  39.221  10.549  1.00  0.00    -0.062 NA
BRANCH  36  38
ATOM     38  C   UNL     1      31.445  37.965  11.876  1.00  0.00     0.066 A 
ATOM     39  C   UNL     1      30.981  38.125  13.163  1.00  0.00     0.030 A 
ATOM     40  C   UNL     1      32.301  36.904  11.643  1.00  0.00     0.030 A 
ATOM     41  C   UNL     1      31.339  37.277  14.188  1.00  0.00     0.024 A 
ATOM     42  C   UNL     1      32.661  36.053  12.667  1.00  0.00     0.024 A 
ATOM     43  C   UNL     1      32.204  36.202  13.959  1.00  0.00     0.082 A 
BRANCH  43  44
ATOM     44  S   UNL     1      32.656  35.130  15.264  1.00  0.00     0.238 S 
ATOM     45  O   UNL     1      34.132  35.303  15.491  1.00  0.00    -0.207 OA
ATOM     46  O   UNL     1      31.967  35.593  16.527  1.00  0.00    -0.207 OA
BRANCH  44  47
ATOM     47  N   UNL     1      32.289  33.490  14.935  1.00  0.00    -0.225 NA
ATOM     48  H   UNL     1      32.083  32.915  15.759  1.00  0.00     0.137 HD
ATOM     49  H   UNL     1      31.568  33.388  14.185  1.00  0.00     0.137 HD
ENDBRANCH  44  47
ENDBRANCH  43  44
ENDBRANCH  36  38
ENDBRANCH  32  33
ENDBRANCH  31  32
ENDBRANCH   2  31
TORSDOF 17
BEGIN_RES LYS A 131
REMARK  4 active torsions:
REMARK  status: ('A' for Active; 'I' for Inactive)
REMARK    1  A    between atoms: CA   and  CB  
REMARK    2  A    between atoms: CB   and  CG  
REMARK    3  A    between atoms: CG   and  CD  
REMARK    4  A    between atoms: CD   and  CE  
ROOT
ATOM      1  CA  LYS A 131      29.867  25.555  16.977  1.00 20.52     0.186 C 
ENDROOT
BRANCH   1   2
ATOM      2  CB  LYS A 131      28.345  25.722  17.026  1.00 20.94     0.034 C 
BRANCH   2   3
ATOM      3  CG  LYS A 131      27.601  24.401  16.903  1.00 22.96     0.005 C 
BRANCH   3   4
ATOM      4  CD  LYS A 131      26.154  24.528  17.289  1.00 24.33     0.041 C 
BRANCH   4   5
ATOM      5  CE  LYS A 131      25.795  23.431  18.288  1.00 26.91     0.338 C 
ATOM      6  NZ  LYS A 131      25.008  22.364  17.626  1.00 27.40     0.618 N 
ENDBRANCH   4   5
ENDBRANCH   3   4
ENDBRANCH   2   3
ENDBRANCH   1   2
END_RES LYS A 131
BEGIN_RES LYS A 135
REMARK  4 active torsions:
REMARK  status: ('A' for Active; 'I' for Inactive)
REMARK    5  A    between atoms: CA   and  CB  
REMARK    6  A    between atoms: CB   and  CG  
REMARK    7  A    between atoms: CG   and  CD  
REMARK    8  A    between atoms: CD   and  CE  
ROOT
ATOM      7  CA  LYS A 135      33.193  34.663   9.290  1.00 25.02     0.186 C 
ENDROOT
BRANCH   7   8
ATOM      8  CB  LYS A 135      32.060  35.360  10.034  1.00 26.63     0.034 C 
BRANCH   8   9
ATOM      9  CG  LYS A 135      30.789  35.468   9.231  1.00 29.45     0.005 C 
BRANCH   9  10
ATOM     10  CD  LYS A 135      30.220  34.089   8.939  1.00 32.00     0.041 C 
BRANCH  10  11
ATOM     11  CE  LYS A 135      28.751  34.029   9.312  1.00 34.25     0.338 C 
ATOM     12  NZ  LYS A 135      28.535  34.477  10.715  1.00 35.99     0.618 N 
ENDBRANCH  10  11
ENDBRANCH   9  10
ENDBRANCH   8   9
ENDBRANCH   7   8
END_RES LYS A 135
