REMARK VINA RESULT:    -4.015      3.123      5.880
REMARK INTER + INTRA:         -13.957
REMARK INTER:                  -8.835
REMARK INTRA:                  -5.122
REMARK UNBOUND:                -7.007
REMARK SMILES CC(=O)N[C@@H]1[C@@H](O)C[C@](O)(C(=O)O)O[C@H]1C(O)[C@H](O)CNC(=O)OCc1cn(-c2ccc(Cl)cc2)nn1
REMARK SMILES IDX 20 1 18 2 16 3 15 4 9 5 8 6 14 7 6 8 5 9 10 10 11 12 12 13
REMARK SMILES IDX 13 14 7 16 4 18 2 19 1 21 3 22 17 23 19 25 21 27 22 28 23 30
REMARK SMILES IDX 24 31 25 32 26 33 27 34 37 35 28 36 36 37 29 38 30 39 35 40
REMARK SMILES IDX 31 41 34 42 32 43 33 44
REMARK H PARENT 10 11 13 15 7 17 4 20 17 24 19 26 21 29
REMARK Flexibility Score: inf
ROOT
ATOM      1  C   UNL     1      29.750  31.317  18.299  1.00  0.00     0.154 C 
ENDROOT
BRANCH   1   2
ATOM      2  C   UNL     1      29.980  30.793  19.681  1.00  0.00     0.165 C 
BRANCH   2   3
ATOM      3  C   UNL     1      28.812  29.856  20.030  1.00  0.00     0.176 C 
BRANCH   3   4
ATOM      4  C   UNL     1      29.019  29.209  21.397  1.00  0.00     0.178 C 
ATOM      5  C   UNL     1      30.962  27.895  21.504  1.00  0.00     0.269 C 
ATOM      6  C   UNL     1      30.388  26.846  22.431  1.00  0.00     0.112 C 
ATOM      7  O   UNL     1      30.384  29.115  21.577  1.00  0.00    -0.332 OA
ATOM      8  C   UNL     1      28.967  27.176  22.715  1.00  0.00     0.145 C 
ATOM      9  C   UNL     1      28.384  27.884  21.508  1.00  0.00     0.142 C 
BRANCH   5  10
ATOM     10  O   UNL     1      30.966  27.329  20.231  1.00  0.00    -0.357 OA
ATOM     11  H   UNL     1      30.215  26.683  20.214  1.00  0.00     0.214 HD
ENDBRANCH   5  10
BRANCH   5  12
ATOM     12  C   UNL     1      32.382  28.053  21.909  1.00  0.00     0.364 C 
ATOM     13  O   UNL     1      32.916  29.176  21.757  1.00  0.00    -0.246 OA
BRANCH  12  14
ATOM     14  O   UNL     1      33.108  27.020  22.434  1.00  0.00    -0.477 OA
ATOM     15  H   UNL     1      33.899  26.639  21.908  1.00  0.00     0.296 HD
ENDBRANCH  12  14
ENDBRANCH   5  12
BRANCH   8  16
ATOM     16  O   UNL     1      28.206  26.076  23.094  1.00  0.00    -0.391 OA
ATOM     17  H   UNL     1      28.675  25.544  23.769  1.00  0.00     0.211 HD
ENDBRANCH   8  16
BRANCH   9  18
ATOM     18  N   UNL     1      26.967  27.833  21.624  1.00  0.00    -0.348 N 
ATOM     19  C   UNL     1      26.124  27.282  20.630  1.00  0.00     0.217 C 
ATOM     20  H   UNL     1      26.567  28.238  22.511  1.00  0.00     0.163 HD
ATOM     21  C   UNL     1      24.655  27.245  20.785  1.00  0.00     0.114 C 
ATOM     22  O   UNL     1      26.729  26.832  19.618  1.00  0.00    -0.275 OA
ENDBRANCH   9  18
ENDBRANCH   3   4
BRANCH   3  23
ATOM     23  O   UNL     1      28.693  28.866  19.049  1.00  0.00    -0.388 OA
ATOM     24  H   UNL     1      28.151  29.183  18.273  1.00  0.00     0.211 HD
ENDBRANCH   3  23
ENDBRANCH   2   3
BRANCH   2  25
ATOM     25  O   UNL     1      30.119  31.785  20.624  1.00  0.00    -0.388 OA
ATOM     26  H   UNL     1      29.599  32.596  20.487  1.00  0.00     0.211 HD
ENDBRANCH   2  25
ENDBRANCH   1   2
BRANCH   1  27
ATOM     27  N   UNL     1      30.513  32.458  17.918  1.00  0.00    -0.319 N 
ATOM     28  C   UNL     1      31.146  32.633  16.662  1.00  0.00     0.407 C 
ATOM     29  H   UNL     1      30.630  33.249  18.611  1.00  0.00     0.167 HD
ATOM     30  O   UNL     1      31.071  31.775  15.767  1.00  0.00    -0.225 OA
BRANCH  28  31
ATOM     31  O   UNL     1      31.885  33.803  16.401  1.00  0.00    -0.443 OA
BRANCH  31  32
ATOM     32  C   UNL     1      32.246  34.152  15.068  1.00  0.00     0.294 C 
BRANCH  32  33
ATOM     33  C   UNL     1      31.147  34.992  14.533  1.00  0.00     0.121 A 
ATOM     34  C   UNL     1      30.317  34.667  13.501  1.00  0.00     0.144 A 
ATOM     35  N   UNL     1      30.787  36.192  14.963  1.00  0.00    -0.131 NA
ATOM     36  N   UNL     1      29.466  35.701  13.336  1.00  0.00    -0.220 N 
ATOM     37  N   UNL     1      29.765  36.622  14.234  1.00  0.00    -0.062 NA
BRANCH  36  38
ATOM     38  C   UNL     1      28.442  35.720  12.337  1.00  0.00     0.066 A 
ATOM     39  C   UNL     1      27.734  34.573  12.073  1.00  0.00     0.030 A 
ATOM     40  C   UNL     1      28.212  36.902  11.679  1.00  0.00     0.030 A 
ATOM     41  C   UNL     1      26.754  34.635  11.101  1.00  0.00     0.023 A 
ATOM     42  C   UNL     1      27.226  36.931  10.713  1.00  0.00     0.023 A 
ATOM     43  C   UNL     1      26.491  35.811  10.413  1.00  0.00     0.041 A 
ATOM     44  Cl  UNL     1      25.260  35.913   9.183  1.00  0.00    -0.084 Cl
ENDBRANCH  36  38
ENDBRANCH  32  33
ENDBRANCH  31  32
ENDBRANCH  28  31
ENDBRANCH   1  27
TORSDOF 15
BEGIN_RES LYS A 131
REMARK  4 active torsions:
REMARK  status: ('A' for Active; 'I' for Inactive)
REMARK    1  A    between atoms: CA   and  CB  
REMARK    2  A    between atoms: CB   and  CG  
REMARK    3  A    between atoms: CG   and  CD  
REMARK    4  A    between atoms: CD   and  CE  
ROOT
ATOM      1  CA  LYS A 131      29.867  25.555  16.977  1.00 20.52     0.186 C 
ENDROOT
BRANCH   1   2
ATOM      2  CB  LYS A 131      28.345  25.722  17.026  1.00 20.94     0.034 C 
BRANCH   2   3
ATOM      3  CG  LYS A 131      27.599  24.433  16.717  1.00 22.96     0.005 C 
BRANCH   3   4
ATOM      4  CD  LYS A 131      27.000  23.816  17.951  1.00 24.33     0.041 C 
BRANCH   4   5
ATOM      5  CE  LYS A 131      25.488  24.015  17.937  1.00 26.91     0.338 C 
ATOM      6  NZ  LYS A 131      24.812  22.820  17.378  1.00 27.40     0.618 N 
ENDBRANCH   4   5
ENDBRANCH   3   4
ENDBRANCH   2   3
ENDBRANCH   1   2
END_RES LYS A 131
BEGIN_RES LYS A 135
REMARK  4 active torsions:
REMARK  status: ('A' for Active; 'I' for Inactive)
REMARK    5  A    between atoms: CA   and  CB  
REMARK    6  A    between atoms: CB   and  CG  
REMARK    7  A    between atoms: CG   and  CD  
REMARK    8  A    between atoms: CD   and  CE  
ROOT
ATOM      7  CA  LYS A 135      33.193  34.663   9.290  1.00 25.02     0.186 C 
ENDROOT
BRANCH   7   8
ATOM      8  CB  LYS A 135      32.060  35.360  10.034  1.00 26.63     0.034 C 
BRANCH   8   9
ATOM      9  CG  LYS A 135      30.706  34.751   9.776  1.00 29.45     0.005 C 
BRANCH   9  10
ATOM     10  CD  LYS A 135      30.469  34.580   8.284  1.00 32.00     0.041 C 
BRANCH  10  11
ATOM     11  CE  LYS A 135      29.015  34.839   7.942  1.00 34.25     0.338 C 
ATOM     12  NZ  LYS A 135      28.889  35.570   6.650  1.00 35.99     0.618 N 
ENDBRANCH  10  11
ENDBRANCH   9  10
ENDBRANCH   8   9
ENDBRANCH   7   8
END_RES LYS A 135
