REMARK VINA RESULT:    -4.785      1.863      5.184
REMARK INTER + INTRA:         -14.280
REMARK INTER:                  -7.262
REMARK INTRA:                  -7.018
REMARK UNBOUND:                -5.578
REMARK SMILES CC(=O)N[C@@H]1[C@@H](O)C[C@](O)(C(=O)O)O[C@H]1C(O)[C@H](O)CNC(=O)OCc1cn(C(C)(C)C(=O)O)nn1
REMARK SMILES IDX 21 1 22 2 23 3 20 5 18 6 16 7 15 8 9 9 8 10 14 11 6 12 5 13
REMARK SMILES IDX 10 14 11 16 12 17 13 18 7 20 4 22 2 23 1 25 3 26 17 27 19 29
REMARK SMILES IDX 24 31 25 32 26 33 27 34 36 35 28 36 35 37 29 38 30 39 31 40
REMARK SMILES IDX 32 41 33 42 34 43
REMARK H PARENT 21 4 10 15 13 19 7 21 4 24 17 28 19 30 34 44
REMARK Flexibility Score: inf
ROOT
ATOM      1  N   UNL     1      26.029  32.913  16.377  1.00  0.00    -0.319 N 
ATOM      2  C   UNL     1      25.067  32.165  15.659  1.00  0.00     0.407 C 
ATOM      3  O   UNL     1      25.269  30.930  15.393  1.00  0.00    -0.225 OA
ATOM      4  H   UNL     1      25.855  33.913  16.591  1.00  0.00     0.167 HD
ENDROOT
BRANCH   1   5
ATOM      5  C   UNL     1      27.233  32.242  16.797  1.00  0.00     0.154 C 
BRANCH   5   6
ATOM      6  C   UNL     1      28.485  32.713  16.147  1.00  0.00     0.165 C 
BRANCH   6   7
ATOM      7  C   UNL     1      28.355  34.068  15.498  1.00  0.00     0.176 C 
BRANCH   7   8
ATOM      8  C   UNL     1      29.760  34.670  15.383  1.00  0.00     0.178 C 
ATOM      9  C   UNL     1      31.389  34.972  13.751  1.00  0.00     0.269 C 
ATOM     10  C   UNL     1      32.461  34.449  14.682  1.00  0.00     0.112 C 
ATOM     11  O   UNL     1      30.129  34.515  14.052  1.00  0.00    -0.332 OA
ATOM     12  C   UNL     1      31.893  33.381  15.571  1.00  0.00     0.145 C 
ATOM     13  C   UNL     1      30.701  33.943  16.319  1.00  0.00     0.142 C 
BRANCH   9  14
ATOM     14  O   UNL     1      31.700  34.465  12.479  1.00  0.00    -0.357 OA
ATOM     15  H   UNL     1      30.882  34.213  12.012  1.00  0.00     0.214 HD
ENDBRANCH   9  14
BRANCH   9  16
ATOM     16  C   UNL     1      31.439  36.448  13.675  1.00  0.00     0.364 C 
ATOM     17  O   UNL     1      32.144  37.091  14.478  1.00  0.00    -0.246 OA
BRANCH  16  18
ATOM     18  O   UNL     1      30.718  37.161  12.729  1.00  0.00    -0.477 OA
ATOM     19  H   UNL     1      30.321  36.724  11.910  1.00  0.00     0.296 HD
ENDBRANCH  16  18
ENDBRANCH   9  16
BRANCH  12  20
ATOM     20  O   UNL     1      31.595  32.218  14.903  1.00  0.00    -0.391 OA
ATOM     21  H   UNL     1      32.318  31.871  14.336  1.00  0.00     0.211 HD
ENDBRANCH  12  20
BRANCH  13  22
ATOM     22  N   UNL     1      31.236  34.853  17.330  1.00  0.00    -0.348 N 
ATOM     23  C   UNL     1      30.908  34.705  18.706  1.00  0.00     0.217 C 
ATOM     24  H   UNL     1      31.871  35.629  17.050  1.00  0.00     0.163 HD
ATOM     25  C   UNL     1      31.446  35.626  19.751  1.00  0.00     0.114 C 
ATOM     26  O   UNL     1      30.130  33.742  18.996  1.00  0.00    -0.275 OA
ENDBRANCH  13  22
ENDBRANCH   7   8
BRANCH   7  27
ATOM     27  O   UNL     1      27.706  34.078  14.295  1.00  0.00    -0.388 OA
ATOM     28  H   UNL     1      27.898  33.268  13.786  1.00  0.00     0.211 HD
ENDBRANCH   7  27
ENDBRANCH   6   7
BRANCH   6  29
ATOM     29  O   UNL     1      28.785  31.757  15.142  1.00  0.00    -0.388 OA
ATOM     30  H   UNL     1      29.636  31.295  15.395  1.00  0.00     0.211 HD
ENDBRANCH   6  29
ENDBRANCH   5   6
ENDBRANCH   1   5
BRANCH   2  31
ATOM     31  O   UNL     1      23.875  32.686  15.200  1.00  0.00    -0.443 OA
BRANCH  31  32
ATOM     32  C   UNL     1      23.635  32.886  13.796  1.00  0.00     0.294 C 
BRANCH  32  33
ATOM     33  C   UNL     1      24.467  34.038  13.359  1.00  0.00     0.120 A 
ATOM     34  C   UNL     1      24.973  34.226  12.083  1.00  0.00     0.139 A 
ATOM     35  N   UNL     1      24.899  35.103  14.060  1.00  0.00    -0.132 NA
ATOM     36  N   UNL     1      25.683  35.377  12.044  1.00  0.00    -0.235 N 
ATOM     37  N   UNL     1      25.616  35.881  13.262  1.00  0.00    -0.066 NA
BRANCH  36  38
ATOM     38  C   UNL     1      26.363  35.913  10.883  1.00  0.00     0.155 C 
ATOM     39  C   UNL     1      26.314  34.919   9.742  1.00  0.00     0.049 C 
ATOM     40  C   UNL     1      25.696  37.207  10.464  1.00  0.00     0.049 C 
BRANCH  38  41
ATOM     41  C   UNL     1      27.805  36.164  11.178  1.00  0.00     0.331 C 
ATOM     42  O   UNL     1      28.279  37.277  10.835  1.00  0.00    -0.250 OA
BRANCH  41  43
ATOM     43  O   UNL     1      28.605  35.228  11.802  1.00  0.00    -0.479 OA
ATOM     44  H   UNL     1      28.339  34.252  11.710  1.00  0.00     0.296 HD
ENDBRANCH  41  43
ENDBRANCH  38  41
ENDBRANCH  36  38
ENDBRANCH  32  33
ENDBRANCH  31  32
ENDBRANCH   2  31
TORSDOF 17
BEGIN_RES LYS A 131
REMARK  4 active torsions:
REMARK  status: ('A' for Active; 'I' for Inactive)
REMARK    1  A    between atoms: CA   and  CB  
REMARK    2  A    between atoms: CB   and  CG  
REMARK    3  A    between atoms: CG   and  CD  
REMARK    4  A    between atoms: CD   and  CE  
ROOT
ATOM      1  CA  LYS A 131      29.867  25.555  16.977  1.00 20.52     0.186 C 
ENDROOT
BRANCH   1   2
ATOM      2  CB  LYS A 131      28.345  25.722  17.026  1.00 20.94     0.034 C 
BRANCH   2   3
ATOM      3  CG  LYS A 131      27.601  24.406  16.862  1.00 22.96     0.005 C 
BRANCH   3   4
ATOM      4  CD  LYS A 131      26.167  24.507  17.305  1.00 24.33     0.041 C 
BRANCH   4   5
ATOM      5  CE  LYS A 131      26.106  25.135  18.693  1.00 26.91     0.338 C 
ATOM      6  NZ  LYS A 131      25.387  24.244  19.634  1.00 27.40     0.618 N 
ENDBRANCH   4   5
ENDBRANCH   3   4
ENDBRANCH   2   3
ENDBRANCH   1   2
END_RES LYS A 131
BEGIN_RES LYS A 135
REMARK  4 active torsions:
REMARK  status: ('A' for Active; 'I' for Inactive)
REMARK    5  A    between atoms: CA   and  CB  
REMARK    6  A    between atoms: CB   and  CG  
REMARK    7  A    between atoms: CG   and  CD  
REMARK    8  A    between atoms: CD   and  CE  
ROOT
ATOM      7  CA  LYS A 135      33.193  34.663   9.290  1.00 25.02     0.186 C 
ENDROOT
BRANCH   7   8
ATOM      8  CB  LYS A 135      32.060  35.360  10.034  1.00 26.63     0.034 C 
BRANCH   8   9
ATOM      9  CG  LYS A 135      30.901  35.739   9.148  1.00 29.45     0.005 C 
BRANCH   9  10
ATOM     10  CD  LYS A 135      30.182  34.497   8.644  1.00 32.00     0.041 C 
BRANCH  10  11
ATOM     11  CE  LYS A 135      29.162  34.866   7.584  1.00 34.25     0.338 C 
ATOM     12  NZ  LYS A 135      28.909  36.333   7.571  1.00 35.99     0.618 N 
ENDBRANCH  10  11
ENDBRANCH   9  10
ENDBRANCH   8   9
ENDBRANCH   7   8
END_RES LYS A 135
