REMARK VINA RESULT:    -5.750      0.000      0.000
REMARK INTER + INTRA:         -18.510
REMARK INTER:                 -10.002
REMARK INTRA:                  -8.509
REMARK UNBOUND:                -7.717
REMARK SMILES CC(=O)N[C@@H]1[C@@H](O)C[C@](O)(C(=O)O)O[C@H]1C(O)[C@H](O)CNC(=O)OCc1cn(-c2ccc(-c3c4ccc(=O)cc-4oc4cc(O)ccc34)c(C(=O)[O-])c2)nn1
REMARK SMILES IDX 21 1 22 2 23 3 20 5 18 6 16 7 15 8 9 9 8 10 14 11 6 12 5 13
REMARK SMILES IDX 10 14 11 16 12 17 13 18 7 20 4 22 2 23 1 25 3 26 17 27 19 29
REMARK SMILES IDX 24 31 25 32 26 33 27 34 55 35 28 36 54 37 29 38 53 39 30 40
REMARK SMILES IDX 49 41 31 42 32 43 50 44 51 45 52 46 33 47 48 48 34 49 47 50
REMARK SMILES IDX 42 51 40 52 35 53 46 54 43 55 41 56 39 57 36 58 44 59 37 60
REMARK SMILES IDX 38 61 45 62
REMARK H PARENT 21 4 10 15 13 19 7 21 4 24 17 28 19 30 45 63
REMARK Flexibility Score: inf
ROOT
ATOM      1  N   UNL     1      30.664  36.906  16.897  1.00  0.00    -0.319 N 
ATOM      2  C   UNL     1      31.589  37.860  16.350  1.00  0.00     0.407 C 
ATOM      3  O   UNL     1      32.239  38.558  17.176  1.00  0.00    -0.225 OA
ATOM      4  H   UNL     1      30.103  36.306  16.264  1.00  0.00     0.167 HD
ENDROOT
BRANCH   1   5
ATOM      5  C   UNL     1      30.495  36.762  18.322  1.00  0.00     0.154 C 
BRANCH   5   6
ATOM      6  C   UNL     1      31.279  35.582  18.794  1.00  0.00     0.165 C 
BRANCH   6   7
ATOM      7  C   UNL     1      30.449  34.299  18.773  1.00  0.00     0.176 C 
BRANCH   7   8
ATOM      8  C   UNL     1      31.096  33.265  17.865  1.00  0.00     0.178 C 
ATOM      9  C   UNL     1      31.508  33.835  15.645  1.00  0.00     0.269 C 
ATOM     10  C   UNL     1      31.504  32.386  15.209  1.00  0.00     0.112 C 
ATOM     11  O   UNL     1      31.877  33.929  16.963  1.00  0.00    -0.332 OA
ATOM     12  C   UNL     1      30.622  31.571  16.083  1.00  0.00     0.145 C 
ATOM     13  C   UNL     1      30.105  32.315  17.289  1.00  0.00     0.142 C 
BRANCH   9  14
ATOM     14  O   UNL     1      30.274  34.362  15.358  1.00  0.00    -0.357 OA
ATOM     15  H   UNL     1      29.823  34.778  16.114  1.00  0.00     0.214 HD
ENDBRANCH   9  14
BRANCH   9  16
ATOM     16  C   UNL     1      32.542  34.524  14.835  1.00  0.00     0.364 C 
ATOM     17  O   UNL     1      33.492  35.117  15.404  1.00  0.00    -0.246 OA
BRANCH  16  18
ATOM     18  O   UNL     1      32.521  34.552  13.450  1.00  0.00    -0.477 OA
ATOM     19  H   UNL     1      32.948  33.799  12.889  1.00  0.00     0.296 HD
ENDBRANCH  16  18
ENDBRANCH   9  16
BRANCH  12  20
ATOM     20  O   UNL     1      29.525  31.063  15.391  1.00  0.00    -0.391 OA
ATOM     21  H   UNL     1      28.849  31.741  15.171  1.00  0.00     0.211 HD
ENDBRANCH  12  20
BRANCH  13  22
ATOM     22  N   UNL     1      29.759  31.283  18.278  1.00  0.00    -0.348 N 
ATOM     23  C   UNL     1      28.447  30.830  18.502  1.00  0.00     0.217 C 
ATOM     24  H   UNL     1      30.549  30.878  18.831  1.00  0.00     0.163 HD
ATOM     25  C   UNL     1      28.180  29.786  19.517  1.00  0.00     0.114 C 
ATOM     26  O   UNL     1      27.529  31.360  17.795  1.00  0.00    -0.275 OA
ENDBRANCH  13  22
ENDBRANCH   7   8
BRANCH   7  27
ATOM     27  O   UNL     1      29.188  34.669  18.292  1.00  0.00    -0.388 OA
ATOM     28  H   UNL     1      29.062  35.624  18.541  1.00  0.00     0.211 HD
ENDBRANCH   7  27
ENDBRANCH   6   7
BRANCH   6  29
ATOM     29  O   UNL     1      31.831  35.794  20.055  1.00  0.00    -0.388 OA
ATOM     30  H   UNL     1      31.144  35.918  20.752  1.00  0.00     0.211 HD
ENDBRANCH   6  29
ENDBRANCH   5   6
ENDBRANCH   1   5
BRANCH   2  31
ATOM     31  O   UNL     1      31.784  38.031  15.012  1.00  0.00    -0.443 OA
BRANCH  31  32
ATOM     32  C   UNL     1      30.765  38.518  14.172  1.00  0.00     0.294 C 
BRANCH  32  33
ATOM     33  C   UNL     1      30.028  37.373  13.602  1.00  0.00     0.121 A 
ATOM     34  C   UNL     1      28.677  37.067  13.782  1.00  0.00     0.144 A 
ATOM     35  N   UNL     1      30.506  36.402  12.811  1.00  0.00    -0.131 NA
ATOM     36  N   UNL     1      28.394  35.941  13.103  1.00  0.00    -0.220 N 
ATOM     37  N   UNL     1      29.517  35.564  12.529  1.00  0.00    -0.062 NA
BRANCH  36  38
ATOM     38  C   UNL     1      27.108  35.342  13.073  1.00  0.00     0.067 A 
ATOM     39  C   UNL     1      26.253  35.272  14.132  1.00  0.00     0.039 A 
ATOM     40  C   UNL     1      26.683  34.776  11.868  1.00  0.00     0.029 A 
ATOM     41  C   UNL     1      25.001  34.671  14.056  1.00  0.00     0.007 A 
ATOM     42  C   UNL     1      25.455  34.181  11.768  1.00  0.00     0.012 A 
ATOM     43  C   UNL     1      24.606  34.128  12.873  1.00  0.00    -0.008 A 
BRANCH  41  44
ATOM     44  C   UNL     1      24.110  34.615  15.213  1.00  0.00     0.072 C 
ATOM     45  O   UNL     1      24.165  33.651  16.040  1.00  0.00    -0.545 OA
ATOM     46  O   UNL     1      23.195  35.609  15.432  1.00  0.00    -0.545 OA
ENDBRANCH  41  44
BRANCH  43  47
ATOM     47  C   UNL     1      23.324  33.473  12.665  1.00  0.00     0.004 A 
ATOM     48  C   UNL     1      22.180  34.116  12.248  1.00  0.00     0.026 A 
ATOM     49  C   UNL     1      23.238  32.110  12.898  1.00  0.00     0.026 A 
ATOM     50  C   UNL     1      22.226  35.476  12.006  1.00  0.00     0.016 A 
ATOM     51  C   UNL     1      20.984  33.433  12.065  1.00  0.00     0.139 A 
ATOM     52  C   UNL     1      21.963  31.440  12.691  1.00  0.00     0.139 A 
ATOM     53  C   UNL     1      24.322  31.373  13.317  1.00  0.00     0.016 A 
ATOM     54  C   UNL     1      21.100  36.167  11.584  1.00  0.00     0.047 A 
ATOM     55  C   UNL     1      19.850  34.091  11.647  1.00  0.00     0.093 A 
ATOM     56  O   UNL     1      20.908  32.143  12.286  1.00  0.00    -0.456 OA
ATOM     57  C   UNL     1      21.868  30.099  12.917  1.00  0.00     0.099 A 
ATOM     58  C   UNL     1      24.176  30.032  13.530  1.00  0.00     0.053 A 
ATOM     59  C   UNL     1      19.927  35.462  11.411  1.00  0.00     0.119 A 
ATOM     60  C   UNL     1      22.967  29.382  13.336  1.00  0.00     0.182 A 
ATOM     61  O   UNL     1      22.884  28.142  13.545  1.00  0.00    -0.290 OA
BRANCH  59  62
ATOM     62  O   UNL     1      18.797  36.144  10.991  1.00  0.00    -0.508 OA
ATOM     63  H   UNL     1      18.688  37.140  11.042  1.00  0.00     0.293 HD
ENDBRANCH  59  62
ENDBRANCH  43  47
ENDBRANCH  36  38
ENDBRANCH  32  33
ENDBRANCH  31  32
ENDBRANCH   2  31
TORSDOF 18
BEGIN_RES LYS A 131
REMARK  4 active torsions:
REMARK  status: ('A' for Active; 'I' for Inactive)
REMARK    1  A    between atoms: CA   and  CB  
REMARK    2  A    between atoms: CB   and  CG  
REMARK    3  A    between atoms: CG   and  CD  
REMARK    4  A    between atoms: CD   and  CE  
ROOT
ATOM      1  CA  LYS A 131      29.867  25.555  16.977  1.00 20.52     0.186 C 
ENDROOT
BRANCH   1   2
ATOM      2  CB  LYS A 131      28.345  25.722  17.026  1.00 20.94     0.034 C 
BRANCH   2   3
ATOM      3  CG  LYS A 131      27.605  24.393  17.028  1.00 22.96     0.005 C 
BRANCH   3   4
ATOM      4  CD  LYS A 131      26.121  24.572  17.194  1.00 24.33     0.041 C 
BRANCH   4   5
ATOM      5  CE  LYS A 131      25.501  23.264  17.675  1.00 26.91     0.338 C 
ATOM      6  NZ  LYS A 131      25.550  23.181  19.154  1.00 27.40     0.618 N 
ENDBRANCH   4   5
ENDBRANCH   3   4
ENDBRANCH   2   3
ENDBRANCH   1   2
END_RES LYS A 131
BEGIN_RES LYS A 135
REMARK  4 active torsions:
REMARK  status: ('A' for Active; 'I' for Inactive)
REMARK    5  A    between atoms: CA   and  CB  
REMARK    6  A    between atoms: CB   and  CG  
REMARK    7  A    between atoms: CG   and  CD  
REMARK    8  A    between atoms: CD   and  CE  
ROOT
ATOM      7  CA  LYS A 135      33.193  34.663   9.290  1.00 25.02     0.186 C 
ENDROOT
BRANCH   7   8
ATOM      8  CB  LYS A 135      32.060  35.360  10.034  1.00 26.63     0.034 C 
BRANCH   8   9
ATOM      9  CG  LYS A 135      30.842  35.607   9.182  1.00 29.45     0.005 C 
BRANCH   9  10
ATOM     10  CD  LYS A 135      30.324  34.302   8.596  1.00 32.00     0.041 C 
BRANCH  10  11
ATOM     11  CE  LYS A 135      28.905  34.036   9.062  1.00 34.25     0.338 C 
ATOM     12  NZ  LYS A 135      27.915  34.717   8.183  1.00 35.99     0.618 N 
ENDBRANCH  10  11
ENDBRANCH   9  10
ENDBRANCH   8   9
ENDBRANCH   7   8
END_RES LYS A 135
