REMARK VINA RESULT:    -5.423      7.195     12.945
REMARK INTER + INTRA:         -13.883
REMARK INTER:                  -7.637
REMARK INTRA:                  -6.246
REMARK UNBOUND:                -4.497
REMARK SMILES CC(=O)N[C@@H]1[C@@H](O)C[C@](O)(C(=O)O)O[C@H]1C(O)[C@H](O)CNC(=O)OCc1cn(-c2cccc(Cl)c2)nn1
REMARK SMILES IDX 20 1 18 2 16 3 15 4 9 5 8 6 14 7 6 8 5 9 10 10 11 12 12 13
REMARK SMILES IDX 13 14 7 16 4 18 2 19 1 21 3 22 17 23 19 25 21 27 22 28 23 30
REMARK SMILES IDX 24 31 25 32 26 33 27 34 37 35 28 36 36 37 29 38 30 39 35 40
REMARK SMILES IDX 31 41 33 42 32 43 34 44
REMARK H PARENT 10 11 13 15 7 17 4 20 17 24 19 26 21 29
REMARK Flexibility Score: inf
ROOT
ATOM      1  C   UNL     1      22.743  37.176   8.661  1.00  0.00     0.154 C 
ENDROOT
BRANCH   1   2
ATOM      2  C   UNL     1      23.742  37.570   7.612  1.00  0.00     0.165 C 
BRANCH   2   3
ATOM      3  C   UNL     1      25.111  37.832   8.169  1.00  0.00     0.176 C 
BRANCH   3   4
ATOM      4  C   UNL     1      25.839  38.898   7.347  1.00  0.00     0.178 C 
ATOM      5  C   UNL     1      28.166  38.563   7.302  1.00  0.00     0.269 C 
ATOM      6  C   UNL     1      28.358  40.039   7.619  1.00  0.00     0.112 C 
ATOM      7  O   UNL     1      26.928  38.344   6.804  1.00  0.00    -0.332 OA
ATOM      8  C   UNL     1      27.384  40.295   8.768  1.00  0.00     0.145 C 
ATOM      9  C   UNL     1      26.003  40.104   8.204  1.00  0.00     0.142 C 
BRANCH   5  10
ATOM     10  O   UNL     1      28.444  37.881   8.479  1.00  0.00    -0.357 OA
ATOM     11  H   UNL     1      28.325  38.505   9.238  1.00  0.00     0.214 HD
ENDBRANCH   5  10
BRANCH   5  12
ATOM     12  C   UNL     1      29.157  38.151   6.280  1.00  0.00     0.364 C 
ATOM     13  O   UNL     1      28.861  37.234   5.480  1.00  0.00    -0.246 OA
BRANCH  12  14
ATOM     14  O   UNL     1      30.408  38.739   6.168  1.00  0.00    -0.477 OA
ATOM     15  H   UNL     1      31.227  38.195   6.461  1.00  0.00     0.296 HD
ENDBRANCH  12  14
ENDBRANCH   5  12
BRANCH   8  16
ATOM     16  O   UNL     1      27.558  39.377   9.798  1.00  0.00    -0.391 OA
ATOM     17  H   UNL     1      27.971  39.791  10.608  1.00  0.00     0.211 HD
ENDBRANCH   8  16
BRANCH   9  18
ATOM     18  N   UNL     1      25.679  41.309   7.469  1.00  0.00    -0.348 N 
ATOM     19  C   UNL     1      24.392  41.891   7.609  1.00  0.00     0.217 C 
ATOM     20  H   UNL     1      26.384  41.769   6.824  1.00  0.00     0.163 HD
ATOM     21  C   UNL     1      24.067  43.127   6.851  1.00  0.00     0.114 C 
ATOM     22  O   UNL     1      23.543  41.359   8.368  1.00  0.00    -0.275 OA
ENDBRANCH   9  18
ENDBRANCH   3   4
BRANCH   3  23
ATOM     23  O   UNL     1      25.814  36.611   8.079  1.00  0.00    -0.388 OA
ATOM     24  H   UNL     1      25.499  35.976   8.738  1.00  0.00     0.211 HD
ENDBRANCH   3  23
ENDBRANCH   2   3
BRANCH   2  25
ATOM     25  O   UNL     1      23.286  38.735   6.970  1.00  0.00    -0.388 OA
ATOM     26  H   UNL     1      23.743  39.504   7.355  1.00  0.00     0.211 HD
ENDBRANCH   2  25
ENDBRANCH   1   2
BRANCH   1  27
ATOM     27  N   UNL     1      23.375  36.302   9.643  1.00  0.00    -0.319 N 
ATOM     28  C   UNL     1      23.515  36.711  10.993  1.00  0.00     0.407 C 
ATOM     29  H   UNL     1      23.719  35.375   9.322  1.00  0.00     0.167 HD
ATOM     30  O   UNL     1      23.085  37.841  11.337  1.00  0.00    -0.225 OA
BRANCH  28  31
ATOM     31  O   UNL     1      24.109  35.914  11.957  1.00  0.00    -0.443 OA
BRANCH  31  32
ATOM     32  C   UNL     1      25.068  34.966  11.543  1.00  0.00     0.294 C 
BRANCH  32  33
ATOM     33  C   UNL     1      26.425  35.564  11.645  1.00  0.00     0.121 A 
ATOM     34  C   UNL     1      27.440  35.170  12.498  1.00  0.00     0.144 A 
ATOM     35  N   UNL     1      26.941  36.592  10.946  1.00  0.00    -0.131 NA
ATOM     36  N   UNL     1      28.527  35.953  12.298  1.00  0.00    -0.220 N 
ATOM     37  N   UNL     1      28.185  36.806  11.347  1.00  0.00    -0.062 NA
BRANCH  36  38
ATOM     38  C   UNL     1      29.774  35.871  12.976  1.00  0.00     0.068 A 
ATOM     39  C   UNL     1      30.649  36.934  12.905  1.00  0.00     0.028 A 
ATOM     40  C   UNL     1      30.165  34.772  13.712  1.00  0.00     0.049 A 
ATOM     41  C   UNL     1      31.875  36.901  13.547  1.00  0.00     0.004 A 
ATOM     42  C   UNL     1      31.378  34.705  14.364  1.00  0.00     0.043 A 
ATOM     43  C   UNL     1      32.231  35.786  14.273  1.00  0.00     0.020 A 
ATOM     44  Cl  UNL     1      31.841  33.274  15.298  1.00  0.00    -0.084 Cl
ENDBRANCH  36  38
ENDBRANCH  32  33
ENDBRANCH  31  32
ENDBRANCH  28  31
ENDBRANCH   1  27
TORSDOF 15
BEGIN_RES LYS A 131
REMARK  4 active torsions:
REMARK  status: ('A' for Active; 'I' for Inactive)
REMARK    1  A    between atoms: CA   and  CB  
REMARK    2  A    between atoms: CB   and  CG  
REMARK    3  A    between atoms: CG   and  CD  
REMARK    4  A    between atoms: CD   and  CE  
ROOT
ATOM      1  CA  LYS A 131      29.867  25.555  16.977  1.00 20.52     0.186 C 
ENDROOT
BRANCH   1   2
ATOM      2  CB  LYS A 131      28.345  25.722  17.026  1.00 20.94     0.034 C 
BRANCH   2   3
ATOM      3  CG  LYS A 131      27.601  24.406  16.863  1.00 22.96     0.005 C 
BRANCH   3   4
ATOM      4  CD  LYS A 131      26.275  24.413  17.572  1.00 24.33     0.041 C 
BRANCH   4   5
ATOM      5  CE  LYS A 131      26.309  25.434  18.704  1.00 26.91     0.338 C 
ATOM      6  NZ  LYS A 131      25.497  24.964  19.852  1.00 27.40     0.618 N 
ENDBRANCH   4   5
ENDBRANCH   3   4
ENDBRANCH   2   3
ENDBRANCH   1   2
END_RES LYS A 131
BEGIN_RES LYS A 135
REMARK  4 active torsions:
REMARK  status: ('A' for Active; 'I' for Inactive)
REMARK    5  A    between atoms: CA   and  CB  
REMARK    6  A    between atoms: CB   and  CG  
REMARK    7  A    between atoms: CG   and  CD  
REMARK    8  A    between atoms: CD   and  CE  
ROOT
ATOM      7  CA  LYS A 135      33.193  34.663   9.290  1.00 25.02     0.186 C 
ENDROOT
BRANCH   7   8
ATOM      8  CB  LYS A 135      32.060  35.360  10.034  1.00 26.63     0.034 C 
BRANCH   8   9
ATOM      9  CG  LYS A 135      30.716  34.710   9.831  1.00 29.45     0.005 C 
BRANCH   9  10
ATOM     10  CD  LYS A 135      30.486  34.403   8.359  1.00 32.00     0.041 C 
BRANCH  10  11
ATOM     11  CE  LYS A 135      29.052  34.709   7.969  1.00 34.25     0.338 C 
ATOM     12  NZ  LYS A 135      28.091  34.030   8.882  1.00 35.99     0.618 N 
ENDBRANCH  10  11
ENDBRANCH   9  10
ENDBRANCH   8   9
ENDBRANCH   7   8
END_RES LYS A 135
