REMARK VINA RESULT:    -4.800      6.239     10.623
REMARK INTER + INTRA:         -17.023
REMARK INTER:                  -9.087
REMARK INTRA:                  -7.936
REMARK UNBOUND:                -7.171
REMARK SMILES CCOCCc1c(-c2ccccc2)nc(N)nc1-n1cc(COC(=O)NC[C@@H](O)C(O)[C@@H]2O[C@@](O)(C(=O)O)C[C@H](O)[C@H]2NC(C)=O)nn1
REMARK SMILES IDX 23 1 24 2 26 3 25 5 27 6 28 7 30 8 32 9 34 10 39 11 33 12
REMARK SMILES IDX 40 13 42 14 35 15 36 17 37 18 38 19 41 21 43 23 44 24 45 26
REMARK SMILES IDX 46 27 31 28 29 30 22 32 21 33 20 34 47 35 19 36 48 37 18 38
REMARK SMILES IDX 17 39 6 40 15 41 7 42 14 43 5 44 4 45 3 46 2 47 1 48 16 49
REMARK SMILES IDX 8 52 9 53 13 54 10 55 12 56 11 57
REMARK H PARENT 26 4 35 16 38 20 41 22 43 25 31 29 29 31 16 50 16 51
REMARK Flexibility Score: inf
ROOT
ATOM      1  O   UNL     1      28.531  32.722  23.235  1.00  0.00    -0.443 OA
ENDROOT
BRANCH   1   2
ATOM      2  C   UNL     1      28.736  31.380  23.471  1.00  0.00     0.407 C 
ATOM      3  N   UNL     1      28.320  30.372  22.525  1.00  0.00    -0.319 N 
ATOM      4  H   UNL     1      27.860  30.746  21.672  1.00  0.00     0.167 HD
ATOM      5  O   UNL     1      29.300  31.047  24.543  1.00  0.00    -0.225 OA
BRANCH   3   6
ATOM      6  C   UNL     1      28.560  28.980  22.825  1.00  0.00     0.154 C 
BRANCH   6   7
ATOM      7  C   UNL     1      28.944  28.286  21.524  1.00  0.00     0.165 C 
BRANCH   7   8
ATOM      8  C   UNL     1      28.294  29.072  20.411  1.00  0.00     0.176 C 
BRANCH   8   9
ATOM      9  C   UNL     1      27.297  28.308  19.595  1.00  0.00     0.178 C 
ATOM     10  C   UNL     1      26.470  30.172  18.443  1.00  0.00     0.269 C 
ATOM     11  C   UNL     1      25.331  30.189  19.448  1.00  0.00     0.112 C 
ATOM     12  O   UNL     1      27.125  28.975  18.406  1.00  0.00    -0.332 OA
ATOM     13  C   UNL     1      24.875  28.761  19.671  1.00  0.00     0.145 C 
ATOM     14  C   UNL     1      26.030  27.936  20.273  1.00  0.00     0.142 C 
BRANCH  10  15
ATOM     15  O   UNL     1      27.302  31.242  18.795  1.00  0.00    -0.357 OA
ATOM     16  H   UNL     1      27.708  31.121  19.681  1.00  0.00     0.214 HD
ENDBRANCH  10  15
BRANCH  10  17
ATOM     17  C   UNL     1      25.962  30.443  17.082  1.00  0.00     0.364 C 
ATOM     18  O   UNL     1      25.337  31.497  16.860  1.00  0.00    -0.246 OA
BRANCH  17  19
ATOM     19  O   UNL     1      26.173  29.542  16.071  1.00  0.00    -0.477 OA
ATOM     20  H   UNL     1      25.552  29.399  15.284  1.00  0.00     0.296 HD
ENDBRANCH  17  19
ENDBRANCH  10  17
BRANCH  13  21
ATOM     21  O   UNL     1      23.757  28.715  20.470  1.00  0.00    -0.391 OA
ATOM     22  H   UNL     1      23.994  28.617  21.417  1.00  0.00     0.211 HD
ENDBRANCH  13  21
BRANCH  14  23
ATOM     23  N   UNL     1      25.647  26.540  20.024  1.00  0.00    -0.348 N 
ATOM     24  C   UNL     1      25.455  25.662  21.117  1.00  0.00     0.217 C 
ATOM     25  H   UNL     1      25.514  26.181  19.054  1.00  0.00     0.163 HD
ATOM     26  C   UNL     1      25.066  24.229  20.937  1.00  0.00     0.114 C 
ATOM     27  O   UNL     1      25.624  26.131  22.277  1.00  0.00    -0.275 OA
ENDBRANCH  14  23
ENDBRANCH   8   9
BRANCH   8  28
ATOM     28  O   UNL     1      29.385  29.303  19.509  1.00  0.00    -0.388 OA
ATOM     29  H   UNL     1      29.070  29.237  18.586  1.00  0.00     0.211 HD
ENDBRANCH   8  28
ENDBRANCH   7   8
BRANCH   7  30
ATOM     30  O   UNL     1      28.496  26.980  21.635  1.00  0.00    -0.388 OA
ATOM     31  H   UNL     1      28.992  26.369  21.050  1.00  0.00     0.211 HD
ENDBRANCH   7  30
ENDBRANCH   6   7
ENDBRANCH   3   6
ENDBRANCH   1   2
BRANCH   1  32
ATOM     32  C   UNL     1      29.524  33.650  22.858  1.00  0.00     0.294 C 
BRANCH  32  33
ATOM     33  C   UNL     1      30.217  33.170  21.620  1.00  0.00     0.121 A 
ATOM     34  C   UNL     1      29.732  33.136  20.337  1.00  0.00     0.146 A 
ATOM     35  N   UNL     1      31.470  32.670  21.542  1.00  0.00    -0.131 NA
ATOM     36  N   UNL     1      30.682  32.622  19.498  1.00  0.00    -0.202 N 
ATOM     37  N   UNL     1      31.717  32.357  20.285  1.00  0.00    -0.060 NA
BRANCH  36  38
ATOM     38  C   UNL     1      30.554  32.410  18.103  1.00  0.00     0.164 A 
ATOM     39  N   UNL     1      29.940  31.322  17.617  1.00  0.00    -0.193 NA
ATOM     40  C   UNL     1      31.094  33.324  17.189  1.00  0.00     0.026 A 
ATOM     41  C   UNL     1      29.839  31.103  16.282  1.00  0.00     0.222 A 
ATOM     42  C   UNL     1      30.996  33.103  15.845  1.00  0.00     0.081 A 
ATOM     43  N   UNL     1      30.352  31.965  15.398  1.00  0.00    -0.213 NA
BRANCH  40  44
ATOM     44  C   UNL     1      31.800  34.509  17.717  1.00  0.00     0.070 C 
BRANCH  44  45
ATOM     45  C   UNL     1      30.964  35.754  17.819  1.00  0.00     0.165 C 
BRANCH  45  46
ATOM     46  O   UNL     1      31.660  36.887  17.502  1.00  0.00    -0.381 OA
BRANCH  46  47
ATOM     47  C   UNL     1      31.387  37.388  16.251  1.00  0.00     0.156 C 
ATOM     48  C   UNL     1      29.917  37.272  15.907  1.00  0.00     0.035 C 
ENDBRANCH  46  47
ENDBRANCH  45  46
ENDBRANCH  44  45
ENDBRANCH  40  44
BRANCH  41  49
ATOM     49  N   UNL     1      29.182  29.941  15.814  1.00  0.00    -0.368 N 
ATOM     50  H   UNL     1      28.365  29.564  16.326  1.00  0.00     0.159 HD
ATOM     51  H   UNL     1      29.492  29.441  14.960  1.00  0.00     0.159 HD
ENDBRANCH  41  49
BRANCH  42  52
ATOM     52  C   UNL     1      31.632  33.950  14.855  1.00  0.00     0.001 A 
ATOM     53  C   UNL     1      32.920  34.334  14.778  1.00  0.00     0.010 A 
ATOM     54  C   UNL     1      30.780  34.409  13.825  1.00  0.00     0.010 A 
ATOM     55  C   UNL     1      33.375  35.148  13.723  1.00  0.00     0.001 A 
ATOM     56  C   UNL     1      31.209  35.200  12.796  1.00  0.00     0.001 A 
ATOM     57  C   UNL     1      32.536  35.588  12.729  1.00  0.00     0.000 A 
ENDBRANCH  42  52
ENDBRANCH  36  38
ENDBRANCH  32  33
ENDBRANCH   1  32
TORSDOF 21
BEGIN_RES LYS A 131
REMARK  4 active torsions:
REMARK  status: ('A' for Active; 'I' for Inactive)
REMARK    1  A    between atoms: CA   and  CB  
REMARK    2  A    between atoms: CB   and  CG  
REMARK    3  A    between atoms: CG   and  CD  
REMARK    4  A    between atoms: CD   and  CE  
ROOT
ATOM      1  CA  LYS A 131      29.867  25.555  16.977  1.00 20.52     0.186 C 
ENDROOT
BRANCH   1   2
ATOM      2  CB  LYS A 131      28.345  25.722  17.026  1.00 20.94     0.034 C 
BRANCH   2   3
ATOM      3  CG  LYS A 131      27.599  24.460  16.620  1.00 22.96     0.005 C 
BRANCH   3   4
ATOM      4  CD  LYS A 131      26.996  23.753  17.802  1.00 24.33     0.041 C 
BRANCH   4   5
ATOM      5  CE  LYS A 131      25.564  23.345  17.475  1.00 26.91     0.338 C 
ATOM      6  NZ  LYS A 131      24.766  24.527  17.071  1.00 27.40     0.618 N 
ENDBRANCH   4   5
ENDBRANCH   3   4
ENDBRANCH   2   3
ENDBRANCH   1   2
END_RES LYS A 131
BEGIN_RES LYS A 135
REMARK  4 active torsions:
REMARK  status: ('A' for Active; 'I' for Inactive)
REMARK    5  A    between atoms: CA   and  CB  
REMARK    6  A    between atoms: CB   and  CG  
REMARK    7  A    between atoms: CG   and  CD  
REMARK    8  A    between atoms: CD   and  CE  
ROOT
ATOM      7  CA  LYS A 135      33.193  34.663   9.290  1.00 25.02     0.186 C 
ENDROOT
BRANCH   7   8
ATOM      8  CB  LYS A 135      32.060  35.360  10.034  1.00 26.63     0.034 C 
BRANCH   8   9
ATOM      9  CG  LYS A 135      30.804  35.509   9.215  1.00 29.45     0.005 C 
BRANCH   9  10
ATOM     10  CD  LYS A 135      30.090  34.173   9.079  1.00 32.00     0.041 C 
BRANCH  10  11
ATOM     11  CE  LYS A 135      28.637  34.381   8.697  1.00 34.25     0.338 C 
ATOM     12  NZ  LYS A 135      27.728  33.667   9.635  1.00 35.99     0.618 N 
ENDBRANCH  10  11
ENDBRANCH   9  10
ENDBRANCH   8   9
ENDBRANCH   7   8
END_RES LYS A 135
