REMARK VINA RESULT:    -4.723      3.077      4.979
REMARK INTER + INTRA:         -13.447
REMARK INTER:                  -8.175
REMARK INTRA:                  -5.272
REMARK UNBOUND:                -5.272
REMARK SMILES CC(=O)N[C@@H]1[C@@H](O)C[C@](O)(C(=O)O)O[C@H]1C(O)[C@H](O)CNC(=O)OCc1cn(-c2ccncc2)nn1
REMARK SMILES IDX 20 1 18 2 16 3 15 4 9 5 8 6 14 7 6 8 5 9 10 10 11 12 12 13
REMARK SMILES IDX 13 14 7 16 4 18 2 19 1 21 3 22 17 23 19 25 21 27 22 28 23 30
REMARK SMILES IDX 24 31 25 32 26 33 27 34 36 35 28 36 35 37 29 38 30 39 34 40
REMARK SMILES IDX 31 41 33 42 32 43
REMARK H PARENT 10 11 13 15 7 17 4 20 17 24 19 26 21 29
REMARK Flexibility Score: inf
ROOT
ATOM      1  C   UNL     1      26.762  31.296  20.842  1.00  0.00     0.154 C 
ENDROOT
BRANCH   1   2
ATOM      2  C   UNL     1      27.447  30.933  22.112  1.00  0.00     0.165 C 
BRANCH   2   3
ATOM      3  C   UNL     1      27.175  29.499  22.535  1.00  0.00     0.176 C 
BRANCH   3   4
ATOM      4  C   UNL     1      28.398  28.657  22.603  1.00  0.00     0.178 C 
ATOM      5  C   UNL     1      30.020  27.585  21.361  1.00  0.00     0.269 C 
ATOM      6  C   UNL     1      30.484  27.077  22.703  1.00  0.00     0.112 C 
ATOM      7  O   UNL     1      29.119  28.611  21.443  1.00  0.00    -0.332 OA
ATOM      8  C   UNL     1      29.346  26.647  23.587  1.00  0.00     0.145 C 
ATOM      9  C   UNL     1      28.072  27.227  23.005  1.00  0.00     0.142 C 
BRANCH   5  10
ATOM     10  O   UNL     1      29.550  26.553  20.549  1.00  0.00    -0.357 OA
ATOM     11  H   UNL     1      29.371  25.725  21.070  1.00  0.00     0.214 HD
ENDBRANCH   5  10
BRANCH   5  12
ATOM     12  C   UNL     1      31.243  28.129  20.672  1.00  0.00     0.364 C 
ATOM     13  O   UNL     1      31.604  29.313  20.758  1.00  0.00    -0.246 OA
BRANCH  12  14
ATOM     14  O   UNL     1      31.967  27.213  19.914  1.00  0.00    -0.477 OA
ATOM     15  H   UNL     1      31.610  26.272  19.769  1.00  0.00     0.296 HD
ENDBRANCH  12  14
ENDBRANCH   5  12
BRANCH   8  16
ATOM     16  O   UNL     1      29.249  25.259  23.677  1.00  0.00    -0.391 OA
ATOM     17  H   UNL     1      30.047  24.902  24.137  1.00  0.00     0.211 HD
ENDBRANCH   8  16
BRANCH   9  18
ATOM     18  N   UNL     1      26.976  27.162  23.942  1.00  0.00    -0.348 N 
ATOM     19  C   UNL     1      26.044  26.089  23.900  1.00  0.00     0.217 C 
ATOM     20  H   UNL     1      26.836  27.889  24.667  1.00  0.00     0.163 HD
ATOM     21  C   UNL     1      24.897  25.990  24.857  1.00  0.00     0.114 C 
ATOM     22  O   UNL     1      26.191  25.193  23.031  1.00  0.00    -0.275 OA
ENDBRANCH   9  18
ENDBRANCH   3   4
BRANCH   3  23
ATOM     23  O   UNL     1      26.112  28.972  21.848  1.00  0.00    -0.388 OA
ATOM     24  H   UNL     1      25.483  29.705  21.608  1.00  0.00     0.211 HD
ENDBRANCH   3  23
ENDBRANCH   2   3
BRANCH   2  25
ATOM     25  O   UNL     1      27.060  31.720  23.182  1.00  0.00    -0.388 OA
ATOM     26  H   UNL     1      27.092  31.257  24.049  1.00  0.00     0.211 HD
ENDBRANCH   2  25
ENDBRANCH   1   2
BRANCH   1  27
ATOM     27  N   UNL     1      27.584  31.002  19.703  1.00  0.00    -0.319 N 
ATOM     28  C   UNL     1      27.453  29.947  18.792  1.00  0.00     0.407 C 
ATOM     29  H   UNL     1      28.412  31.665  19.508  1.00  0.00     0.167 HD
ATOM     30  O   UNL     1      26.553  29.115  18.911  1.00  0.00    -0.225 OA
BRANCH  28  31
ATOM     31  O   UNL     1      28.327  29.775  17.701  1.00  0.00    -0.443 OA
BRANCH  31  32
ATOM     32  C   UNL     1      27.843  30.013  16.375  1.00  0.00     0.294 C 
BRANCH  32  33
ATOM     33  C   UNL     1      28.333  31.294  15.856  1.00  0.00     0.121 A 
ATOM     34  C   UNL     1      29.598  31.647  15.445  1.00  0.00     0.144 A 
ATOM     35  N   UNL     1      27.572  32.396  15.688  1.00  0.00    -0.131 NA
ATOM     36  N   UNL     1      29.542  32.939  15.051  1.00  0.00    -0.220 N 
ATOM     37  N   UNL     1      28.319  33.381  15.202  1.00  0.00    -0.062 NA
BRANCH  36  38
ATOM     38  C   UNL     1      30.624  33.725  14.547  1.00  0.00     0.069 A 
ATOM     39  C   UNL     1      31.804  33.752  15.251  1.00  0.00     0.048 A 
ATOM     40  C   UNL     1      30.480  34.446  13.368  1.00  0.00     0.048 A 
ATOM     41  C   UNL     1      32.837  34.515  14.751  1.00  0.00     0.113 A 
ATOM     42  C   UNL     1      31.533  35.186  12.914  1.00  0.00     0.113 A 
ATOM     43  N   UNL     1      32.686  35.205  13.613  1.00  0.00    -0.265 NA
ENDBRANCH  36  38
ENDBRANCH  32  33
ENDBRANCH  31  32
ENDBRANCH  28  31
ENDBRANCH   1  27
TORSDOF 15
BEGIN_RES LYS A 131
REMARK  4 active torsions:
REMARK  status: ('A' for Active; 'I' for Inactive)
REMARK    1  A    between atoms: CA   and  CB  
REMARK    2  A    between atoms: CB   and  CG  
REMARK    3  A    between atoms: CG   and  CD  
REMARK    4  A    between atoms: CD   and  CE  
ROOT
ATOM      1  CA  LYS A 131      29.867  25.555  16.977  1.00 20.52     0.186 C 
ENDROOT
BRANCH   1   2
ATOM      2  CB  LYS A 131      28.345  25.722  17.026  1.00 20.94     0.034 C 
BRANCH   2   3
ATOM      3  CG  LYS A 131      27.601  24.406  16.859  1.00 22.96     0.005 C 
BRANCH   3   4
ATOM      4  CD  LYS A 131      26.158  24.516  17.267  1.00 24.33     0.041 C 
BRANCH   4   5
ATOM      5  CE  LYS A 131      26.055  25.304  18.569  1.00 26.91     0.338 C 
ATOM      6  NZ  LYS A 131      25.527  24.446  19.655  1.00 27.40     0.618 N 
ENDBRANCH   4   5
ENDBRANCH   3   4
ENDBRANCH   2   3
ENDBRANCH   1   2
END_RES LYS A 131
BEGIN_RES LYS A 135
REMARK  4 active torsions:
REMARK  status: ('A' for Active; 'I' for Inactive)
REMARK    5  A    between atoms: CA   and  CB  
REMARK    6  A    between atoms: CB   and  CG  
REMARK    7  A    between atoms: CG   and  CD  
REMARK    8  A    between atoms: CD   and  CE  
ROOT
ATOM      7  CA  LYS A 135      33.193  34.663   9.290  1.00 25.02     0.186 C 
ENDROOT
BRANCH   7   8
ATOM      8  CB  LYS A 135      32.060  35.360  10.034  1.00 26.63     0.034 C 
BRANCH   8   9
ATOM      9  CG  LYS A 135      30.797  35.491   9.222  1.00 29.45     0.005 C 
BRANCH   9  10
ATOM     10  CD  LYS A 135      30.009  34.190   9.243  1.00 32.00     0.041 C 
BRANCH  10  11
ATOM     11  CE  LYS A 135      28.670  34.368   8.553  1.00 34.25     0.338 C 
ATOM     12  NZ  LYS A 135      28.772  35.335   7.425  1.00 35.99     0.618 N 
ENDBRANCH  10  11
ENDBRANCH   9  10
ENDBRANCH   8   9
ENDBRANCH   7   8
END_RES LYS A 135
