REMARK VINA RESULT:    -4.810      3.300      6.366
REMARK INTER + INTRA:         -14.840
REMARK INTER:                 -11.137
REMARK INTRA:                  -3.703
REMARK UNBOUND:                -5.671
REMARK SMILES CCOC(=O)c1cccc(-n2cc(COC(=O)NC[C@@H](O)C(O)[C@@H]3O[C@@](O)(C(=O)O)C[C@H](O)[C@H]3NC(C)=O)nn2)c1
REMARK SMILES IDX 18 1 16 2 17 3 19 5 20 6 22 7 24 8 26 9 31 10 25 11 32 12
REMARK SMILES IDX 34 13 27 14 28 16 29 17 30 18 33 20 35 22 36 23 37 25 38 26
REMARK SMILES IDX 23 27 21 29 15 31 14 32 13 33 12 34 39 35 11 36 40 37 10 38
REMARK SMILES IDX 41 39 9 40 6 41 8 42 7 43 4 44 5 45 3 46 2 47 1 48
REMARK H PARENT 18 4 27 15 30 19 33 21 35 24 23 28 21 30
REMARK Flexibility Score: inf
ROOT
ATOM      1  N   UNL     1      27.513  32.479  16.346  1.00  0.00    -0.319 N 
ATOM      2  C   UNL     1      26.399  32.476  15.464  1.00  0.00     0.407 C 
ATOM      3  O   UNL     1      25.924  31.370  15.104  1.00  0.00    -0.225 OA
ATOM      4  H   UNL     1      27.890  33.405  16.631  1.00  0.00     0.167 HD
ENDROOT
BRANCH   1   5
ATOM      5  C   UNL     1      28.101  31.245  16.827  1.00  0.00     0.154 C 
BRANCH   5   6
ATOM      6  C   UNL     1      29.514  31.062  16.381  1.00  0.00     0.165 C 
BRANCH   6   7
ATOM      7  C   UNL     1      30.505  31.835  17.190  1.00  0.00     0.176 C 
BRANCH   7   8
ATOM      8  C   UNL     1      30.834  33.183  16.498  1.00  0.00     0.178 C 
ATOM      9  C   UNL     1      32.303  34.150  15.074  1.00  0.00     0.269 C 
ATOM     10  C   UNL     1      32.828  35.119  16.108  1.00  0.00     0.112 C 
ATOM     11  O   UNL     1      31.925  32.998  15.691  1.00  0.00    -0.332 OA
ATOM     12  C   UNL     1      31.827  35.414  17.184  1.00  0.00     0.145 C 
ATOM     13  C   UNL     1      30.944  34.249  17.525  1.00  0.00     0.142 C 
BRANCH   9  14
ATOM     14  O   UNL     1      33.434  33.826  14.272  1.00  0.00    -0.357 OA
ATOM     15  H   UNL     1      33.271  33.990  13.326  1.00  0.00     0.214 HD
ENDBRANCH   9  14
BRANCH   9  16
ATOM     16  C   UNL     1      31.309  34.793  14.204  1.00  0.00     0.364 C 
ATOM     17  O   UNL     1      30.868  35.975  14.401  1.00  0.00    -0.246 OA
BRANCH  16  18
ATOM     18  O   UNL     1      30.823  34.067  13.100  1.00  0.00    -0.477 OA
ATOM     19  H   UNL     1      30.893  34.515  12.177  1.00  0.00     0.296 HD
ENDBRANCH  16  18
ENDBRANCH   9  16
BRANCH  12  20
ATOM     20  O   UNL     1      32.505  35.890  18.305  1.00  0.00    -0.391 OA
ATOM     21  H   UNL     1      32.441  36.874  18.400  1.00  0.00     0.211 HD
ENDBRANCH  12  20
BRANCH  13  22
ATOM     22  N   UNL     1      29.616  34.683  17.918  1.00  0.00    -0.348 N 
ATOM     23  C   UNL     1      29.288  34.969  19.270  1.00  0.00     0.217 C 
ATOM     24  H   UNL     1      28.880  34.784  17.157  1.00  0.00     0.163 HD
ATOM     25  C   UNL     1      27.906  35.407  19.596  1.00  0.00     0.114 C 
ATOM     26  O   UNL     1      30.159  34.856  20.199  1.00  0.00    -0.275 OA
ENDBRANCH  13  22
ENDBRANCH   7   8
BRANCH   7  27
ATOM     27  O   UNL     1      30.121  32.111  18.478  1.00  0.00    -0.388 OA
ATOM     28  H   UNL     1      30.836  32.113  19.140  1.00  0.00     0.211 HD
ENDBRANCH   7  27
ENDBRANCH   6   7
BRANCH   6  29
ATOM     29  O   UNL     1      29.636  31.273  15.011  1.00  0.00    -0.388 OA
ATOM     30  H   UNL     1      29.271  32.179  14.819  1.00  0.00     0.211 HD
ENDBRANCH   6  29
ENDBRANCH   5   6
ENDBRANCH   1   5
BRANCH   2  31
ATOM     31  O   UNL     1      25.802  33.625  14.976  1.00  0.00    -0.443 OA
BRANCH  31  32
ATOM     32  C   UNL     1      26.560  34.724  14.509  1.00  0.00     0.294 C 
BRANCH  32  33
ATOM     33  C   UNL     1      26.706  34.668  13.042  1.00  0.00     0.121 A 
ATOM     34  C   UNL     1      27.849  34.833  12.278  1.00  0.00     0.144 A 
ATOM     35  N   UNL     1      25.726  34.440  12.140  1.00  0.00    -0.131 NA
ATOM     36  N   UNL     1      27.534  34.703  10.972  1.00  0.00    -0.220 N 
ATOM     37  N   UNL     1      26.220  34.463  10.932  1.00  0.00    -0.062 NA
BRANCH  36  38
ATOM     38  C   UNL     1      28.374  34.794   9.841  1.00  0.00     0.067 A 
ATOM     39  C   UNL     1      28.005  35.519   8.723  1.00  0.00     0.044 A 
ATOM     40  C   UNL     1      29.597  34.162   9.808  1.00  0.00     0.028 A 
ATOM     41  C   UNL     1      28.796  35.633   7.597  1.00  0.00     0.062 A 
ATOM     42  C   UNL     1      30.418  34.259   8.688  1.00  0.00     0.003 A 
ATOM     43  C   UNL     1      30.012  34.989   7.599  1.00  0.00     0.016 A 
BRANCH  41  44
ATOM     44  C   UNL     1      28.382  36.406   6.432  1.00  0.00     0.338 C 
ATOM     45  O   UNL     1      27.441  35.984   5.717  1.00  0.00    -0.246 OA
BRANCH  44  46
ATOM     46  O   UNL     1      28.986  37.601   6.076  1.00  0.00    -0.462 OA
BRANCH  46  47
ATOM     47  C   UNL     1      28.944  38.752   6.896  1.00  0.00     0.230 C 
ATOM     48  C   UNL     1      30.348  39.232   7.122  1.00  0.00     0.049 C 
ENDBRANCH  46  47
ENDBRANCH  44  46
ENDBRANCH  41  44
ENDBRANCH  36  38
ENDBRANCH  32  33
ENDBRANCH  31  32
ENDBRANCH   2  31
TORSDOF 18
BEGIN_RES LYS A 131
REMARK  4 active torsions:
REMARK  status: ('A' for Active; 'I' for Inactive)
REMARK    1  A    between atoms: CA   and  CB  
REMARK    2  A    between atoms: CB   and  CG  
REMARK    3  A    between atoms: CG   and  CD  
REMARK    4  A    between atoms: CD   and  CE  
ROOT
ATOM      1  CA  LYS A 131      29.867  25.555  16.977  1.00 20.52     0.186 C 
ENDROOT
BRANCH   1   2
ATOM      2  CB  LYS A 131      28.345  25.722  17.026  1.00 20.94     0.034 C 
BRANCH   2   3
ATOM      3  CG  LYS A 131      27.601  24.402  16.890  1.00 22.96     0.005 C 
BRANCH   3   4
ATOM      4  CD  LYS A 131      26.687  24.145  18.056  1.00 24.33     0.041 C 
BRANCH   4   5
ATOM      5  CE  LYS A 131      25.835  25.383  18.318  1.00 26.91     0.338 C 
ATOM      6  NZ  LYS A 131      25.925  25.784  19.742  1.00 27.40     0.618 N 
ENDBRANCH   4   5
ENDBRANCH   3   4
ENDBRANCH   2   3
ENDBRANCH   1   2
END_RES LYS A 131
BEGIN_RES LYS A 135
REMARK  4 active torsions:
REMARK  status: ('A' for Active; 'I' for Inactive)
REMARK    5  A    between atoms: CA   and  CB  
REMARK    6  A    between atoms: CB   and  CG  
REMARK    7  A    between atoms: CG   and  CD  
REMARK    8  A    between atoms: CD   and  CE  
ROOT
ATOM      7  CA  LYS A 135      33.193  34.663   9.290  1.00 25.02     0.186 C 
ENDROOT
BRANCH   7   8
ATOM      8  CB  LYS A 135      32.060  35.360  10.034  1.00 26.63     0.034 C 
BRANCH   8   9
ATOM      9  CG  LYS A 135      32.535  36.298  11.114  1.00 29.45     0.005 C 
BRANCH   9  10
ATOM     10  CD  LYS A 135      31.817  37.635  11.018  1.00 32.00     0.041 C 
BRANCH  10  11
ATOM     11  CE  LYS A 135      30.357  37.484  11.401  1.00 34.25     0.338 C 
ATOM     12  NZ  LYS A 135      29.484  38.310  10.522  1.00 35.99     0.618 N 
ENDBRANCH  10  11
ENDBRANCH   9  10
ENDBRANCH   8   9
ENDBRANCH   7   8
END_RES LYS A 135
