REMARK VINA RESULT:    -4.312      2.516      4.801
REMARK INTER + INTRA:         -13.249
REMARK INTER:                  -7.205
REMARK INTRA:                  -6.044
REMARK UNBOUND:                -5.786
REMARK SMILES CC(=O)N[C@@H]1[C@@H](O)C[C@](O)(C(=O)O)O[C@H]1C(O)[C@H](O)CNC(=O)OCc1cn(C2CCN(C)CC2)nn1
REMARK SMILES IDX 20 1 18 2 16 3 15 4 9 5 8 6 14 7 6 8 5 9 10 10 11 12 12 13
REMARK SMILES IDX 13 14 7 16 4 18 2 19 1 21 3 22 17 23 19 25 21 27 22 28 23 30
REMARK SMILES IDX 24 31 25 32 26 33 27 34 37 35 28 36 36 37 29 38 30 39 35 40
REMARK SMILES IDX 31 41 34 42 32 43 33 44
REMARK H PARENT 10 11 13 15 7 17 4 20 17 24 19 26 21 29
REMARK Flexibility Score: inf
ROOT
ATOM      1  C   UNL     1      30.540  33.289  19.605  1.00  0.00     0.154 C 
ENDROOT
BRANCH   1   2
ATOM      2  C   UNL     1      30.862  31.852  19.845  1.00  0.00     0.165 C 
BRANCH   2   3
ATOM      3  C   UNL     1      29.630  31.019  20.131  1.00  0.00     0.176 C 
BRANCH   3   4
ATOM      4  C   UNL     1      30.031  29.748  20.849  1.00  0.00     0.178 C 
ATOM      5  C   UNL     1      31.467  27.908  20.769  1.00  0.00     0.269 C 
ATOM      6  C   UNL     1      30.340  26.983  21.117  1.00  0.00     0.112 C 
ATOM      7  O   UNL     1      31.109  29.134  20.293  1.00  0.00    -0.332 OA
ATOM      8  C   UNL     1      29.250  27.699  21.868  1.00  0.00     0.145 C 
ATOM      9  C   UNL     1      28.822  28.881  21.001  1.00  0.00     0.142 C 
BRANCH   5  10
ATOM     10  O   UNL     1      32.304  27.227  19.840  1.00  0.00    -0.357 OA
ATOM     11  H   UNL     1      33.195  27.652  19.788  1.00  0.00     0.214 HD
ENDBRANCH   5  10
BRANCH   5  12
ATOM     12  C   UNL     1      32.280  28.128  21.992  1.00  0.00     0.364 C 
ATOM     13  O   UNL     1      32.357  27.226  22.864  1.00  0.00    -0.246 OA
BRANCH  12  14
ATOM     14  O   UNL     1      32.987  29.290  22.262  1.00  0.00    -0.477 OA
ATOM     15  H   UNL     1      32.558  30.106  22.700  1.00  0.00     0.296 HD
ENDBRANCH  12  14
ENDBRANCH   5  12
BRANCH   8  16
ATOM     16  O   UNL     1      28.149  26.869  22.094  1.00  0.00    -0.391 OA
ATOM     17  H   UNL     1      28.336  26.170  22.759  1.00  0.00     0.211 HD
ENDBRANCH   8  16
BRANCH   9  18
ATOM     18  N   UNL     1      27.806  29.578  21.802  1.00  0.00    -0.348 N 
ATOM     19  C   UNL     1      26.539  29.909  21.283  1.00  0.00     0.217 C 
ATOM     20  H   UNL     1      28.066  29.814  22.768  1.00  0.00     0.163 HD
ATOM     21  C   UNL     1      25.510  30.623  22.118  1.00  0.00     0.114 C 
ATOM     22  O   UNL     1      26.278  29.594  20.094  1.00  0.00    -0.275 OA
ENDBRANCH   9  18
ENDBRANCH   3   4
BRANCH   3  23
ATOM     23  O   UNL     1      28.975  30.776  18.946  1.00  0.00    -0.388 OA
ATOM     24  H   UNL     1      29.606  30.801  18.183  1.00  0.00     0.211 HD
ENDBRANCH   3  23
ENDBRANCH   2   3
BRANCH   2  25
ATOM     25  O   UNL     1      31.700  31.775  20.982  1.00  0.00    -0.388 OA
ATOM     26  H   UNL     1      32.657  31.803  20.717  1.00  0.00     0.211 HD
ENDBRANCH   2  25
ENDBRANCH   1   2
BRANCH   1  27
ATOM     27  N   UNL     1      29.925  33.415  18.301  1.00  0.00    -0.319 N 
ATOM     28  C   UNL     1      30.636  33.687  17.101  1.00  0.00     0.407 C 
ATOM     29  H   UNL     1      28.874  33.309  18.166  1.00  0.00     0.167 HD
ATOM     30  O   UNL     1      31.867  33.827  17.144  1.00  0.00    -0.225 OA
BRANCH  28  31
ATOM     31  O   UNL     1      30.000  33.801  15.871  1.00  0.00    -0.443 OA
BRANCH  31  32
ATOM     32  C   UNL     1      29.855  32.675  15.029  1.00  0.00     0.294 C 
BRANCH  32  33
ATOM     33  C   UNL     1      28.786  31.775  15.532  1.00  0.00     0.120 A 
ATOM     34  C   UNL     1      27.509  32.094  15.894  1.00  0.00     0.138 A 
ATOM     35  N   UNL     1      28.899  30.448  15.726  1.00  0.00    -0.132 NA
ATOM     36  N   UNL     1      26.875  30.980  16.295  1.00  0.00    -0.249 N 
ATOM     37  N   UNL     1      27.761  29.987  16.177  1.00  0.00    -0.067 NA
BRANCH  36  38
ATOM     38  C   UNL     1      25.508  30.895  16.755  1.00  0.00     0.111 C 
ATOM     39  C   UNL     1      24.854  29.604  16.316  1.00  0.00     0.043 C 
ATOM     40  C   UNL     1      24.716  32.104  16.355  1.00  0.00     0.043 C 
ATOM     41  C   UNL     1      24.300  29.685  14.913  1.00  0.00     0.086 C 
ATOM     42  C   UNL     1      24.251  32.085  14.932  1.00  0.00     0.086 C 
ATOM     43  N   UNL     1      23.532  30.873  14.685  1.00  0.00    -0.306 NA
ATOM     44  C   UNL     1      22.287  30.889  15.399  1.00  0.00     0.105 C 
ENDBRANCH  36  38
ENDBRANCH  32  33
ENDBRANCH  31  32
ENDBRANCH  28  31
ENDBRANCH   1  27
TORSDOF 15
BEGIN_RES LYS A 131
REMARK  4 active torsions:
REMARK  status: ('A' for Active; 'I' for Inactive)
REMARK    1  A    between atoms: CA   and  CB  
REMARK    2  A    between atoms: CB   and  CG  
REMARK    3  A    between atoms: CG   and  CD  
REMARK    4  A    between atoms: CD   and  CE  
ROOT
ATOM      1  CA  LYS A 131      29.867  25.555  16.977  1.00 20.52     0.186 C 
ENDROOT
BRANCH   1   2
ATOM      2  CB  LYS A 131      28.345  25.722  17.026  1.00 20.94     0.034 C 
BRANCH   2   3
ATOM      3  CG  LYS A 131      27.602  24.398  16.935  1.00 22.96     0.005 C 
BRANCH   3   4
ATOM      4  CD  LYS A 131      26.451  24.327  17.900  1.00 24.33     0.041 C 
BRANCH   4   5
ATOM      5  CE  LYS A 131      25.995  25.739  18.253  1.00 26.91     0.338 C 
ATOM      6  NZ  LYS A 131      25.860  25.889  19.721  1.00 27.40     0.618 N 
ENDBRANCH   4   5
ENDBRANCH   3   4
ENDBRANCH   2   3
ENDBRANCH   1   2
END_RES LYS A 131
BEGIN_RES LYS A 135
REMARK  4 active torsions:
REMARK  status: ('A' for Active; 'I' for Inactive)
REMARK    5  A    between atoms: CA   and  CB  
REMARK    6  A    between atoms: CB   and  CG  
REMARK    7  A    between atoms: CG   and  CD  
REMARK    8  A    between atoms: CD   and  CE  
ROOT
ATOM      7  CA  LYS A 135      33.193  34.663   9.290  1.00 25.02     0.186 C 
ENDROOT
BRANCH   7   8
ATOM      8  CB  LYS A 135      32.060  35.360  10.034  1.00 26.63     0.034 C 
BRANCH   8   9
ATOM      9  CG  LYS A 135      30.707  34.748   9.781  1.00 29.45     0.005 C 
BRANCH   9  10
ATOM     10  CD  LYS A 135      30.492  34.516   8.293  1.00 32.00     0.041 C 
BRANCH  10  11
ATOM     11  CE  LYS A 135      29.077  34.889   7.895  1.00 34.25     0.338 C 
ATOM     12  NZ  LYS A 135      28.080  34.269   8.812  1.00 35.99     0.618 N 
ENDBRANCH  10  11
ENDBRANCH   9  10
ENDBRANCH   8   9
ENDBRANCH   7   8
END_RES LYS A 135
