REMARK VINA RESULT:    -5.165      1.929      2.879
REMARK INTER + INTRA:         -15.186
REMARK INTER:                  -8.304
REMARK INTRA:                  -6.881
REMARK UNBOUND:                -5.794
REMARK SMILES CC(=O)N[C@@H]1[C@@H](O)C[C@](O)(C(=O)O)O[C@H]1C(O)[C@H](O)CNC(=O)OCc1cn(Cc2cc(Br)cc(Br)c2O)nn1
REMARK SMILES IDX 21 1 22 2 23 3 20 5 18 6 16 7 15 8 9 9 8 10 14 11 6 12 5 13
REMARK SMILES IDX 10 14 11 16 12 17 13 18 7 20 4 22 2 23 1 25 3 26 17 27 19 29
REMARK SMILES IDX 24 31 25 32 26 33 27 34 40 35 28 36 39 37 29 38 30 39 31 40
REMARK SMILES IDX 37 41 32 42 35 43 33 44 34 45 36 46 38 47
REMARK H PARENT 21 4 10 15 13 19 7 21 4 24 17 28 19 30 38 48
REMARK Flexibility Score: inf
ROOT
ATOM      1  N   UNL     1      27.328  28.586  18.354  1.00  0.00    -0.319 N 
ATOM      2  C   UNL     1      26.475  28.985  17.286  1.00  0.00     0.407 C 
ATOM      3  O   UNL     1      25.253  28.721  17.355  1.00  0.00    -0.225 OA
ATOM      4  H   UNL     1      28.334  28.815  18.272  1.00  0.00     0.167 HD
ENDROOT
BRANCH   1   5
ATOM      5  C   UNL     1      26.831  27.888  19.508  1.00  0.00     0.154 C 
BRANCH   5   6
ATOM      6  C   UNL     1      27.933  27.617  20.493  1.00  0.00     0.165 C 
BRANCH   6   7
ATOM      7  C   UNL     1      28.473  28.889  21.109  1.00  0.00     0.176 C 
BRANCH   7   8
ATOM      8  C   UNL     1      29.989  28.974  20.854  1.00  0.00     0.178 C 
ATOM      9  C   UNL     1      31.638  28.949  22.533  1.00  0.00     0.269 C 
ATOM     10  C   UNL     1      32.453  29.842  21.585  1.00  0.00     0.112 C 
ATOM     11  O   UNL     1      30.598  28.375  21.883  1.00  0.00    -0.332 OA
ATOM     12  C   UNL     1      31.487  30.966  21.245  1.00  0.00     0.145 C 
ATOM     13  C   UNL     1      30.363  30.342  20.469  1.00  0.00     0.142 C 
BRANCH   9  14
ATOM     14  O   UNL     1      31.288  29.758  23.596  1.00  0.00    -0.357 OA
ATOM     15  H   UNL     1      31.491  30.715  23.454  1.00  0.00     0.214 HD
ENDBRANCH   9  14
BRANCH   9  16
ATOM     16  C   UNL     1      32.514  27.864  23.041  1.00  0.00     0.364 C 
ATOM     17  O   UNL     1      32.796  27.838  24.264  1.00  0.00    -0.246 OA
BRANCH  16  18
ATOM     18  O   UNL     1      33.032  26.875  22.209  1.00  0.00    -0.477 OA
ATOM     19  H   UNL     1      32.511  25.986  22.205  1.00  0.00     0.296 HD
ENDBRANCH  16  18
ENDBRANCH   9  16
BRANCH  12  20
ATOM     20  O   UNL     1      31.042  31.604  22.401  1.00  0.00    -0.391 OA
ATOM     21  H   UNL     1      30.121  31.896  22.242  1.00  0.00     0.211 HD
ENDBRANCH  12  20
BRANCH  13  22
ATOM     22  N   UNL     1      30.708  30.467  19.053  1.00  0.00    -0.348 N 
ATOM     23  C   UNL     1      29.857  31.074  18.097  1.00  0.00     0.217 C 
ATOM     24  H   UNL     1      31.629  30.100  18.684  1.00  0.00     0.163 HD
ATOM     25  C   UNL     1      30.250  31.180  16.659  1.00  0.00     0.114 C 
ATOM     26  O   UNL     1      28.744  31.535  18.461  1.00  0.00    -0.275 OA
ENDBRANCH  13  22
ENDBRANCH   7   8
BRANCH   7  27
ATOM     27  O   UNL     1      27.812  30.027  20.719  1.00  0.00    -0.388 OA
ATOM     28  H   UNL     1      26.983  29.836  20.232  1.00  0.00     0.211 HD
ENDBRANCH   7  27
ENDBRANCH   6   7
BRANCH   6  29
ATOM     29  O   UNL     1      28.896  26.814  19.924  1.00  0.00    -0.388 OA
ATOM     30  H   UNL     1      28.683  26.502  19.024  1.00  0.00     0.211 HD
ENDBRANCH   6  29
ENDBRANCH   5   6
ENDBRANCH   1   5
BRANCH   2  31
ATOM     31  O   UNL     1      26.978  29.650  16.195  1.00  0.00    -0.443 OA
BRANCH  31  32
ATOM     32  C   UNL     1      26.197  30.563  15.446  1.00  0.00     0.294 C 
BRANCH  32  33
ATOM     33  C   UNL     1      26.461  31.938  15.947  1.00  0.00     0.120 A 
ATOM     34  C   UNL     1      27.372  32.852  15.432  1.00  0.00     0.138 A 
ATOM     35  N   UNL     1      25.895  32.590  16.979  1.00  0.00    -0.132 NA
ATOM     36  N   UNL     1      27.322  33.982  16.152  1.00  0.00    -0.248 N 
ATOM     37  N   UNL     1      26.396  33.798  17.108  1.00  0.00    -0.067 NA
BRANCH  36  38
ATOM     38  C   UNL     1      28.089  35.182  15.967  1.00  0.00     0.185 C 
BRANCH  38  39
ATOM     39  C   UNL     1      29.534  34.998  16.258  1.00  0.00     0.018 A 
ATOM     40  C   UNL     1      29.914  34.789  17.569  1.00  0.00     0.025 A 
ATOM     41  C   UNL     1      30.509  35.028  15.289  1.00  0.00     0.134 A 
ATOM     42  C   UNL     1      31.225  34.609  17.951  1.00  0.00     0.019 A 
ATOM     43  C   UNL     1      31.848  34.848  15.650  1.00  0.00     0.061 A 
ATOM     44  Br  UNL     1      31.718  34.320  19.764  1.00  0.00    -0.051 Br
ATOM     45  C   UNL     1      32.199  34.642  16.962  1.00  0.00     0.035 A 
ATOM     46  Br  UNL     1      33.143  34.904  14.235  1.00  0.00    -0.047 Br
BRANCH  41  47
ATOM     47  O   UNL     1      30.162  35.235  13.967  1.00  0.00    -0.506 OA
ATOM     48  H   UNL     1      29.383  34.723  13.575  1.00  0.00     0.293 HD
ENDBRANCH  41  47
ENDBRANCH  38  39
ENDBRANCH  36  38
ENDBRANCH  32  33
ENDBRANCH  31  32
ENDBRANCH   2  31
TORSDOF 17
BEGIN_RES LYS A 131
REMARK  4 active torsions:
REMARK  status: ('A' for Active; 'I' for Inactive)
REMARK    1  A    between atoms: CA   and  CB  
REMARK    2  A    between atoms: CB   and  CG  
REMARK    3  A    between atoms: CG   and  CD  
REMARK    4  A    between atoms: CD   and  CE  
ROOT
ATOM      1  CA  LYS A 131      29.867  25.555  16.977  1.00 20.52     0.186 C 
ENDROOT
BRANCH   1   2
ATOM      2  CB  LYS A 131      28.345  25.722  17.026  1.00 20.94     0.034 C 
BRANCH   2   3
ATOM      3  CG  LYS A 131      27.601  24.401  16.907  1.00 22.96     0.005 C 
BRANCH   3   4
ATOM      4  CD  LYS A 131      26.526  24.260  17.948  1.00 24.33     0.041 C 
BRANCH   4   5
ATOM      5  CE  LYS A 131      25.184  24.020  17.263  1.00 26.91     0.338 C 
ATOM      6  NZ  LYS A 131      24.745  22.618  17.458  1.00 27.40     0.618 N 
ENDBRANCH   4   5
ENDBRANCH   3   4
ENDBRANCH   2   3
ENDBRANCH   1   2
END_RES LYS A 131
BEGIN_RES LYS A 135
REMARK  4 active torsions:
REMARK  status: ('A' for Active; 'I' for Inactive)
REMARK    5  A    between atoms: CA   and  CB  
REMARK    6  A    between atoms: CB   and  CG  
REMARK    7  A    between atoms: CG   and  CD  
REMARK    8  A    between atoms: CD   and  CE  
ROOT
ATOM      7  CA  LYS A 135      33.193  34.663   9.290  1.00 25.02     0.186 C 
ENDROOT
BRANCH   7   8
ATOM      8  CB  LYS A 135      32.060  35.360  10.034  1.00 26.63     0.034 C 
BRANCH   8   9
ATOM      9  CG  LYS A 135      30.754  34.609   9.984  1.00 29.45     0.005 C 
BRANCH   9  10
ATOM     10  CD  LYS A 135      30.279  34.456   8.547  1.00 32.00     0.041 C 
BRANCH  10  11
ATOM     11  CE  LYS A 135      29.412  35.634   8.145  1.00 34.25     0.338 C 
ATOM     12  NZ  LYS A 135      28.957  35.507   6.732  1.00 35.99     0.618 N 
ENDBRANCH  10  11
ENDBRANCH   9  10
ENDBRANCH   8   9
ENDBRANCH   7   8
END_RES LYS A 135
