REMARK VINA RESULT:    -4.427      3.345      7.569
REMARK INTER + INTRA:         -15.004
REMARK INTER:                  -8.727
REMARK INTRA:                  -6.277
REMARK UNBOUND:                -5.918
REMARK SMILES CC(=O)N[C@@H]1[C@@H](O)C[C@](O)(C(=O)O)O[C@H]1C(O)[C@H](O)CNC(=O)OCc1cn(CCCCCC(=O)O)nn1
REMARK SMILES IDX 25 1 24 2 22 3 21 4 23 6 20 7 18 8 16 9 15 10 9 11 8 12
REMARK SMILES IDX 14 13 6 14 5 15 10 16 11 18 12 19 13 20 7 22 4 24 2 25 1 27
REMARK SMILES IDX 3 28 17 29 19 31 26 33 27 34 38 35 28 36 37 37 29 38 30 39
REMARK SMILES IDX 31 40 32 41 33 42 34 43 35 44 36 45
REMARK H PARENT 21 5 10 17 13 21 7 23 4 26 17 30 19 32 36 46
REMARK Flexibility Score: inf
ROOT
ATOM      1  C   UNL     1      23.871  37.403   7.647  1.00  0.00     0.294 C 
ENDROOT
BRANCH   1   2
ATOM      2  O   UNL     1      23.622  38.753   8.023  1.00  0.00    -0.443 OA
BRANCH   2   3
ATOM      3  C   UNL     1      24.386  39.750   7.402  1.00  0.00     0.407 C 
ATOM      4  N   UNL     1      25.525  39.351   6.648  1.00  0.00    -0.319 N 
ATOM      5  H   UNL     1      25.735  38.319   6.589  1.00  0.00     0.167 HD
ATOM      6  O   UNL     1      24.028  40.945   7.545  1.00  0.00    -0.225 OA
BRANCH   4   7
ATOM      7  C   UNL     1      26.322  40.350   6.010  1.00  0.00     0.154 C 
BRANCH   7   8
ATOM      8  C   UNL     1      27.807  40.220   6.250  1.00  0.00     0.165 C 
BRANCH   8   9
ATOM      9  C   UNL     1      28.244  41.367   7.140  1.00  0.00     0.176 C 
BRANCH   9  10
ATOM     10  C   UNL     1      29.188  40.986   8.231  1.00  0.00     0.178 C 
ATOM     11  C   UNL     1      31.075  41.703   7.044  1.00  0.00     0.269 C 
ATOM     12  C   UNL     1      31.306  40.225   6.687  1.00  0.00     0.112 C 
ATOM     13  O   UNL     1      30.296  41.804   8.160  1.00  0.00    -0.332 OA
ATOM     14  C   UNL     1      31.100  39.473   7.979  1.00  0.00     0.145 C 
ATOM     15  C   UNL     1      29.597  39.559   8.303  1.00  0.00     0.142 C 
BRANCH  11  16
ATOM     16  O   UNL     1      30.608  42.393   5.928  1.00  0.00    -0.357 OA
ATOM     17  H   UNL     1      29.954  43.117   6.190  1.00  0.00     0.214 HD
ENDBRANCH  11  16
BRANCH  11  18
ATOM     18  C   UNL     1      32.414  42.251   7.381  1.00  0.00     0.364 C 
ATOM     19  O   UNL     1      33.306  42.335   6.484  1.00  0.00    -0.246 OA
BRANCH  18  20
ATOM     20  O   UNL     1      32.660  42.663   8.678  1.00  0.00    -0.477 OA
ATOM     21  H   UNL     1      31.980  42.349   9.386  1.00  0.00     0.296 HD
ENDBRANCH  18  20
ENDBRANCH  11  18
BRANCH  14  22
ATOM     22  O   UNL     1      31.497  38.140   7.878  1.00  0.00    -0.391 OA
ATOM     23  H   UNL     1      32.235  38.014   8.531  1.00  0.00     0.211 HD
ENDBRANCH  14  22
BRANCH  15  24
ATOM     24  N   UNL     1      29.361  38.982   9.619  1.00  0.00    -0.348 N 
ATOM     25  C   UNL     1      28.076  38.658  10.096  1.00  0.00     0.217 C 
ATOM     26  H   UNL     1      30.199  38.797  10.241  1.00  0.00     0.163 HD
ATOM     27  C   UNL     1      27.865  38.064  11.466  1.00  0.00     0.114 C 
ATOM     28  O   UNL     1      27.078  38.878   9.343  1.00  0.00    -0.275 OA
ENDBRANCH  15  24
ENDBRANCH   9  10
BRANCH   9  29
ATOM     29  O   UNL     1      27.044  41.754   7.804  1.00  0.00    -0.388 OA
ATOM     30  H   UNL     1      27.086  42.736   7.870  1.00  0.00     0.211 HD
ENDBRANCH   9  29
ENDBRANCH   8   9
BRANCH   8  31
ATOM     31  O   UNL     1      28.440  40.202   5.027  1.00  0.00    -0.388 OA
ATOM     32  H   UNL     1      27.862  39.813   4.325  1.00  0.00     0.211 HD
ENDBRANCH   8  31
ENDBRANCH   7   8
ENDBRANCH   4   7
ENDBRANCH   2   3
ENDBRANCH   1   2
BRANCH   1  33
ATOM     33  C   UNL     1      24.447  36.743   8.841  1.00  0.00     0.120 A 
ATOM     34  C   UNL     1      25.507  35.861   8.791  1.00  0.00     0.138 A 
ATOM     35  N   UNL     1      24.082  36.863  10.117  1.00  0.00    -0.132 NA
ATOM     36  N   UNL     1      25.726  35.488  10.071  1.00  0.00    -0.252 N 
ATOM     37  N   UNL     1      24.867  36.094  10.860  1.00  0.00    -0.067 NA
BRANCH  36  38
ATOM     38  C   UNL     1      26.786  34.542  10.425  1.00  0.00     0.146 C 
BRANCH  38  39
ATOM     39  C   UNL     1      27.455  34.104   9.149  1.00  0.00     0.024 C 
BRANCH  39  40
ATOM     40  C   UNL     1      28.943  34.380   9.139  1.00  0.00     0.002 C 
BRANCH  40  41
ATOM     41  C   UNL     1      29.318  35.487   8.216  1.00  0.00     0.012 C 
BRANCH  41  42
ATOM     42  C   UNL     1      28.861  35.282   6.797  1.00  0.00     0.122 C 
BRANCH  42  43
ATOM     43  C   UNL     1      28.486  36.524   6.105  1.00  0.00     0.303 C 
ATOM     44  O   UNL     1      27.297  36.855   5.976  1.00  0.00    -0.252 OA
BRANCH  43  45
ATOM     45  O   UNL     1      29.472  37.372   5.571  1.00  0.00    -0.481 OA
ATOM     46  H   UNL     1      30.196  36.993   4.952  1.00  0.00     0.296 HD
ENDBRANCH  43  45
ENDBRANCH  42  43
ENDBRANCH  41  42
ENDBRANCH  40  41
ENDBRANCH  39  40
ENDBRANCH  38  39
ENDBRANCH  36  38
ENDBRANCH   1  33
TORSDOF 21
BEGIN_RES LYS A 131
REMARK  4 active torsions:
REMARK  status: ('A' for Active; 'I' for Inactive)
REMARK    1  A    between atoms: CA   and  CB  
REMARK    2  A    between atoms: CB   and  CG  
REMARK    3  A    between atoms: CG   and  CD  
REMARK    4  A    between atoms: CD   and  CE  
ROOT
ATOM      1  CA  LYS A 131      29.867  25.555  16.977  1.00 20.52     0.186 C 
ENDROOT
BRANCH   1   2
ATOM      2  CB  LYS A 131      28.345  25.722  17.026  1.00 20.94     0.034 C 
BRANCH   2   3
ATOM      3  CG  LYS A 131      27.602  24.400  16.915  1.00 22.96     0.005 C 
BRANCH   3   4
ATOM      4  CD  LYS A 131      26.514  24.274  17.945  1.00 24.33     0.041 C 
BRANCH   4   5
ATOM      5  CE  LYS A 131      25.236  23.776  17.277  1.00 26.91     0.338 C 
ATOM      6  NZ  LYS A 131      24.218  24.853  17.238  1.00 27.40     0.618 N 
ENDBRANCH   4   5
ENDBRANCH   3   4
ENDBRANCH   2   3
ENDBRANCH   1   2
END_RES LYS A 131
BEGIN_RES LYS A 135
REMARK  4 active torsions:
REMARK  status: ('A' for Active; 'I' for Inactive)
REMARK    5  A    between atoms: CA   and  CB  
REMARK    6  A    between atoms: CB   and  CG  
REMARK    7  A    between atoms: CG   and  CD  
REMARK    8  A    between atoms: CD   and  CE  
ROOT
ATOM      7  CA  LYS A 135      33.193  34.663   9.290  1.00 25.02     0.186 C 
ENDROOT
BRANCH   7   8
ATOM      8  CB  LYS A 135      32.060  35.360  10.034  1.00 26.63     0.034 C 
BRANCH   8   9
ATOM      9  CG  LYS A 135      32.482  35.955  11.353  1.00 29.45     0.005 C 
BRANCH   9  10
ATOM     10  CD  LYS A 135      31.880  37.340  11.533  1.00 32.00     0.041 C 
BRANCH  10  11
ATOM     11  CE  LYS A 135      31.504  37.573  12.984  1.00 34.25     0.338 C 
ATOM     12  NZ  LYS A 135      30.533  36.548  13.457  1.00 35.99     0.618 N 
ENDBRANCH  10  11
ENDBRANCH   9  10
ENDBRANCH   8   9
ENDBRANCH   7   8
END_RES LYS A 135
