REMARK VINA RESULT:    -4.970      5.148      8.553
REMARK INTER + INTRA:         -15.880
REMARK INTER:                  -8.317
REMARK INTRA:                  -7.563
REMARK UNBOUND:                -6.408
REMARK SMILES CC(=O)N[C@@H]1[C@@H](O)C[C@](O)(C(=O)O)O[C@H]1C(O)[C@H](O)CNC(=O)OCc1cn(-c2ccc(S(=O)(=O)Nc3nccs3)cc2)nn1
REMARK SMILES IDX 21 1 22 2 23 3 20 5 18 6 16 7 15 8 9 9 8 10 14 11 6 12 5 13
REMARK SMILES IDX 10 14 11 16 12 17 13 18 7 20 4 22 2 23 1 25 3 26 17 27 19 29
REMARK SMILES IDX 24 31 25 32 26 33 27 34 45 35 28 36 44 37 29 38 30 39 43 40
REMARK SMILES IDX 31 41 42 42 32 43 33 44 34 45 35 46 36 47 37 49 38 50 41 51
REMARK SMILES IDX 39 52 40 53
REMARK H PARENT 21 4 10 15 13 19 7 21 4 24 17 28 19 30 36 48
REMARK Flexibility Score: inf
ROOT
ATOM      1  N   UNL     1      31.237  32.187  15.836  1.00  0.00    -0.319 N 
ATOM      2  C   UNL     1      31.542  33.358  16.565  1.00  0.00     0.407 C 
ATOM      3  O   UNL     1      31.058  33.488  17.741  1.00  0.00    -0.225 OA
ATOM      4  H   UNL     1      31.626  32.074  14.885  1.00  0.00     0.167 HD
ENDROOT
BRANCH   1   5
ATOM      5  C   UNL     1      30.403  31.151  16.382  1.00  0.00     0.154 C 
BRANCH   5   6
ATOM      6  C   UNL     1      29.087  31.019  15.657  1.00  0.00     0.165 C 
BRANCH   6   7
ATOM      7  C   UNL     1      27.962  31.680  16.400  1.00  0.00     0.176 C 
BRANCH   7   8
ATOM      8  C   UNL     1      27.296  32.761  15.530  1.00  0.00     0.178 C 
ATOM      9  C   UNL     1      27.824  34.765  16.658  1.00  0.00     0.269 C 
ATOM     10  C   UNL     1      26.343  35.076  16.763  1.00  0.00     0.112 C 
ATOM     11  O   UNL     1      28.048  33.889  15.655  1.00  0.00    -0.332 OA
ATOM     12  C   UNL     1      25.670  33.761  17.075  1.00  0.00     0.145 C 
ATOM     13  C   UNL     1      25.865  32.849  15.889  1.00  0.00     0.142 C 
BRANCH   9  14
ATOM     14  O   UNL     1      28.173  34.174  17.880  1.00  0.00    -0.357 OA
ATOM     15  H   UNL     1      29.050  33.748  17.863  1.00  0.00     0.214 HD
ENDBRANCH   9  14
BRANCH   9  16
ATOM     16  C   UNL     1      28.621  36.013  16.534  1.00  0.00     0.364 C 
ATOM     17  O   UNL     1      28.117  37.011  15.998  1.00  0.00    -0.246 OA
BRANCH  16  18
ATOM     18  O   UNL     1      29.918  36.075  17.006  1.00  0.00    -0.477 OA
ATOM     19  H   UNL     1      30.662  35.531  16.544  1.00  0.00     0.296 HD
ENDBRANCH  16  18
ENDBRANCH   9  16
BRANCH  12  20
ATOM     20  O   UNL     1      26.179  33.236  18.258  1.00  0.00    -0.391 OA
ATOM     21  H   UNL     1      25.511  33.428  18.978  1.00  0.00     0.211 HD
ENDBRANCH  12  20
BRANCH  13  22
ATOM     22  N   UNL     1      24.989  33.294  14.854  1.00  0.00    -0.348 N 
ATOM     23  C   UNL     1      24.308  32.360  14.043  1.00  0.00     0.217 C 
ATOM     24  H   UNL     1      24.846  34.304  14.687  1.00  0.00     0.163 HD
ATOM     25  C   UNL     1      23.380  32.733  12.945  1.00  0.00     0.114 C 
ATOM     26  O   UNL     1      24.498  31.156  14.261  1.00  0.00    -0.275 OA
ENDBRANCH  13  22
ENDBRANCH   7   8
BRANCH   7  27
ATOM     27  O   UNL     1      26.980  30.754  16.821  1.00  0.00    -0.388 OA
ATOM     28  H   UNL     1      26.347  30.648  16.089  1.00  0.00     0.211 HD
ENDBRANCH   7  27
ENDBRANCH   6   7
BRANCH   6  29
ATOM     29  O   UNL     1      28.869  29.630  15.528  1.00  0.00    -0.388 OA
ATOM     30  H   UNL     1      27.927  29.475  15.785  1.00  0.00     0.211 HD
ENDBRANCH   6  29
ENDBRANCH   5   6
ENDBRANCH   1   5
BRANCH   2  31
ATOM     31  O   UNL     1      32.336  34.378  16.084  1.00  0.00    -0.443 OA
BRANCH  31  32
ATOM     32  C   UNL     1      32.634  34.512  14.687  1.00  0.00     0.294 C 
BRANCH  32  33
ATOM     33  C   UNL     1      31.582  35.406  14.121  1.00  0.00     0.121 A 
ATOM     34  C   UNL     1      30.446  35.016  13.409  1.00  0.00     0.144 A 
ATOM     35  N   UNL     1      31.498  36.752  14.171  1.00  0.00    -0.131 NA
ATOM     36  N   UNL     1      29.740  36.105  13.065  1.00  0.00    -0.220 N 
ATOM     37  N   UNL     1      30.411  37.132  13.546  1.00  0.00    -0.062 NA
BRANCH  36  38
ATOM     38  C   UNL     1      28.522  36.095  12.332  1.00  0.00     0.066 A 
ATOM     39  C   UNL     1      27.581  35.101  12.470  1.00  0.00     0.030 A 
ATOM     40  C   UNL     1      28.255  37.111  11.440  1.00  0.00     0.030 A 
ATOM     41  C   UNL     1      26.393  35.109  11.740  1.00  0.00     0.024 A 
ATOM     42  C   UNL     1      27.082  37.122  10.718  1.00  0.00     0.024 A 
ATOM     43  C   UNL     1      26.115  36.119  10.848  1.00  0.00     0.088 A 
BRANCH  43  44
ATOM     44  S   UNL     1      24.643  36.178   9.925  1.00  0.00     0.263 S 
ATOM     45  O   UNL     1      24.806  35.195   8.772  1.00  0.00    -0.201 OA
ATOM     46  O   UNL     1      24.544  37.532   9.312  1.00  0.00    -0.201 OA
BRANCH  44  47
ATOM     47  N   UNL     1      23.243  35.782  10.802  1.00  0.00    -0.255 N 
ATOM     48  H   UNL     1      23.327  35.721  11.854  1.00  0.00     0.182 HD
BRANCH  47  49
ATOM     49  C   UNL     1      21.965  35.518  10.287  1.00  0.00     0.196 A 
ATOM     50  N   UNL     1      21.315  35.560   9.254  1.00  0.00    -0.228 NA
ATOM     51  S   UNL     1      20.630  34.848  11.444  1.00  0.00    -0.105 S 
ATOM     52  C   UNL     1      20.078  35.230   9.060  1.00  0.00     0.125 A 
ATOM     53  C   UNL     1      19.347  34.770  10.100  1.00  0.00     0.089 A 
ENDBRANCH  47  49
ENDBRANCH  44  47
ENDBRANCH  43  44
ENDBRANCH  36  38
ENDBRANCH  32  33
ENDBRANCH  31  32
ENDBRANCH   2  31
TORSDOF 18
BEGIN_RES LYS A 131
REMARK  4 active torsions:
REMARK  status: ('A' for Active; 'I' for Inactive)
REMARK    1  A    between atoms: CA   and  CB  
REMARK    2  A    between atoms: CB   and  CG  
REMARK    3  A    between atoms: CG   and  CD  
REMARK    4  A    between atoms: CD   and  CE  
ROOT
ATOM      1  CA  LYS A 131      29.867  25.555  16.977  1.00 20.52     0.186 C 
ENDROOT
BRANCH   1   2
ATOM      2  CB  LYS A 131      28.345  25.722  17.026  1.00 20.94     0.034 C 
BRANCH   2   3
ATOM      3  CG  LYS A 131      27.599  24.472  16.584  1.00 22.96     0.005 C 
BRANCH   3   4
ATOM      4  CD  LYS A 131      27.020  23.717  17.748  1.00 24.33     0.041 C 
BRANCH   4   5
ATOM      5  CE  LYS A 131      25.532  23.481  17.512  1.00 26.91     0.338 C 
ATOM      6  NZ  LYS A 131      24.854  24.752  17.160  1.00 27.40     0.618 N 
ENDBRANCH   4   5
ENDBRANCH   3   4
ENDBRANCH   2   3
ENDBRANCH   1   2
END_RES LYS A 131
BEGIN_RES LYS A 135
REMARK  4 active torsions:
REMARK  status: ('A' for Active; 'I' for Inactive)
REMARK    5  A    between atoms: CA   and  CB  
REMARK    6  A    between atoms: CB   and  CG  
REMARK    7  A    between atoms: CG   and  CD  
REMARK    8  A    between atoms: CD   and  CE  
ROOT
ATOM      7  CA  LYS A 135      33.193  34.663   9.290  1.00 25.02     0.186 C 
ENDROOT
BRANCH   7   8
ATOM      8  CB  LYS A 135      32.060  35.360  10.034  1.00 26.63     0.034 C 
BRANCH   8   9
ATOM      9  CG  LYS A 135      30.708  34.740   9.790  1.00 29.45     0.005 C 
BRANCH   9  10
ATOM     10  CD  LYS A 135      30.495  34.484   8.306  1.00 32.00     0.041 C 
BRANCH  10  11
ATOM     11  CE  LYS A 135      29.425  35.407   7.755  1.00 34.25     0.338 C 
ATOM     12  NZ  LYS A 135      28.066  34.828   7.948  1.00 35.99     0.618 N 
ENDBRANCH  10  11
ENDBRANCH   9  10
ENDBRANCH   8   9
ENDBRANCH   7   8
END_RES LYS A 135
