REMARK VINA RESULT:    -5.198      5.378     10.871
REMARK INTER + INTRA:         -16.732
REMARK INTER:                  -7.678
REMARK INTRA:                  -9.053
REMARK UNBOUND:                -5.759
REMARK SMILES CC(=O)N[C@@H]1[C@@H](O)C[C@](O)(C(=O)O)O[C@H]1C(O)[C@H](O)CNC(=O)OCc1cn(CC(=O)NCC(O)Cn2ccnc2[N+](=O)[O-])nn1
REMARK SMILES IDX 25 1 24 2 22 3 21 4 23 6 20 7 18 8 16 9 15 10 9 11 8 12
REMARK SMILES IDX 14 13 6 14 5 15 10 16 11 18 12 19 13 20 7 22 4 24 2 25 1 27
REMARK SMILES IDX 3 28 17 29 19 31 26 33 27 34 46 35 28 36 45 37 29 38 30 39
REMARK SMILES IDX 31 40 32 41 33 43 34 44 35 45 36 47 37 48 38 49 41 50 39 51
REMARK SMILES IDX 40 52 42 53 43 54 44 55
REMARK H PARENT 21 5 10 17 13 21 7 23 4 26 17 30 19 32 32 42 35 46
REMARK Flexibility Score: inf
ROOT
ATOM      1  C   UNL     1      24.826  34.325  16.152  1.00  0.00     0.294 C 
ENDROOT
BRANCH   1   2
ATOM      2  O   UNL     1      24.185  34.662  14.938  1.00  0.00    -0.443 OA
BRANCH   2   3
ATOM      3  C   UNL     1      24.896  35.113  13.841  1.00  0.00     0.407 C 
ATOM      4  N   UNL     1      25.934  34.315  13.247  1.00  0.00    -0.319 N 
ATOM      5  H   UNL     1      26.117  33.395  13.695  1.00  0.00     0.167 HD
ATOM      6  O   UNL     1      24.620  36.231  13.374  1.00  0.00    -0.225 OA
BRANCH   4   7
ATOM      7  C   UNL     1      26.688  34.730  12.114  1.00  0.00     0.154 C 
BRANCH   7   8
ATOM      8  C   UNL     1      28.153  34.851  12.352  1.00  0.00     0.165 C 
BRANCH   8   9
ATOM      9  C   UNL     1      28.458  34.424  13.779  1.00  0.00     0.176 C 
BRANCH   9  10
ATOM     10  C   UNL     1      29.857  33.927  13.949  1.00  0.00     0.178 C 
ATOM     11  C   UNL     1      30.002  32.559  15.829  1.00  0.00     0.269 C 
ATOM     12  C   UNL     1      31.344  33.096  16.305  1.00  0.00     0.112 C 
ATOM     13  O   UNL     1      29.862  32.660  14.473  1.00  0.00    -0.332 OA
ATOM     14  C   UNL     1      31.915  34.042  15.257  1.00  0.00     0.145 C 
ATOM     15  C   UNL     1      30.724  34.855  14.735  1.00  0.00     0.142 C 
BRANCH  11  16
ATOM     16  O   UNL     1      29.038  33.328  16.456  1.00  0.00    -0.357 OA
ATOM     17  H   UNL     1      28.477  32.771  17.053  1.00  0.00     0.214 HD
ENDBRANCH  11  16
BRANCH  11  18
ATOM     18  C   UNL     1      29.805  31.147  16.246  1.00  0.00     0.364 C 
ATOM     19  O   UNL     1      29.162  30.326  15.533  1.00  0.00    -0.246 OA
BRANCH  18  20
ATOM     20  O   UNL     1      30.325  30.675  17.439  1.00  0.00    -0.477 OA
ATOM     21  H   UNL     1      29.836  30.637  18.316  1.00  0.00     0.296 HD
ENDBRANCH  18  20
ENDBRANCH  11  18
BRANCH  14  22
ATOM     22  O   UNL     1      32.838  34.857  15.887  1.00  0.00    -0.391 OA
ATOM     23  H   UNL     1      32.901  34.700  16.856  1.00  0.00     0.211 HD
ENDBRANCH  14  22
BRANCH  15  24
ATOM     24  N   UNL     1      31.212  35.959  13.919  1.00  0.00    -0.348 N 
ATOM     25  C   UNL     1      30.857  37.280  14.256  1.00  0.00     0.217 C 
ATOM     26  H   UNL     1      31.803  35.765  13.107  1.00  0.00     0.163 HD
ATOM     27  C   UNL     1      31.341  38.453  13.439  1.00  0.00     0.114 C 
ATOM     28  O   UNL     1      30.130  37.572  15.235  1.00  0.00    -0.275 OA
ENDBRANCH  15  24
ENDBRANCH   9  10
BRANCH   9  29
ATOM     29  O   UNL     1      28.222  35.456  14.673  1.00  0.00    -0.388 OA
ATOM     30  H   UNL     1      27.560  35.237  15.354  1.00  0.00     0.211 HD
ENDBRANCH   9  29
ENDBRANCH   8   9
BRANCH   8  31
ATOM     31  O   UNL     1      28.672  36.118  12.138  1.00  0.00    -0.388 OA
ATOM     32  H   UNL     1      29.283  36.408  12.868  1.00  0.00     0.211 HD
ENDBRANCH   8  31
ENDBRANCH   7   8
ENDBRANCH   4   7
ENDBRANCH   2   3
ENDBRANCH   1   2
BRANCH   1  33
ATOM     33  C   UNL     1      25.115  32.873  16.063  1.00  0.00     0.120 A 
ATOM     34  C   UNL     1      24.243  31.885  16.463  1.00  0.00     0.138 A 
ATOM     35  N   UNL     1      26.194  32.210  15.621  1.00  0.00    -0.132 NA
ATOM     36  N   UNL     1      24.805  30.654  16.258  1.00  0.00    -0.243 N 
ATOM     37  N   UNL     1      25.988  30.885  15.746  1.00  0.00    -0.067 NA
BRANCH  36  38
ATOM     38  C   UNL     1      24.113  29.429  16.597  1.00  0.00     0.245 C 
BRANCH  38  39
ATOM     39  C   UNL     1      24.485  29.119  18.035  1.00  0.00     0.241 C 
ATOM     40  O   UNL     1      23.625  28.663  18.819  1.00  0.00    -0.273 OA
ATOM     41  N   UNL     1      25.774  29.324  18.531  1.00  0.00    -0.352 N 
ATOM     42  H   UNL     1      26.461  29.702  17.774  1.00  0.00     0.163 HD
BRANCH  41  43
ATOM     43  C   UNL     1      26.298  29.124  19.832  1.00  0.00     0.151 C 
BRANCH  43  44
ATOM     44  C   UNL     1      27.734  28.950  20.037  1.00  0.00     0.168 C 
BRANCH  44  45
ATOM     45  O   UNL     1      28.471  28.946  18.822  1.00  0.00    -0.388 OA
ATOM     46  H   UNL     1      27.917  29.338  18.105  1.00  0.00     0.211 HD
ENDBRANCH  44  45
BRANCH  44  47
ATOM     47  C   UNL     1      28.441  29.569  21.170  1.00  0.00     0.239 C 
BRANCH  47  48
ATOM     48  N   UNL     1      27.848  30.815  21.617  1.00  0.00    -0.227 N 
ATOM     49  C   UNL     1      27.200  31.005  22.794  1.00  0.00     0.204 A 
ATOM     50  C   UNL     1      27.828  31.971  20.929  1.00  0.00     0.434 A 
ATOM     51  C   UNL     1      26.780  32.322  22.804  1.00  0.00     0.245 A 
ATOM     52  N   UNL     1      27.162  32.909  21.669  1.00  0.00    -0.074 NA
BRANCH  50  53
ATOM     53  N   UNL     1      28.376  32.264  19.656  1.00  0.00    -0.047 N 
ATOM     54  O   UNL     1      27.670  31.997  18.638  1.00  0.00    -0.390 OA
ATOM     55  O   UNL     1      29.593  32.804  19.411  1.00  0.00    -0.390 OA
ENDBRANCH  50  53
ENDBRANCH  47  48
ENDBRANCH  44  47
ENDBRANCH  43  44
ENDBRANCH  41  43
ENDBRANCH  38  39
ENDBRANCH  36  38
ENDBRANCH   1  33
TORSDOF 22
BEGIN_RES LYS A 131
REMARK  4 active torsions:
REMARK  status: ('A' for Active; 'I' for Inactive)
REMARK    1  A    between atoms: CA   and  CB  
REMARK    2  A    between atoms: CB   and  CG  
REMARK    3  A    between atoms: CG   and  CD  
REMARK    4  A    between atoms: CD   and  CE  
ROOT
ATOM      1  CA  LYS A 131      29.867  25.555  16.977  1.00 20.52     0.186 C 
ENDROOT
BRANCH   1   2
ATOM      2  CB  LYS A 131      28.345  25.722  17.026  1.00 20.94     0.034 C 
BRANCH   2   3
ATOM      3  CG  LYS A 131      27.601  24.403  16.885  1.00 22.96     0.005 C 
BRANCH   3   4
ATOM      4  CD  LYS A 131      26.188  24.492  17.392  1.00 24.33     0.041 C 
BRANCH   4   5
ATOM      5  CE  LYS A 131      26.015  25.780  18.190  1.00 26.91     0.338 C 
ATOM      6  NZ  LYS A 131      25.768  25.476  19.620  1.00 27.40     0.618 N 
ENDBRANCH   4   5
ENDBRANCH   3   4
ENDBRANCH   2   3
ENDBRANCH   1   2
END_RES LYS A 131
BEGIN_RES LYS A 135
REMARK  4 active torsions:
REMARK  status: ('A' for Active; 'I' for Inactive)
REMARK    5  A    between atoms: CA   and  CB  
REMARK    6  A    between atoms: CB   and  CG  
REMARK    7  A    between atoms: CG   and  CD  
REMARK    8  A    between atoms: CD   and  CE  
ROOT
ATOM      7  CA  LYS A 135      33.193  34.663   9.290  1.00 25.02     0.186 C 
ENDROOT
BRANCH   7   8
ATOM      8  CB  LYS A 135      32.060  35.360  10.034  1.00 26.63     0.034 C 
BRANCH   8   9
ATOM      9  CG  LYS A 135      30.794  35.482   9.226  1.00 29.45     0.005 C 
BRANCH   9  10
ATOM     10  CD  LYS A 135      30.088  34.139   9.128  1.00 32.00     0.041 C 
BRANCH  10  11
ATOM     11  CE  LYS A 135      28.669  34.318   8.623  1.00 34.25     0.338 C 
ATOM     12  NZ  LYS A 135      28.245  35.743   8.710  1.00 35.99     0.618 N 
ENDBRANCH  10  11
ENDBRANCH   9  10
ENDBRANCH   8   9
ENDBRANCH   7   8
END_RES LYS A 135
