REMARK VINA RESULT:    -6.014      4.317      7.859
REMARK INTER + INTRA:         -14.942
REMARK INTER:                  -9.767
REMARK INTRA:                  -5.174
REMARK UNBOUND:                -4.533
REMARK SMILES CC(=O)N[C@@H]1[C@@H](O)C[C@](O)(C(=O)O)O[C@H]1C(O)[C@H](O)CNC(=O)OCc1cn(-c2cnc3ccccc3c2)nn1
REMARK SMILES IDX 20 1 18 2 16 3 15 4 9 5 8 6 14 7 6 8 5 9 10 10 11 12 12 13
REMARK SMILES IDX 13 14 7 16 4 18 2 19 1 21 3 22 17 23 19 25 21 27 22 28 23 30
REMARK SMILES IDX 24 31 25 32 26 33 27 34 40 35 28 36 39 37 29 38 30 39 38 40
REMARK SMILES IDX 31 41 37 42 32 43 36 44 33 45 35 46 34 47
REMARK H PARENT 10 11 13 15 7 17 4 20 17 24 19 26 21 29
REMARK Flexibility Score: inf
ROOT
ATOM      1  C   UNL     1      30.557  31.300  16.207  1.00  0.00     0.154 C 
ENDROOT
BRANCH   1   2
ATOM      2  C   UNL     1      29.224  31.102  15.542  1.00  0.00     0.165 C 
BRANCH   2   3
ATOM      3  C   UNL     1      28.099  31.855  16.198  1.00  0.00     0.176 C 
BRANCH   3   4
ATOM      4  C   UNL     1      27.165  30.999  17.004  1.00  0.00     0.178 C 
ATOM      5  C   UNL     1      27.230  28.934  18.057  1.00  0.00     0.269 C 
ATOM      6  C   UNL     1      25.749  29.047  18.319  1.00  0.00     0.112 C 
ATOM      7  O   UNL     1      27.839  30.148  17.868  1.00  0.00    -0.332 OA
ATOM      8  C   UNL     1      25.076  29.794  17.216  1.00  0.00     0.145 C 
ATOM      9  C   UNL     1      26.101  30.339  16.197  1.00  0.00     0.142 C 
BRANCH   5  10
ATOM     10  O   UNL     1      27.410  28.037  17.008  1.00  0.00    -0.357 OA
ATOM     11  H   UNL     1      26.577  27.642  16.690  1.00  0.00     0.214 HD
ENDBRANCH   5  10
BRANCH   5  12
ATOM     12  C   UNL     1      27.842  28.309  19.269  1.00  0.00     0.364 C 
ATOM     13  O   UNL     1      27.960  29.018  20.300  1.00  0.00    -0.246 OA
BRANCH  12  14
ATOM     14  O   UNL     1      28.277  26.997  19.292  1.00  0.00    -0.477 OA
ATOM     15  H   UNL     1      28.332  26.465  18.418  1.00  0.00     0.296 HD
ENDBRANCH  12  14
ENDBRANCH   5  12
BRANCH   8  16
ATOM     16  O   UNL     1      24.153  28.971  16.546  1.00  0.00    -0.391 OA
ATOM     17  H   UNL     1      24.583  28.118  16.301  1.00  0.00     0.211 HD
ENDBRANCH   8  16
BRANCH   9  18
ATOM     18  N   UNL     1      25.432  31.372  15.400  1.00  0.00    -0.348 N 
ATOM     19  C   UNL     1      24.727  31.092  14.201  1.00  0.00     0.217 C 
ATOM     20  H   UNL     1      25.464  32.360  15.710  1.00  0.00     0.163 HD
ATOM     21  C   UNL     1      24.058  32.155  13.403  1.00  0.00     0.114 C 
ATOM     22  O   UNL     1      24.647  29.915  13.770  1.00  0.00    -0.275 OA
ENDBRANCH   9  18
ENDBRANCH   3   4
BRANCH   3  23
ATOM     23  O   UNL     1      28.690  32.852  17.000  1.00  0.00    -0.388 OA
ATOM     24  H   UNL     1      29.096  32.385  17.771  1.00  0.00     0.211 HD
ENDBRANCH   3  23
ENDBRANCH   2   3
BRANCH   2  25
ATOM     25  O   UNL     1      28.917  29.730  15.438  1.00  0.00    -0.388 OA
ATOM     26  H   UNL     1      27.990  29.656  15.830  1.00  0.00     0.211 HD
ENDBRANCH   2  25
ENDBRANCH   1   2
BRANCH   1  27
ATOM     27  N   UNL     1      31.335  32.253  15.450  1.00  0.00    -0.319 N 
ATOM     28  C   UNL     1      31.788  33.478  15.980  1.00  0.00     0.407 C 
ATOM     29  H   UNL     1      31.603  32.068  14.444  1.00  0.00     0.167 HD
ATOM     30  O   UNL     1      31.538  33.817  17.156  1.00  0.00    -0.225 OA
BRANCH  28  31
ATOM     31  O   UNL     1      32.544  34.388  15.229  1.00  0.00    -0.443 OA
BRANCH  31  32
ATOM     32  C   UNL     1      32.331  34.499  13.814  1.00  0.00     0.294 C 
BRANCH  32  33
ATOM     33  C   UNL     1      31.064  35.207  13.539  1.00  0.00     0.121 A 
ATOM     34  C   UNL     1      29.866  34.679  13.172  1.00  0.00     0.144 A 
ATOM     35  N   UNL     1      30.909  36.533  13.615  1.00  0.00    -0.131 NA
ATOM     36  N   UNL     1      29.011  35.733  13.036  1.00  0.00    -0.219 N 
ATOM     37  N   UNL     1      29.660  36.841  13.309  1.00  0.00    -0.062 NA
BRANCH  36  38
ATOM     38  C   UNL     1      27.648  35.658  12.665  1.00  0.00     0.085 A 
ATOM     39  C   UNL     1      26.681  35.646  13.655  1.00  0.00     0.140 A 
ATOM     40  C   UNL     1      27.314  35.600  11.331  1.00  0.00     0.040 A 
ATOM     41  N   UNL     1      25.388  35.574  13.302  1.00  0.00    -0.254 NA
ATOM     42  C   UNL     1      25.968  35.525  10.987  1.00  0.00     0.002 A 
ATOM     43  C   UNL     1      25.023  35.515  11.991  1.00  0.00     0.070 A 
ATOM     44  C   UNL     1      25.609  35.466   9.675  1.00  0.00     0.010 A 
ATOM     45  C   UNL     1      23.687  35.441  11.652  1.00  0.00     0.029 A 
ATOM     46  C   UNL     1      24.261  35.392   9.323  1.00  0.00     0.001 A 
ATOM     47  C   UNL     1      23.310  35.381  10.315  1.00  0.00     0.002 A 
ENDBRANCH  36  38
ENDBRANCH  32  33
ENDBRANCH  31  32
ENDBRANCH  28  31
ENDBRANCH   1  27
TORSDOF 15
BEGIN_RES LYS A 131
REMARK  4 active torsions:
REMARK  status: ('A' for Active; 'I' for Inactive)
REMARK    1  A    between atoms: CA   and  CB  
REMARK    2  A    between atoms: CB   and  CG  
REMARK    3  A    between atoms: CG   and  CD  
REMARK    4  A    between atoms: CD   and  CE  
ROOT
ATOM      1  CA  LYS A 131      29.867  25.555  16.977  1.00 20.52     0.186 C 
ENDROOT
BRANCH   1   2
ATOM      2  CB  LYS A 131      28.345  25.722  17.026  1.00 20.94     0.034 C 
BRANCH   2   3
ATOM      3  CG  LYS A 131      27.602  24.398  16.931  1.00 22.96     0.005 C 
BRANCH   3   4
ATOM      4  CD  LYS A 131      26.157  24.531  17.323  1.00 24.33     0.041 C 
BRANCH   4   5
ATOM      5  CE  LYS A 131      25.925  23.827  18.657  1.00 26.91     0.338 C 
ATOM      6  NZ  LYS A 131      25.573  24.811  19.708  1.00 27.40     0.618 N 
ENDBRANCH   4   5
ENDBRANCH   3   4
ENDBRANCH   2   3
ENDBRANCH   1   2
END_RES LYS A 131
BEGIN_RES LYS A 135
REMARK  4 active torsions:
REMARK  status: ('A' for Active; 'I' for Inactive)
REMARK    5  A    between atoms: CA   and  CB  
REMARK    6  A    between atoms: CB   and  CG  
REMARK    7  A    between atoms: CG   and  CD  
REMARK    8  A    between atoms: CD   and  CE  
ROOT
ATOM      7  CA  LYS A 135      33.193  34.663   9.290  1.00 25.02     0.186 C 
ENDROOT
BRANCH   7   8
ATOM      8  CB  LYS A 135      32.060  35.360  10.034  1.00 26.63     0.034 C 
BRANCH   8   9
ATOM      9  CG  LYS A 135      30.697  34.800   9.718  1.00 29.45     0.005 C 
BRANCH   9  10
ATOM     10  CD  LYS A 135      30.226  35.275   8.352  1.00 32.00     0.041 C 
BRANCH  10  11
ATOM     11  CE  LYS A 135      28.881  34.662   8.010  1.00 34.25     0.338 C 
ATOM     12  NZ  LYS A 135      28.226  35.395   6.891  1.00 35.99     0.618 N 
ENDBRANCH  10  11
ENDBRANCH   9  10
ENDBRANCH   8   9
ENDBRANCH   7   8
END_RES LYS A 135
