REMARK VINA RESULT:    -4.129      6.111     11.438
REMARK INTER + INTRA:         -13.524
REMARK INTER:                  -6.897
REMARK INTRA:                  -6.627
REMARK UNBOUND:                -6.136
REMARK SMILES CC(=O)N[C@@H]1[C@@H](O)C[C@](O)(C(=O)O)O[C@H]1C(O)[C@H](O)CNC(=O)OCc1cn(Cc2ccsc2)nn1
REMARK SMILES IDX 21 1 22 2 23 3 20 5 18 6 16 7 15 8 9 9 8 10 14 11 6 12 5 13
REMARK SMILES IDX 10 14 11 16 12 17 13 18 7 20 4 22 2 23 1 25 3 26 17 27 19 29
REMARK SMILES IDX 24 31 25 32 26 33 27 34 36 35 28 36 35 37 29 38 30 39 31 40
REMARK SMILES IDX 34 41 32 42 33 43
REMARK H PARENT 21 4 10 15 13 19 7 21 4 24 17 28 19 30
REMARK Flexibility Score: inf
ROOT
ATOM      1  N   UNL     1      26.443  29.890  18.231  1.00  0.00    -0.319 N 
ATOM      2  C   UNL     1      27.227  29.097  17.363  1.00  0.00     0.407 C 
ATOM      3  O   UNL     1      27.277  27.859  17.546  1.00  0.00    -0.225 OA
ATOM      4  H   UNL     1      26.436  30.938  18.024  1.00  0.00     0.167 HD
ENDROOT
BRANCH   1   5
ATOM      5  C   UNL     1      25.676  29.378  19.345  1.00  0.00     0.154 C 
BRANCH   5   6
ATOM      6  C   UNL     1      26.170  30.008  20.606  1.00  0.00     0.165 C 
BRANCH   6   7
ATOM      7  C   UNL     1      27.300  29.252  21.273  1.00  0.00     0.176 C 
BRANCH   7   8
ATOM      8  C   UNL     1      28.545  30.071  21.196  1.00  0.00     0.178 C 
ATOM      9  C   UNL     1      29.987  31.165  19.758  1.00  0.00     0.269 C 
ATOM     10  C   UNL     1      30.775  31.391  21.026  1.00  0.00     0.112 C 
ATOM     11  O   UNL     1      28.694  30.744  20.000  1.00  0.00    -0.332 OA
ATOM     12  C   UNL     1      30.869  30.175  21.886  1.00  0.00     0.145 C 
ATOM     13  C   UNL     1      29.783  29.205  21.471  1.00  0.00     0.142 C 
BRANCH   9  14
ATOM     14  O   UNL     1      30.670  30.344  18.859  1.00  0.00    -0.357 OA
ATOM     15  H   UNL     1      30.047  30.010  18.174  1.00  0.00     0.214 HD
ENDBRANCH   9  14
BRANCH   9  16
ATOM     16  C   UNL     1      29.876  32.513  19.093  1.00  0.00     0.364 C 
ATOM     17  O   UNL     1      28.840  33.190  19.105  1.00  0.00    -0.246 OA
BRANCH  16  18
ATOM     18  O   UNL     1      30.988  33.028  18.429  1.00  0.00    -0.477 OA
ATOM     19  H   UNL     1      31.001  33.945  18.001  1.00  0.00     0.296 HD
ENDBRANCH  16  18
ENDBRANCH   9  16
BRANCH  12  20
ATOM     20  O   UNL     1      32.119  29.596  21.908  1.00  0.00    -0.391 OA
ATOM     21  H   UNL     1      32.134  28.722  21.408  1.00  0.00     0.211 HD
ENDBRANCH  12  20
BRANCH  13  22
ATOM     22  N   UNL     1      29.486  28.232  22.489  1.00  0.00    -0.348 N 
ATOM     23  C   UNL     1      30.141  26.958  22.501  1.00  0.00     0.217 C 
ATOM     24  H   UNL     1      28.792  28.412  23.248  1.00  0.00     0.163 HD
ATOM     25  C   UNL     1      29.894  25.916  23.501  1.00  0.00     0.114 C 
ATOM     26  O   UNL     1      30.994  26.715  21.584  1.00  0.00    -0.275 OA
ENDBRANCH  13  22
ENDBRANCH   7   8
BRANCH   7  27
ATOM     27  O   UNL     1      27.460  28.068  20.550  1.00  0.00    -0.388 OA
ATOM     28  H   UNL     1      27.079  27.315  21.064  1.00  0.00     0.211 HD
ENDBRANCH   7  27
ENDBRANCH   6   7
BRANCH   6  29
ATOM     29  O   UNL     1      25.104  30.009  21.521  1.00  0.00    -0.388 OA
ATOM     30  H   UNL     1      24.373  30.607  21.252  1.00  0.00     0.211 HD
ENDBRANCH   6  29
ENDBRANCH   5   6
ENDBRANCH   1   5
BRANCH   2  31
ATOM     31  O   UNL     1      27.936  29.709  16.309  1.00  0.00    -0.443 OA
BRANCH  31  32
ATOM     32  C   UNL     1      27.724  31.108  16.173  1.00  0.00     0.294 C 
BRANCH  32  33
ATOM     33  C   UNL     1      28.997  31.726  15.779  1.00  0.00     0.120 A 
ATOM     34  C   UNL     1      29.192  32.928  15.117  1.00  0.00     0.138 A 
ATOM     35  N   UNL     1      30.227  31.214  16.000  1.00  0.00    -0.132 NA
ATOM     36  N   UNL     1      30.516  33.073  14.977  1.00  0.00    -0.248 N 
ATOM     37  N   UNL     1      31.147  32.043  15.508  1.00  0.00    -0.067 NA
BRANCH  36  38
ATOM     38  C   UNL     1      31.161  34.189  14.341  1.00  0.00     0.182 C 
BRANCH  38  39
ATOM     39  C   UNL     1      31.630  35.202  15.384  1.00  0.00    -0.016 A 
ATOM     40  C   UNL     1      32.744  35.024  16.086  1.00  0.00     0.017 A 
ATOM     41  C   UNL     1      30.859  36.325  15.583  1.00  0.00     0.070 A 
ATOM     42  C   UNL     1      33.126  35.959  17.009  1.00  0.00     0.065 A 
ATOM     43  S   UNL     1      31.813  37.191  16.881  1.00  0.00    -0.152 S 
ENDBRANCH  38  39
ENDBRANCH  36  38
ENDBRANCH  32  33
ENDBRANCH  31  32
ENDBRANCH   2  31
TORSDOF 16
BEGIN_RES LYS A 131
REMARK  4 active torsions:
REMARK  status: ('A' for Active; 'I' for Inactive)
REMARK    1  A    between atoms: CA   and  CB  
REMARK    2  A    between atoms: CB   and  CG  
REMARK    3  A    between atoms: CG   and  CD  
REMARK    4  A    between atoms: CD   and  CE  
ROOT
ATOM      1  CA  LYS A 131      29.867  25.555  16.977  1.00 20.52     0.186 C 
ENDROOT
BRANCH   1   2
ATOM      2  CB  LYS A 131      28.345  25.722  17.026  1.00 20.94     0.034 C 
BRANCH   2   3
ATOM      3  CG  LYS A 131      27.601  24.402  16.892  1.00 22.96     0.005 C 
BRANCH   3   4
ATOM      4  CD  LYS A 131      26.647  24.171  18.031  1.00 24.33     0.041 C 
BRANCH   4   5
ATOM      5  CE  LYS A 131      25.352  24.934  17.773  1.00 26.91     0.338 C 
ATOM      6  NZ  LYS A 131      24.967  25.723  18.968  1.00 27.40     0.618 N 
ENDBRANCH   4   5
ENDBRANCH   3   4
ENDBRANCH   2   3
ENDBRANCH   1   2
END_RES LYS A 131
BEGIN_RES LYS A 135
REMARK  4 active torsions:
REMARK  status: ('A' for Active; 'I' for Inactive)
REMARK    5  A    between atoms: CA   and  CB  
REMARK    6  A    between atoms: CB   and  CG  
REMARK    7  A    between atoms: CG   and  CD  
REMARK    8  A    between atoms: CD   and  CE  
ROOT
ATOM      7  CA  LYS A 135      33.193  34.663   9.290  1.00 25.02     0.186 C 
ENDROOT
BRANCH   7   8
ATOM      8  CB  LYS A 135      32.060  35.360  10.034  1.00 26.63     0.034 C 
BRANCH   8   9
ATOM      9  CG  LYS A 135      30.712  34.726   9.809  1.00 29.45     0.005 C 
BRANCH   9  10
ATOM     10  CD  LYS A 135      30.487  34.454   8.330  1.00 32.00     0.041 C 
BRANCH  10  11
ATOM     11  CE  LYS A 135      29.396  35.354   7.782  1.00 34.25     0.338 C 
ATOM     12  NZ  LYS A 135      28.048  34.763   8.008  1.00 35.99     0.618 N 
ENDBRANCH  10  11
ENDBRANCH   9  10
ENDBRANCH   8   9
ENDBRANCH   7   8
END_RES LYS A 135
