REMARK VINA RESULT:    -4.397      2.656      4.523
REMARK INTER + INTRA:         -14.101
REMARK INTER:                  -7.952
REMARK INTRA:                  -6.150
REMARK UNBOUND:                -6.490
REMARK SMILES CC(=O)N[C@@H]1[C@@H](O)C[C@](O)(C(=O)O)O[C@H]1C(O)[C@H](O)CNC(=O)OCc1cn(-c2ccc3[nH]ncc3c2)nn1
REMARK SMILES IDX 20 1 18 2 16 3 15 4 9 5 8 6 14 7 6 8 5 9 10 10 11 12 12 13
REMARK SMILES IDX 13 14 7 16 4 18 2 19 1 21 3 22 17 23 19 25 21 27 22 28 23 30
REMARK SMILES IDX 24 31 25 32 26 33 27 34 39 35 28 36 38 37 29 38 30 39 37 40
REMARK SMILES IDX 31 41 36 42 32 43 35 44 33 45 34 46
REMARK H PARENT 10 11 13 15 7 17 4 20 17 24 19 26 21 29 33 47
REMARK Flexibility Score: inf
ROOT
ATOM      1  C   UNL     1      26.011  36.771  14.882  1.00  0.00     0.154 C 
ENDROOT
BRANCH   1   2
ATOM      2  C   UNL     1      27.073  35.799  14.603  1.00  0.00     0.165 C 
BRANCH   2   3
ATOM      3  C   UNL     1      28.465  36.416  14.864  1.00  0.00     0.176 C 
BRANCH   3   4
ATOM      4  C   UNL     1      29.368  36.343  13.712  1.00  0.00     0.178 C 
ATOM      5  C   UNL     1      31.411  35.535  14.512  1.00  0.00     0.269 C 
ATOM      6  C   UNL     1      31.708  36.954  14.907  1.00  0.00     0.112 C 
ATOM      7  O   UNL     1      30.330  35.377  13.696  1.00  0.00    -0.332 OA
ATOM      8  C   UNL     1      31.296  37.961  13.892  1.00  0.00     0.145 C 
ATOM      9  C   UNL     1      29.929  37.720  13.336  1.00  0.00     0.142 C 
BRANCH   5  10
ATOM     10  O   UNL     1      31.253  34.762  15.662  1.00  0.00    -0.357 OA
ATOM     11  H   UNL     1      31.761  33.915  15.616  1.00  0.00     0.214 HD
ENDBRANCH   5  10
BRANCH   5  12
ATOM     12  C   UNL     1      32.600  35.032  13.786  1.00  0.00     0.364 C 
ATOM     13  O   UNL     1      33.642  34.765  14.407  1.00  0.00    -0.246 OA
BRANCH  12  14
ATOM     14  O   UNL     1      32.548  34.862  12.419  1.00  0.00    -0.477 OA
ATOM     15  H   UNL     1      33.202  34.259  11.900  1.00  0.00     0.296 HD
ENDBRANCH  12  14
ENDBRANCH   5  12
BRANCH   8  16
ATOM     16  O   UNL     1      31.391  39.235  14.484  1.00  0.00    -0.391 OA
ATOM     17  H   UNL     1      31.179  39.096  15.438  1.00  0.00     0.211 HD
ENDBRANCH   8  16
BRANCH   9  18
ATOM     18  N   UNL     1      29.840  37.970  11.922  1.00  0.00    -0.348 N 
ATOM     19  C   UNL     1      28.607  38.250  11.273  1.00  0.00     0.217 C 
ATOM     20  H   UNL     1      30.721  37.949  11.324  1.00  0.00     0.163 HD
ATOM     21  C   UNL     1      28.568  38.499   9.820  1.00  0.00     0.114 C 
ATOM     22  O   UNL     1      27.557  38.279  11.964  1.00  0.00    -0.275 OA
ENDBRANCH   9  18
ENDBRANCH   3   4
BRANCH   3  23
ATOM     23  O   UNL     1      28.110  37.807  14.998  1.00  0.00    -0.388 OA
ATOM     24  H   UNL     1      27.137  37.897  15.122  1.00  0.00     0.211 HD
ENDBRANCH   3  23
ENDBRANCH   2   3
BRANCH   2  25
ATOM     25  O   UNL     1      27.050  35.621  13.167  1.00  0.00    -0.388 OA
ATOM     26  H   UNL     1      27.626  34.841  12.933  1.00  0.00     0.211 HD
ENDBRANCH   2  25
ENDBRANCH   1   2
BRANCH   1  27
ATOM     27  N   UNL     1      25.190  37.164  13.771  1.00  0.00    -0.319 N 
ATOM     28  C   UNL     1      23.781  36.987  13.776  1.00  0.00     0.407 C 
ATOM     29  H   UNL     1      25.605  37.636  12.953  1.00  0.00     0.167 HD
ATOM     30  O   UNL     1      23.251  36.468  14.792  1.00  0.00    -0.225 OA
BRANCH  28  31
ATOM     31  O   UNL     1      22.963  37.348  12.731  1.00  0.00    -0.443 OA
BRANCH  31  32
ATOM     32  C   UNL     1      22.579  36.490  11.673  1.00  0.00     0.294 C 
BRANCH  32  33
ATOM     33  C   UNL     1      23.799  36.225  10.838  1.00  0.00     0.121 A 
ATOM     34  C   UNL     1      24.187  36.845   9.670  1.00  0.00     0.144 A 
ATOM     35  N   UNL     1      24.771  35.302  11.085  1.00  0.00    -0.131 NA
ATOM     36  N   UNL     1      25.360  36.266   9.281  1.00  0.00    -0.220 N 
ATOM     37  N   UNL     1      25.689  35.335  10.157  1.00  0.00    -0.062 NA
BRANCH  36  38
ATOM     38  C   UNL     1      26.086  36.626   8.117  1.00  0.00     0.067 A 
ATOM     39  C   UNL     1      26.892  35.687   7.502  1.00  0.00     0.030 A 
ATOM     40  C   UNL     1      26.036  37.882   7.550  1.00  0.00     0.040 A 
ATOM     41  C   UNL     1      27.621  35.979   6.369  1.00  0.00     0.030 A 
ATOM     42  C   UNL     1      26.749  38.193   6.429  1.00  0.00     0.022 A 
ATOM     43  C   UNL     1      27.561  37.244   5.810  1.00  0.00     0.065 A 
ATOM     44  C   UNL     1      26.885  39.332   5.670  1.00  0.00     0.143 A 
ATOM     45  N   UNL     1      28.139  37.814   4.741  1.00  0.00    -0.278 N 
ATOM     46  N   UNL     1      27.744  39.063   4.645  1.00  0.00    -0.183 NA
ATOM     47  H   UNL     1      28.794  37.334   4.096  1.00  0.00     0.190 HD
ENDBRANCH  36  38
ENDBRANCH  32  33
ENDBRANCH  31  32
ENDBRANCH  28  31
ENDBRANCH   1  27
TORSDOF 15
BEGIN_RES LYS A 131
REMARK  4 active torsions:
REMARK  status: ('A' for Active; 'I' for Inactive)
REMARK    1  A    between atoms: CA   and  CB  
REMARK    2  A    between atoms: CB   and  CG  
REMARK    3  A    between atoms: CG   and  CD  
REMARK    4  A    between atoms: CD   and  CE  
ROOT
ATOM      1  CA  LYS A 131      29.867  25.555  16.977  1.00 20.52     0.186 C 
ENDROOT
BRANCH   1   2
ATOM      2  CB  LYS A 131      28.345  25.722  17.026  1.00 20.94     0.034 C 
BRANCH   2   3
ATOM      3  CG  LYS A 131      27.601  24.403  16.885  1.00 22.96     0.005 C 
BRANCH   3   4
ATOM      4  CD  LYS A 131      26.536  24.239  17.934  1.00 24.33     0.041 C 
BRANCH   4   5
ATOM      5  CE  LYS A 131      25.209  23.901  17.262  1.00 26.91     0.338 C 
ATOM      6  NZ  LYS A 131      24.789  22.522  17.607  1.00 27.40     0.618 N 
ENDBRANCH   4   5
ENDBRANCH   3   4
ENDBRANCH   2   3
ENDBRANCH   1   2
END_RES LYS A 131
BEGIN_RES LYS A 135
REMARK  4 active torsions:
REMARK  status: ('A' for Active; 'I' for Inactive)
REMARK    5  A    between atoms: CA   and  CB  
REMARK    6  A    between atoms: CB   and  CG  
REMARK    7  A    between atoms: CG   and  CD  
REMARK    8  A    between atoms: CD   and  CE  
ROOT
ATOM      7  CA  LYS A 135      33.193  34.663   9.290  1.00 25.02     0.186 C 
ENDROOT
BRANCH   7   8
ATOM      8  CB  LYS A 135      32.060  35.360  10.034  1.00 26.63     0.034 C 
BRANCH   8   9
ATOM      9  CG  LYS A 135      30.826  35.569   9.194  1.00 29.45     0.005 C 
BRANCH   9  10
ATOM     10  CD  LYS A 135      30.322  34.244   8.643  1.00 32.00     0.041 C 
BRANCH  10  11
ATOM     11  CE  LYS A 135      29.016  33.853   9.308  1.00 34.25     0.338 C 
ATOM     12  NZ  LYS A 135      28.852  34.545  10.617  1.00 35.99     0.618 N 
ENDBRANCH  10  11
ENDBRANCH   9  10
ENDBRANCH   8   9
ENDBRANCH   7   8
END_RES LYS A 135
