REMARK VINA RESULT:    -4.626      3.180      6.439
REMARK INTER + INTRA:         -14.832
REMARK INTER:                  -9.161
REMARK INTRA:                  -5.671
REMARK UNBOUND:                -5.744
REMARK SMILES CC(=O)N[C@@H]1[C@@H](O)C[C@](O)(C(=O)O)O[C@H]1C(O)[C@H](O)CNC(=O)OCc1cn([C@@H](CC(=O)O)C(=O)O)nn1
REMARK SMILES IDX 21 1 22 2 23 3 20 5 18 6 16 7 15 8 9 9 8 10 14 11 6 12 5 13
REMARK SMILES IDX 10 14 11 16 12 17 13 18 7 20 4 22 2 23 1 25 3 26 17 27 19 29
REMARK SMILES IDX 24 31 25 32 26 33 27 34 38 35 28 36 37 37 29 38 30 39 31 40
REMARK SMILES IDX 32 41 33 42 34 44 35 45 36 46
REMARK H PARENT 21 4 10 15 13 19 7 21 4 24 17 28 19 30 33 43 36 47
REMARK Flexibility Score: inf
ROOT
ATOM      1  N   UNL     1      30.681  37.558  12.016  1.00  0.00    -0.319 N 
ATOM      2  C   UNL     1      30.138  38.798  12.468  1.00  0.00     0.407 C 
ATOM      3  O   UNL     1      30.682  39.372  13.418  1.00  0.00    -0.225 OA
ATOM      4  H   UNL     1      30.165  37.127  11.204  1.00  0.00     0.167 HD
ENDROOT
BRANCH   1   5
ATOM      5  C   UNL     1      31.825  36.915  12.583  1.00  0.00     0.154 C 
BRANCH   5   6
ATOM      6  C   UNL     1      31.443  35.597  13.224  1.00  0.00     0.165 C 
BRANCH   6   7
ATOM      7  C   UNL     1      31.537  35.676  14.737  1.00  0.00     0.176 C 
BRANCH   7   8
ATOM      8  C   UNL     1      30.274  35.347  15.447  1.00  0.00     0.178 C 
ATOM      9  C   UNL     1      31.365  34.646  17.374  1.00  0.00     0.269 C 
ATOM     10  C   UNL     1      31.537  33.302  16.801  1.00  0.00     0.112 C 
ATOM     11  O   UNL     1      30.405  35.462  16.834  1.00  0.00    -0.332 OA
ATOM     12  C   UNL     1      30.669  32.890  15.679  1.00  0.00     0.145 C 
ATOM     13  C   UNL     1      29.773  33.965  15.131  1.00  0.00     0.142 C 
BRANCH   9  14
ATOM     14  O   UNL     1      32.573  35.387  17.306  1.00  0.00    -0.357 OA
ATOM     15  H   UNL     1      33.149  34.874  16.678  1.00  0.00     0.214 HD
ENDBRANCH   9  14
BRANCH   9  16
ATOM     16  C   UNL     1      31.074  34.570  18.832  1.00  0.00     0.364 C 
ATOM     17  O   UNL     1      30.214  35.268  19.417  1.00  0.00    -0.246 OA
BRANCH  16  18
ATOM     18  O   UNL     1      31.804  33.664  19.586  1.00  0.00    -0.477 OA
ATOM     19  H   UNL     1      31.876  33.736  20.609  1.00  0.00     0.296 HD
ENDBRANCH  16  18
ENDBRANCH   9  16
BRANCH  12  20
ATOM     20  O   UNL     1      31.429  32.348  14.647  1.00  0.00    -0.391 OA
ATOM     21  H   UNL     1      31.851  31.497  14.857  1.00  0.00     0.211 HD
ENDBRANCH  12  20
BRANCH  13  22
ATOM     22  N   UNL     1      28.407  33.821  15.690  1.00  0.00    -0.348 N 
ATOM     23  C   UNL     1      27.267  34.066  14.892  1.00  0.00     0.217 C 
ATOM     24  H   UNL     1      28.252  33.538  16.681  1.00  0.00     0.163 HD
ATOM     25  C   UNL     1      25.874  33.935  15.411  1.00  0.00     0.114 C 
ATOM     26  O   UNL     1      27.437  34.407  13.702  1.00  0.00    -0.275 OA
ENDBRANCH  13  22
ENDBRANCH   7   8
BRANCH   7  27
ATOM     27  O   UNL     1      31.864  37.044  14.961  1.00  0.00    -0.388 OA
ATOM     28  H   UNL     1      32.718  37.270  14.522  1.00  0.00     0.211 HD
ENDBRANCH   7  27
ENDBRANCH   6   7
BRANCH   6  29
ATOM     29  O   UNL     1      32.232  34.600  12.668  1.00  0.00    -0.388 OA
ATOM     30  H   UNL     1      31.711  33.835  12.320  1.00  0.00     0.211 HD
ENDBRANCH   6  29
ENDBRANCH   5   6
ENDBRANCH   1   5
BRANCH   2  31
ATOM     31  O   UNL     1      29.026  39.379  11.882  1.00  0.00    -0.443 OA
BRANCH  31  32
ATOM     32  C   UNL     1      29.171  40.195  10.747  1.00  0.00     0.294 C 
BRANCH  32  33
ATOM     33  C   UNL     1      28.895  39.471   9.483  1.00  0.00     0.120 A 
ATOM     34  C   UNL     1      28.118  38.339   9.429  1.00  0.00     0.139 A 
ATOM     35  N   UNL     1      29.292  39.723   8.238  1.00  0.00    -0.132 NA
ATOM     36  N   UNL     1      28.066  37.933   8.134  1.00  0.00    -0.237 N 
ATOM     37  N   UNL     1      28.780  38.786   7.457  1.00  0.00    -0.066 NA
BRANCH  36  38
ATOM     38  C   UNL     1      27.321  36.752   7.710  1.00  0.00     0.229 C 
BRANCH  38  39
ATOM     39  C   UNL     1      25.857  37.087   7.624  1.00  0.00     0.161 C 
BRANCH  39  40
ATOM     40  C   UNL     1      25.054  36.363   8.621  1.00  0.00     0.306 C 
ATOM     41  O   UNL     1      25.485  35.273   9.072  1.00  0.00    -0.252 OA
BRANCH  40  42
ATOM     42  O   UNL     1      23.845  36.898   9.038  1.00  0.00    -0.481 OA
ATOM     43  H   UNL     1      23.112  37.081   8.335  1.00  0.00     0.296 HD
ENDBRANCH  40  42
ENDBRANCH  39  40
ENDBRANCH  38  39
BRANCH  38  44
ATOM     44  C   UNL     1      27.767  36.387   6.337  1.00  0.00     0.329 C 
ATOM     45  O   UNL     1      28.647  35.524   6.093  1.00  0.00    -0.250 OA
BRANCH  44  46
ATOM     46  O   UNL     1      27.180  37.037   5.266  1.00  0.00    -0.480 OA
ATOM     47  H   UNL     1      26.400  37.675   5.373  1.00  0.00     0.296 HD
ENDBRANCH  44  46
ENDBRANCH  38  44
ENDBRANCH  36  38
ENDBRANCH  32  33
ENDBRANCH  31  32
ENDBRANCH   2  31
TORSDOF 20
BEGIN_RES LYS A 131
REMARK  4 active torsions:
REMARK  status: ('A' for Active; 'I' for Inactive)
REMARK    1  A    between atoms: CA   and  CB  
REMARK    2  A    between atoms: CB   and  CG  
REMARK    3  A    between atoms: CG   and  CD  
REMARK    4  A    between atoms: CD   and  CE  
ROOT
ATOM      1  CA  LYS A 131      29.867  25.555  16.977  1.00 20.52     0.186 C 
ENDROOT
BRANCH   1   2
ATOM      2  CB  LYS A 131      28.345  25.722  17.026  1.00 20.94     0.034 C 
BRANCH   2   3
ATOM      3  CG  LYS A 131      27.601  24.403  16.884  1.00 22.96     0.005 C 
BRANCH   3   4
ATOM      4  CD  LYS A 131      26.149  24.529  17.255  1.00 24.33     0.041 C 
BRANCH   4   5
ATOM      5  CE  LYS A 131      25.853  23.644  18.461  1.00 26.91     0.338 C 
ATOM      6  NZ  LYS A 131      25.040  22.472  18.057  1.00 27.40     0.618 N 
ENDBRANCH   4   5
ENDBRANCH   3   4
ENDBRANCH   2   3
ENDBRANCH   1   2
END_RES LYS A 131
BEGIN_RES LYS A 135
REMARK  4 active torsions:
REMARK  status: ('A' for Active; 'I' for Inactive)
REMARK    5  A    between atoms: CA   and  CB  
REMARK    6  A    between atoms: CB   and  CG  
REMARK    7  A    between atoms: CG   and  CD  
REMARK    8  A    between atoms: CD   and  CE  
ROOT
ATOM      7  CA  LYS A 135      33.193  34.663   9.290  1.00 25.02     0.186 C 
ENDROOT
BRANCH   7   8
ATOM      8  CB  LYS A 135      32.060  35.360  10.034  1.00 26.63     0.034 C 
BRANCH   8   9
ATOM      9  CG  LYS A 135      30.790  35.472   9.230  1.00 29.45     0.005 C 
BRANCH   9  10
ATOM     10  CD  LYS A 135      30.235  34.092   8.909  1.00 32.00     0.041 C 
BRANCH  10  11
ATOM     11  CE  LYS A 135      28.811  33.961   9.414  1.00 34.25     0.338 C 
ATOM     12  NZ  LYS A 135      28.568  34.860  10.576  1.00 35.99     0.618 N 
ENDBRANCH  10  11
ENDBRANCH   9  10
ENDBRANCH   8   9
ENDBRANCH   7   8
END_RES LYS A 135
