REMARK VINA RESULT:    -6.012      0.499      2.539
REMARK INTER + INTRA:         -16.488
REMARK INTER:                 -11.271
REMARK INTRA:                  -5.217
REMARK UNBOUND:                -6.084
REMARK SMILES CC(=O)N[C@@H]1[C@@H](O)C[C@](O)(C(=O)O)O[C@H]1C(O)[C@H](O)CNC(=O)OCc1cn(-c2c3ccccc3nc3ccccc23)nn1
REMARK SMILES IDX 20 1 18 2 16 3 15 4 9 5 8 6 14 7 6 8 5 9 10 10 11 12 12 13
REMARK SMILES IDX 13 14 7 16 4 18 2 19 1 21 3 22 17 23 19 25 21 27 22 28 23 30
REMARK SMILES IDX 24 31 25 32 26 33 27 34 44 35 28 36 43 37 29 38 30 39 42 40
REMARK SMILES IDX 31 41 35 42 37 43 41 44 32 45 34 46 36 47 38 48 40 49 33 50
REMARK SMILES IDX 39 51
REMARK H PARENT 10 11 13 15 7 17 4 20 17 24 19 26 21 29
REMARK Flexibility Score: inf
ROOT
ATOM      1  C   UNL     1      24.601  37.100   9.129  1.00  0.00     0.154 C 
ENDROOT
BRANCH   1   2
ATOM      2  C   UNL     1      25.713  37.262   8.127  1.00  0.00     0.165 C 
BRANCH   2   3
ATOM      3  C   UNL     1      26.892  37.812   8.867  1.00  0.00     0.176 C 
BRANCH   3   4
ATOM      4  C   UNL     1      28.110  38.059   7.989  1.00  0.00     0.178 C 
ATOM      5  C   UNL     1      28.865  39.582   6.490  1.00  0.00     0.269 C 
ATOM      6  C   UNL     1      29.186  38.595   5.399  1.00  0.00     0.112 C 
ATOM      7  O   UNL     1      27.827  39.187   7.270  1.00  0.00    -0.332 OA
ATOM      8  C   UNL     1      28.604  37.235   5.651  1.00  0.00     0.145 C 
ATOM      9  C   UNL     1      28.405  36.913   7.094  1.00  0.00     0.142 C 
BRANCH   5  10
ATOM     10  O   UNL     1      28.417  40.793   5.866  1.00  0.00    -0.357 OA
ATOM     11  H   UNL     1      27.713  40.580   5.207  1.00  0.00     0.214 HD
ENDBRANCH   5  10
BRANCH   5  12
ATOM     12  C   UNL     1      30.101  39.983   7.204  1.00  0.00     0.364 C 
ATOM     13  O   UNL     1      30.161  41.036   7.894  1.00  0.00    -0.246 OA
BRANCH  12  14
ATOM     14  O   UNL     1      31.280  39.222   7.158  1.00  0.00    -0.477 OA
ATOM     15  H   UNL     1      32.086  39.531   7.679  1.00  0.00     0.296 HD
ENDBRANCH  12  14
ENDBRANCH   5  12
BRANCH   8  16
ATOM     16  O   UNL     1      27.405  37.126   4.940  1.00  0.00    -0.391 OA
ATOM     17  H   UNL     1      27.504  37.457   4.012  1.00  0.00     0.211 HD
ENDBRANCH   8  16
BRANCH   9  18
ATOM     18  N   UNL     1      29.525  36.080   7.547  1.00  0.00    -0.348 N 
ATOM     19  C   UNL     1      29.336  34.860   8.251  1.00  0.00     0.217 C 
ATOM     20  H   UNL     1      30.517  36.353   7.369  1.00  0.00     0.163 HD
ATOM     21  C   UNL     1      30.490  34.022   8.703  1.00  0.00     0.114 C 
ATOM     22  O   UNL     1      28.172  34.457   8.510  1.00  0.00    -0.275 OA
ENDBRANCH   9  18
ENDBRANCH   3   4
BRANCH   3  23
ATOM     23  O   UNL     1      27.258  36.924   9.866  1.00  0.00    -0.388 OA
ATOM     24  H   UNL     1      26.668  37.086  10.643  1.00  0.00     0.211 HD
ENDBRANCH   3  23
ENDBRANCH   2   3
BRANCH   2  25
ATOM     25  O   UNL     1      25.303  38.055   7.082  1.00  0.00    -0.388 OA
ATOM     26  H   UNL     1      25.964  38.805   6.991  1.00  0.00     0.211 HD
ENDBRANCH   2  25
ENDBRANCH   1   2
BRANCH   1  27
ATOM     27  N   UNL     1      24.552  35.861   9.825  1.00  0.00    -0.319 N 
ATOM     28  C   UNL     1      23.880  35.649  11.047  1.00  0.00     0.407 C 
ATOM     29  H   UNL     1      25.047  34.980   9.439  1.00  0.00     0.167 HD
ATOM     30  O   UNL     1      23.270  36.569  11.629  1.00  0.00    -0.225 OA
BRANCH  28  31
ATOM     31  O   UNL     1      23.860  34.394  11.675  1.00  0.00    -0.443 OA
BRANCH  31  32
ATOM     32  C   UNL     1      24.497  34.208  12.939  1.00  0.00     0.294 C 
BRANCH  32  33
ATOM     33  C   UNL     1      25.925  34.572  12.779  1.00  0.00     0.121 A 
ATOM     34  C   UNL     1      26.756  35.086  13.752  1.00  0.00     0.144 A 
ATOM     35  N   UNL     1      26.711  34.486  11.679  1.00  0.00    -0.131 NA
ATOM     36  N   UNL     1      27.982  35.293  13.243  1.00  0.00    -0.219 N 
ATOM     37  N   UNL     1      27.934  34.922  11.982  1.00  0.00    -0.062 NA
BRANCH  36  38
ATOM     38  C   UNL     1      29.117  35.804  13.909  1.00  0.00     0.085 A 
ATOM     39  C   UNL     1      30.039  34.935  14.500  1.00  0.00     0.027 A 
ATOM     40  C   UNL     1      29.365  37.163  13.999  1.00  0.00     0.027 A 
ATOM     41  C   UNL     1      29.849  33.571  14.445  1.00  0.00     0.012 A 
ATOM     42  C   UNL     1      31.144  35.398  15.143  1.00  0.00     0.073 A 
ATOM     43  C   UNL     1      30.491  37.611  14.656  1.00  0.00     0.073 A 
ATOM     44  C   UNL     1      28.458  38.015  13.421  1.00  0.00     0.012 A 
ATOM     45  C   UNL     1      30.728  32.673  15.012  1.00  0.00     0.001 A 
ATOM     46  C   UNL     1      32.040  34.504  15.720  1.00  0.00     0.029 A 
ATOM     47  N   UNL     1      31.349  36.728  15.210  1.00  0.00    -0.248 NA
ATOM     48  C   UNL     1      30.694  38.969  14.722  1.00  0.00     0.029 A 
ATOM     49  C   UNL     1      28.693  39.389  13.506  1.00  0.00     0.001 A 
ATOM     50  C   UNL     1      31.868  33.138  15.676  1.00  0.00     0.002 A 
ATOM     51  C   UNL     1      29.806  39.880  14.153  1.00  0.00     0.002 A 
ENDBRANCH  36  38
ENDBRANCH  32  33
ENDBRANCH  31  32
ENDBRANCH  28  31
ENDBRANCH   1  27
TORSDOF 15
BEGIN_RES LYS A 131
REMARK  4 active torsions:
REMARK  status: ('A' for Active; 'I' for Inactive)
REMARK    1  A    between atoms: CA   and  CB  
REMARK    2  A    between atoms: CB   and  CG  
REMARK    3  A    between atoms: CG   and  CD  
REMARK    4  A    between atoms: CD   and  CE  
ROOT
ATOM      1  CA  LYS A 131      29.867  25.555  16.977  1.00 20.52     0.186 C 
ENDROOT
BRANCH   1   2
ATOM      2  CB  LYS A 131      28.345  25.722  17.026  1.00 20.94     0.034 C 
BRANCH   2   3
ATOM      3  CG  LYS A 131      27.602  24.399  16.927  1.00 22.96     0.005 C 
BRANCH   3   4
ATOM      4  CD  LYS A 131      26.177  24.513  17.394  1.00 24.33     0.041 C 
BRANCH   4   5
ATOM      5  CE  LYS A 131      25.721  23.175  17.968  1.00 26.91     0.338 C 
ATOM      6  NZ  LYS A 131      24.477  22.722  17.303  1.00 27.40     0.618 N 
ENDBRANCH   4   5
ENDBRANCH   3   4
ENDBRANCH   2   3
ENDBRANCH   1   2
END_RES LYS A 131
BEGIN_RES LYS A 135
REMARK  4 active torsions:
REMARK  status: ('A' for Active; 'I' for Inactive)
REMARK    5  A    between atoms: CA   and  CB  
REMARK    6  A    between atoms: CB   and  CG  
REMARK    7  A    between atoms: CG   and  CD  
REMARK    8  A    between atoms: CD   and  CE  
ROOT
ATOM      7  CA  LYS A 135      33.193  34.663   9.290  1.00 25.02     0.186 C 
ENDROOT
BRANCH   7   8
ATOM      8  CB  LYS A 135      32.060  35.360  10.034  1.00 26.63     0.034 C 
BRANCH   8   9
ATOM      9  CG  LYS A 135      32.402  35.713  11.459  1.00 29.45     0.005 C 
BRANCH   9  10
ATOM     10  CD  LYS A 135      32.241  37.206  11.695  1.00 32.00     0.041 C 
BRANCH  10  11
ATOM     11  CE  LYS A 135      31.829  37.907  10.415  1.00 34.25     0.338 C 
ATOM     12  NZ  LYS A 135      30.499  38.560  10.564  1.00 35.99     0.618 N 
ENDBRANCH  10  11
ENDBRANCH   9  10
ENDBRANCH   8   9
ENDBRANCH   7   8
END_RES LYS A 135
