REMARK VINA RESULT:    -5.485      4.606      8.321
REMARK INTER + INTRA:         -13.888
REMARK INTER:                  -8.480
REMARK INTRA:                  -5.408
REMARK UNBOUND:                -4.396
REMARK SMILES CC(=O)N[C@@H]1[C@@H](O)C[C@](O)(C(=O)O)O[C@H]1C(O)[C@H](O)CNC(=O)OCc1cn(-c2ccccc2Br)nn1
REMARK SMILES IDX 20 1 18 2 16 3 15 4 9 5 8 6 14 7 6 8 5 9 10 10 11 12 12 13
REMARK SMILES IDX 13 14 7 16 4 18 2 19 1 21 3 22 17 23 19 25 21 27 22 28 23 30
REMARK SMILES IDX 24 31 25 32 26 33 27 34 37 35 28 36 36 37 29 38 30 39 34 40
REMARK SMILES IDX 31 41 33 42 35 43 32 44
REMARK H PARENT 10 11 13 15 7 17 4 20 17 24 19 26 21 29
REMARK Flexibility Score: inf
ROOT
ATOM      1  C   UNL     1      32.381  36.125  19.533  1.00  0.00     0.154 C 
ENDROOT
BRANCH   1   2
ATOM      2  C   UNL     1      31.874  36.494  18.163  1.00  0.00     0.165 C 
BRANCH   2   3
ATOM      3  C   UNL     1      32.128  35.337  17.248  1.00  0.00     0.176 C 
BRANCH   3   4
ATOM      4  C   UNL     1      31.043  35.050  16.237  1.00  0.00     0.178 C 
ATOM      5  C   UNL     1      29.732  33.264  17.004  1.00  0.00     0.269 C 
ATOM      6  C   UNL     1      29.352  32.890  15.570  1.00  0.00     0.112 C 
ATOM      7  O   UNL     1      29.961  34.599  16.981  1.00  0.00    -0.332 OA
ATOM      8  C   UNL     1      30.620  33.013  14.776  1.00  0.00     0.145 C 
ATOM      9  C   UNL     1      31.437  34.241  15.079  1.00  0.00     0.142 C 
BRANCH   5  10
ATOM     10  O   UNL     1      30.778  32.453  17.363  1.00  0.00    -0.357 OA
ATOM     11  H   UNL     1      30.447  31.520  17.371  1.00  0.00     0.214 HD
ENDBRANCH   5  10
BRANCH   5  12
ATOM     12  C   UNL     1      28.580  32.973  17.901  1.00  0.00     0.364 C 
ATOM     13  O   UNL     1      28.158  31.793  17.988  1.00  0.00    -0.246 OA
BRANCH  12  14
ATOM     14  O   UNL     1      27.963  33.975  18.642  1.00  0.00    -0.477 OA
ATOM     15  H   UNL     1      26.956  34.034  18.767  1.00  0.00     0.296 HD
ENDBRANCH  12  14
ENDBRANCH   5  12
BRANCH   8  16
ATOM     16  O   UNL     1      31.373  31.871  15.055  1.00  0.00    -0.391 OA
ATOM     17  H   UNL     1      32.214  31.867  14.566  1.00  0.00     0.211 HD
ENDBRANCH   8  16
BRANCH   9  18
ATOM     18  N   UNL     1      31.421  35.109  13.882  1.00  0.00    -0.348 N 
ATOM     19  C   UNL     1      32.616  35.485  13.230  1.00  0.00     0.217 C 
ATOM     20  H   UNL     1      30.500  35.464  13.493  1.00  0.00     0.163 HD
ATOM     21  C   UNL     1      32.608  36.374  12.019  1.00  0.00     0.114 C 
ATOM     22  O   UNL     1      33.703  35.054  13.691  1.00  0.00    -0.275 OA
ENDBRANCH   9  18
ENDBRANCH   3   4
BRANCH   3  23
ATOM     23  O   UNL     1      33.401  35.387  16.741  1.00  0.00    -0.388 OA
ATOM     24  H   UNL     1      33.814  34.477  16.638  1.00  0.00     0.211 HD
ENDBRANCH   3  23
ENDBRANCH   2   3
BRANCH   2  25
ATOM     25  O   UNL     1      32.506  37.625  17.712  1.00  0.00    -0.388 OA
ATOM     26  H   UNL     1      32.411  37.756  16.729  1.00  0.00     0.211 HD
ENDBRANCH   2  25
ENDBRANCH   1   2
BRANCH   1  27
ATOM     27  N   UNL     1      33.558  35.327  19.589  1.00  0.00    -0.319 N 
ATOM     28  C   UNL     1      34.700  35.645  20.356  1.00  0.00     0.407 C 
ATOM     29  H   UNL     1      33.618  34.416  19.023  1.00  0.00     0.167 HD
ATOM     30  O   UNL     1      34.794  36.677  21.060  1.00  0.00    -0.225 OA
BRANCH  28  31
ATOM     31  O   UNL     1      35.789  34.761  20.332  1.00  0.00    -0.443 OA
BRANCH  31  32
ATOM     32  C   UNL     1      37.020  35.262  19.863  1.00  0.00     0.294 C 
BRANCH  32  33
ATOM     33  C   UNL     1      36.895  35.486  18.402  1.00  0.00     0.121 A 
ATOM     34  C   UNL     1      37.763  34.950  17.441  1.00  0.00     0.144 A 
ATOM     35  N   UNL     1      36.015  36.192  17.682  1.00  0.00    -0.131 NA
ATOM     36  N   UNL     1      37.384  35.343  16.212  1.00  0.00    -0.219 N 
ATOM     37  N   UNL     1      36.315  36.100  16.390  1.00  0.00    -0.062 NA
BRANCH  36  38
ATOM     38  C   UNL     1      38.021  35.000  14.982  1.00  0.00     0.081 A 
ATOM     39  C   UNL     1      37.642  33.894  14.253  1.00  0.00     0.029 A 
ATOM     40  C   UNL     1      39.046  35.768  14.473  1.00  0.00     0.043 A 
ATOM     41  C   UNL     1      38.276  33.573  13.052  1.00  0.00     0.002 A 
ATOM     42  C   UNL     1      39.678  35.453  13.281  1.00  0.00     0.018 A 
ATOM     43  Br  UNL     1      39.582  37.311  15.481  1.00  0.00    -0.048 Br
ATOM     44  C   UNL     1      39.301  34.347  12.549  1.00  0.00     0.001 A 
ENDBRANCH  36  38
ENDBRANCH  32  33
ENDBRANCH  31  32
ENDBRANCH  28  31
ENDBRANCH   1  27
TORSDOF 15
BEGIN_RES LYS A 131
REMARK  4 active torsions:
REMARK  status: ('A' for Active; 'I' for Inactive)
REMARK    1  A    between atoms: CA   and  CB  
REMARK    2  A    between atoms: CB   and  CG  
REMARK    3  A    between atoms: CG   and  CD  
REMARK    4  A    between atoms: CD   and  CE  
ROOT
ATOM      1  CA  LYS A 131      29.867  25.555  16.977  1.00 20.52     0.186 C 
ENDROOT
BRANCH   1   2
ATOM      2  CB  LYS A 131      28.345  25.722  17.026  1.00 20.94     0.034 C 
BRANCH   2   3
ATOM      3  CG  LYS A 131      27.601  24.400  16.908  1.00 22.96     0.005 C 
BRANCH   3   4
ATOM      4  CD  LYS A 131      26.481  24.290  17.904  1.00 24.33     0.041 C 
BRANCH   4   5
ATOM      5  CE  LYS A 131      26.201  25.661  18.510  1.00 26.91     0.338 C 
ATOM      6  NZ  LYS A 131      25.101  25.577  19.499  1.00 27.40     0.618 N 
ENDBRANCH   4   5
ENDBRANCH   3   4
ENDBRANCH   2   3
ENDBRANCH   1   2
END_RES LYS A 131
BEGIN_RES LYS A 135
REMARK  4 active torsions:
REMARK  status: ('A' for Active; 'I' for Inactive)
REMARK    5  A    between atoms: CA   and  CB  
REMARK    6  A    between atoms: CB   and  CG  
REMARK    7  A    between atoms: CG   and  CD  
REMARK    8  A    between atoms: CD   and  CE  
ROOT
ATOM      7  CA  LYS A 135      33.193  34.663   9.290  1.00 25.02     0.186 C 
ENDROOT
BRANCH   7   8
ATOM      8  CB  LYS A 135      32.060  35.360  10.034  1.00 26.63     0.034 C 
BRANCH   8   9
ATOM      9  CG  LYS A 135      30.874  35.681   9.162  1.00 29.45     0.005 C 
BRANCH   9  10
ATOM     10  CD  LYS A 135      30.319  34.416   8.524  1.00 32.00     0.041 C 
BRANCH  10  11
ATOM     11  CE  LYS A 135      29.017  34.012   9.188  1.00 34.25     0.338 C 
ATOM     12  NZ  LYS A 135      27.844  34.509   8.416  1.00 35.99     0.618 N 
ENDBRANCH  10  11
ENDBRANCH   9  10
ENDBRANCH   8   9
ENDBRANCH   7   8
END_RES LYS A 135
