REMARK VINA RESULT:    -4.549      3.322      6.452
REMARK INTER + INTRA:         -14.429
REMARK INTER:                  -9.177
REMARK INTRA:                  -5.252
REMARK UNBOUND:                -6.555
REMARK SMILES CC(=O)N[C@@H]1[C@@H](O)C[C@](O)(C(=O)O)O[C@H]1C(O)[C@H](O)CNC(=O)OCc1cn([C@H]2C[C@H]3CC[C@@H](C2)N3C)nn1
REMARK SMILES IDX 20 1 18 2 16 3 15 4 9 5 8 6 14 7 6 8 5 9 10 10 11 12 12 13
REMARK SMILES IDX 13 14 7 16 4 18 2 19 1 21 3 22 17 23 19 25 21 27 22 28 23 30
REMARK SMILES IDX 24 31 25 32 26 33 27 34 39 35 28 36 38 37 29 38 35 39 30 40
REMARK SMILES IDX 34 41 31 42 36 43 33 44 32 45 37 46
REMARK H PARENT 10 11 13 15 7 17 4 20 17 24 19 26 21 29
REMARK Flexibility Score: inf
ROOT
ATOM      1  C   UNL     1      31.064  32.132  15.797  1.00  0.00     0.154 C 
ENDROOT
BRANCH   1   2
ATOM      2  C   UNL     1      30.324  31.079  16.549  1.00  0.00     0.165 C 
BRANCH   2   3
ATOM      3  C   UNL     1      28.907  30.895  16.103  1.00  0.00     0.176 C 
BRANCH   3   4
ATOM      4  C   UNL     1      27.974  30.563  17.244  1.00  0.00     0.178 C 
ATOM      5  C   UNL     1      27.149  28.769  18.448  1.00  0.00     0.269 C 
ATOM      6  C   UNL     1      26.325  29.884  19.033  1.00  0.00     0.112 C 
ATOM      7  O   UNL     1      28.108  29.216  17.552  1.00  0.00    -0.332 OA
ATOM      8  C   UNL     1      25.678  30.758  18.002  1.00  0.00     0.145 C 
ATOM      9  C   UNL     1      26.548  30.771  16.775  1.00  0.00     0.142 C 
BRANCH   5  10
ATOM     10  O   UNL     1      26.365  27.769  17.875  1.00  0.00    -0.357 OA
ATOM     11  H   UNL     1      26.916  26.982  17.654  1.00  0.00     0.214 HD
ENDBRANCH   5  10
BRANCH   5  12
ATOM     12  C   UNL     1      27.888  28.132  19.583  1.00  0.00     0.364 C 
ATOM     13  O   UNL     1      28.016  28.739  20.699  1.00  0.00    -0.246 OA
BRANCH  12  14
ATOM     14  O   UNL     1      28.460  26.884  19.498  1.00  0.00    -0.477 OA
ATOM     15  H   UNL     1      28.277  26.331  18.652  1.00  0.00     0.296 HD
ENDBRANCH  12  14
ENDBRANCH   5  12
BRANCH   8  16
ATOM     16  O   UNL     1      24.363  30.445  17.752  1.00  0.00    -0.391 OA
ATOM     17  H   UNL     1      23.957  31.206  17.260  1.00  0.00     0.211 HD
ENDBRANCH   8  16
BRANCH   9  18
ATOM     18  N   UNL     1      26.399  31.966  15.983  1.00  0.00    -0.348 N 
ATOM     19  C   UNL     1      25.478  32.055  14.896  1.00  0.00     0.217 C 
ATOM     20  H   UNL     1      26.971  32.817  16.185  1.00  0.00     0.163 HD
ATOM     21  C   UNL     1      25.373  33.309  14.124  1.00  0.00     0.114 C 
ATOM     22  O   UNL     1      24.783  31.046  14.638  1.00  0.00    -0.275 OA
ENDBRANCH   9  18
ENDBRANCH   3   4
BRANCH   3  23
ATOM     23  O   UNL     1      28.852  29.847  15.186  1.00  0.00    -0.388 OA
ATOM     24  H   UNL     1      28.684  30.159  14.279  1.00  0.00     0.211 HD
ENDBRANCH   3  23
ENDBRANCH   2   3
BRANCH   2  25
ATOM     25  O   UNL     1      30.310  31.361  17.934  1.00  0.00    -0.388 OA
ATOM     26  H   UNL     1      30.992  32.080  18.058  1.00  0.00     0.211 HD
ENDBRANCH   2  25
ENDBRANCH   1   2
BRANCH   1  27
ATOM     27  N   UNL     1      30.320  32.624  14.663  1.00  0.00    -0.319 N 
ATOM     28  C   UNL     1      29.524  33.792  14.795  1.00  0.00     0.407 C 
ATOM     29  H   UNL     1      30.336  32.157  13.725  1.00  0.00     0.167 HD
ATOM     30  O   UNL     1      29.425  34.440  15.872  1.00  0.00    -0.225 OA
BRANCH  28  31
ATOM     31  O   UNL     1      28.787  34.312  13.731  1.00  0.00    -0.443 OA
BRANCH  31  32
ATOM     32  C   UNL     1      29.391  34.955  12.627  1.00  0.00     0.294 C 
BRANCH  32  33
ATOM     33  C   UNL     1      28.346  35.552  11.751  1.00  0.00     0.120 A 
ATOM     34  C   UNL     1      27.272  34.869  11.220  1.00  0.00     0.138 A 
ATOM     35  N   UNL     1      28.217  36.815  11.308  1.00  0.00    -0.132 NA
ATOM     36  N   UNL     1      26.523  35.727  10.473  1.00  0.00    -0.249 N 
ATOM     37  N   UNL     1      27.142  36.892  10.561  1.00  0.00    -0.067 NA
BRANCH  36  38
ATOM     38  C   UNL     1      25.301  35.417   9.736  1.00  0.00     0.112 C 
ATOM     39  C   UNL     1      25.086  36.486   8.730  1.00  0.00     0.046 C 
ATOM     40  C   UNL     1      24.206  35.241  10.727  1.00  0.00     0.046 C 
ATOM     41  C   UNL     1      23.667  36.807   8.426  1.00  0.00     0.058 C 
ATOM     42  C   UNL     1      22.921  35.936  10.359  1.00  0.00     0.058 C 
ATOM     43  N   UNL     1      22.757  35.800   8.922  1.00  0.00    -0.300 NA
ATOM     44  C   UNL     1      23.273  38.023   9.250  1.00  0.00     0.021 C 
ATOM     45  C   UNL     1      23.093  37.410  10.624  1.00  0.00     0.021 C 
ATOM     46  C   UNL     1      21.411  36.093   8.498  1.00  0.00     0.105 C 
ENDBRANCH  36  38
ENDBRANCH  32  33
ENDBRANCH  31  32
ENDBRANCH  28  31
ENDBRANCH   1  27
TORSDOF 15
BEGIN_RES LYS A 131
REMARK  4 active torsions:
REMARK  status: ('A' for Active; 'I' for Inactive)
REMARK    1  A    between atoms: CA   and  CB  
REMARK    2  A    between atoms: CB   and  CG  
REMARK    3  A    between atoms: CG   and  CD  
REMARK    4  A    between atoms: CD   and  CE  
ROOT
ATOM      1  CA  LYS A 131      29.867  25.555  16.977  1.00 20.52     0.186 C 
ENDROOT
BRANCH   1   2
ATOM      2  CB  LYS A 131      28.345  25.722  17.026  1.00 20.94     0.034 C 
BRANCH   2   3
ATOM      3  CG  LYS A 131      27.599  24.428  16.741  1.00 22.96     0.005 C 
BRANCH   3   4
ATOM      4  CD  LYS A 131      26.942  23.869  17.972  1.00 24.33     0.041 C 
BRANCH   4   5
ATOM      5  CE  LYS A 131      25.561  23.332  17.614  1.00 26.91     0.338 C 
ATOM      6  NZ  LYS A 131      24.772  24.364  16.900  1.00 27.40     0.618 N 
ENDBRANCH   4   5
ENDBRANCH   3   4
ENDBRANCH   2   3
ENDBRANCH   1   2
END_RES LYS A 131
BEGIN_RES LYS A 135
REMARK  4 active torsions:
REMARK  status: ('A' for Active; 'I' for Inactive)
REMARK    5  A    between atoms: CA   and  CB  
REMARK    6  A    between atoms: CB   and  CG  
REMARK    7  A    between atoms: CG   and  CD  
REMARK    8  A    between atoms: CD   and  CE  
ROOT
ATOM      7  CA  LYS A 135      33.193  34.663   9.290  1.00 25.02     0.186 C 
ENDROOT
BRANCH   7   8
ATOM      8  CB  LYS A 135      32.060  35.360  10.034  1.00 26.63     0.034 C 
BRANCH   8   9
ATOM      9  CG  LYS A 135      30.894  35.724   9.152  1.00 29.45     0.005 C 
BRANCH   9  10
ATOM     10  CD  LYS A 135      30.458  34.528   8.318  1.00 32.00     0.041 C 
BRANCH  10  11
ATOM     11  CE  LYS A 135      28.956  34.542   8.112  1.00 34.25     0.338 C 
ATOM     12  NZ  LYS A 135      28.547  35.657   7.214  1.00 35.99     0.618 N 
ENDBRANCH  10  11
ENDBRANCH   9  10
ENDBRANCH   8   9
ENDBRANCH   7   8
END_RES LYS A 135
