REMARK VINA RESULT:    -6.740      4.006      7.881
REMARK INTER + INTRA:         -16.243
REMARK INTER:                 -10.217
REMARK INTRA:                  -6.026
REMARK UNBOUND:                -4.578
REMARK SMILES CC(=O)N[C@@H]1[C@@H](O)C[C@](O)(C(=O)O)O[C@H]1C(O)[C@H](O)CNC(=O)OCc1cn(C2c3ccccc3-c3ccccc32)nn1
REMARK SMILES IDX 20 1 18 2 16 3 15 4 9 5 8 6 14 7 6 8 5 9 10 10 11 12 12 13
REMARK SMILES IDX 13 14 7 16 4 18 2 19 1 21 3 22 17 23 19 25 21 27 22 28 23 30
REMARK SMILES IDX 24 31 25 32 26 33 27 34 43 35 28 36 42 37 29 38 30 39 41 40
REMARK SMILES IDX 31 41 35 42 36 43 40 44 32 45 34 46 37 47 39 48 33 49 38 50
REMARK H PARENT 10 11 13 15 7 17 4 20 17 24 19 26 21 29
REMARK Flexibility Score: inf
ROOT
ATOM      1  C   UNL     1      25.856  28.770  18.429  1.00  0.00     0.154 C 
ENDROOT
BRANCH   1   2
ATOM      2  C   UNL     1      27.024  28.272  19.196  1.00  0.00     0.165 C 
BRANCH   2   3
ATOM      3  C   UNL     1      27.979  29.349  19.600  1.00  0.00     0.176 C 
BRANCH   3   4
ATOM      4  C   UNL     1      28.499  29.274  21.009  1.00  0.00     0.178 C 
ATOM      5  C   UNL     1      30.159  27.636  21.224  1.00  0.00     0.269 C 
ATOM      6  C   UNL     1      29.969  27.444  22.714  1.00  0.00     0.112 C 
ATOM      7  O   UNL     1      29.844  28.916  20.897  1.00  0.00    -0.332 OA
ATOM      8  C   UNL     1      28.623  27.937  23.101  1.00  0.00     0.145 C 
ATOM      9  C   UNL     1      27.746  28.324  21.899  1.00  0.00     0.142 C 
BRANCH   5  10
ATOM     10  O   UNL     1      29.469  26.636  20.594  1.00  0.00    -0.357 OA
ATOM     11  H   UNL     1      29.941  25.774  20.632  1.00  0.00     0.214 HD
ENDBRANCH   5  10
BRANCH   5  12
ATOM     12  C   UNL     1      31.621  27.457  20.970  1.00  0.00     0.364 C 
ATOM     13  O   UNL     1      32.428  27.562  21.923  1.00  0.00    -0.246 OA
BRANCH  12  14
ATOM     14  O   UNL     1      32.133  27.176  19.711  1.00  0.00    -0.477 OA
ATOM     15  H   UNL     1      32.069  27.872  18.955  1.00  0.00     0.296 HD
ENDBRANCH  12  14
ENDBRANCH   5  12
BRANCH   8  16
ATOM     16  O   UNL     1      27.892  27.041  23.865  1.00  0.00    -0.391 OA
ATOM     17  H   UNL     1      26.948  27.295  23.973  1.00  0.00     0.211 HD
ENDBRANCH   8  16
BRANCH   9  18
ATOM     18  N   UNL     1      26.618  29.002  22.496  1.00  0.00    -0.348 N 
ATOM     19  C   UNL     1      25.311  28.460  22.606  1.00  0.00     0.217 C 
ATOM     20  H   UNL     1      26.776  29.958  22.877  1.00  0.00     0.163 HD
ATOM     21  C   UNL     1      24.191  29.229  23.240  1.00  0.00     0.114 C 
ATOM     22  O   UNL     1      25.120  27.304  22.149  1.00  0.00    -0.275 OA
ENDBRANCH   9  18
ENDBRANCH   3   4
BRANCH   3  23
ATOM     23  O   UNL     1      29.018  29.570  18.703  1.00  0.00    -0.388 OA
ATOM     24  H   UNL     1      29.405  28.769  18.315  1.00  0.00     0.211 HD
ENDBRANCH   3  23
ENDBRANCH   2   3
BRANCH   2  25
ATOM     25  O   UNL     1      27.742  27.368  18.416  1.00  0.00    -0.388 OA
ATOM     26  H   UNL     1      28.383  26.840  18.930  1.00  0.00     0.211 HD
ENDBRANCH   2  25
ENDBRANCH   1   2
BRANCH   1  27
ATOM     27  N   UNL     1      26.134  29.721  17.418  1.00  0.00    -0.319 N 
ATOM     28  C   UNL     1      25.381  29.865  16.239  1.00  0.00     0.407 C 
ATOM     29  H   UNL     1      26.966  30.385  17.538  1.00  0.00     0.167 HD
ATOM     30  O   UNL     1      24.399  29.170  15.996  1.00  0.00    -0.225 OA
BRANCH  28  31
ATOM     31  O   UNL     1      25.723  30.826  15.271  1.00  0.00    -0.443 OA
BRANCH  31  32
ATOM     32  C   UNL     1      26.415  32.001  15.566  1.00  0.00     0.294 C 
BRANCH  32  33
ATOM     33  C   UNL     1      27.846  31.786  15.894  1.00  0.00     0.120 A 
ATOM     34  C   UNL     1      28.758  32.659  16.433  1.00  0.00     0.139 A 
ATOM     35  N   UNL     1      28.479  30.628  15.693  1.00  0.00    -0.132 NA
ATOM     36  N   UNL     1      29.908  32.003  16.539  1.00  0.00    -0.240 N 
ATOM     37  N   UNL     1      29.722  30.779  16.088  1.00  0.00    -0.066 NA
BRANCH  36  38
ATOM     38  C   UNL     1      31.170  32.510  17.057  1.00  0.00     0.170 C 
ATOM     39  C   UNL     1      31.029  33.032  18.427  1.00  0.00    -0.011 A 
ATOM     40  C   UNL     1      31.704  33.606  16.264  1.00  0.00    -0.011 A 
ATOM     41  C   UNL     1      30.560  32.401  19.593  1.00  0.00     0.007 A 
ATOM     42  C   UNL     1      31.450  34.331  18.424  1.00  0.00    -0.012 A 
ATOM     43  C   UNL     1      31.873  34.698  17.074  1.00  0.00    -0.012 A 
ATOM     44  C   UNL     1      32.053  33.729  14.903  1.00  0.00     0.007 A 
ATOM     45  C   UNL     1      30.532  33.128  20.757  1.00  0.00     0.000 A 
ATOM     46  C   UNL     1      31.404  35.037  19.626  1.00  0.00     0.009 A 
ATOM     47  C   UNL     1      32.374  35.921  16.616  1.00  0.00     0.009 A 
ATOM     48  C   UNL     1      32.544  34.919  14.433  1.00  0.00     0.000 A 
ATOM     49  C   UNL     1      30.951  34.443  20.783  1.00  0.00     0.001 A 
ATOM     50  C   UNL     1      32.702  36.001  15.282  1.00  0.00     0.001 A 
ENDBRANCH  36  38
ENDBRANCH  32  33
ENDBRANCH  31  32
ENDBRANCH  28  31
ENDBRANCH   1  27
TORSDOF 15
BEGIN_RES LYS A 131
REMARK  4 active torsions:
REMARK  status: ('A' for Active; 'I' for Inactive)
REMARK    1  A    between atoms: CA   and  CB  
REMARK    2  A    between atoms: CB   and  CG  
REMARK    3  A    between atoms: CG   and  CD  
REMARK    4  A    between atoms: CD   and  CE  
ROOT
ATOM      1  CA  LYS A 131      29.867  25.555  16.977  1.00 20.52     0.186 C 
ENDROOT
BRANCH   1   2
ATOM      2  CB  LYS A 131      28.345  25.722  17.026  1.00 20.94     0.034 C 
BRANCH   2   3
ATOM      3  CG  LYS A 131      27.601  24.405  16.866  1.00 22.96     0.005 C 
BRANCH   3   4
ATOM      4  CD  LYS A 131      26.152  24.523  17.251  1.00 24.33     0.041 C 
BRANCH   4   5
ATOM      5  CE  LYS A 131      25.976  24.103  18.707  1.00 26.91     0.338 C 
ATOM      6  NZ  LYS A 131      25.191  25.117  19.449  1.00 27.40     0.618 N 
ENDBRANCH   4   5
ENDBRANCH   3   4
ENDBRANCH   2   3
ENDBRANCH   1   2
END_RES LYS A 131
BEGIN_RES LYS A 135
REMARK  4 active torsions:
REMARK  status: ('A' for Active; 'I' for Inactive)
REMARK    5  A    between atoms: CA   and  CB  
REMARK    6  A    between atoms: CB   and  CG  
REMARK    7  A    between atoms: CG   and  CD  
REMARK    8  A    between atoms: CD   and  CE  
ROOT
ATOM      7  CA  LYS A 135      33.193  34.663   9.290  1.00 25.02     0.186 C 
ENDROOT
BRANCH   7   8
ATOM      8  CB  LYS A 135      32.060  35.360  10.034  1.00 26.63     0.034 C 
BRANCH   8   9
ATOM      9  CG  LYS A 135      30.784  35.454   9.238  1.00 29.45     0.005 C 
BRANCH   9  10
ATOM     10  CD  LYS A 135      30.214  34.069   8.972  1.00 32.00     0.041 C 
BRANCH  10  11
ATOM     11  CE  LYS A 135      28.716  34.055   9.209  1.00 34.25     0.338 C 
ATOM     12  NZ  LYS A 135      27.995  34.781   8.128  1.00 35.99     0.618 N 
ENDBRANCH  10  11
ENDBRANCH   9  10
ENDBRANCH   8   9
ENDBRANCH   7   8
END_RES LYS A 135
