REMARK VINA RESULT:    -3.930      3.652      7.034
REMARK INTER + INTRA:         -14.243
REMARK INTER:                  -6.586
REMARK INTRA:                  -7.657
REMARK UNBOUND:                -6.753
REMARK SMILES COCC(C(N)=O)n1cc(COC(=O)NC[C@@H](O)C(O)[C@@H]2O[C@@](O)(C(=O)O)C[C@H](O)[C@H]2NC(C)=O)nn1
REMARK SMILES IDX 15 1 13 2 14 3 16 5 17 6 19 7 21 8 23 9 28 10 22 11 29 12
REMARK SMILES IDX 31 13 24 14 25 16 26 17 27 18 30 20 32 22 33 23 34 25 35 26
REMARK SMILES IDX 20 27 18 29 12 31 11 32 10 33 9 34 36 35 8 36 37 37 4 38
REMARK SMILES IDX 3 39 2 40 1 41 5 42 7 43 6 44
REMARK H PARENT 15 4 24 15 27 19 30 21 32 24 20 28 18 30 6 45 6 46
REMARK Flexibility Score: inf
ROOT
ATOM      1  N   UNL     1      27.165  37.107  12.631  1.00  0.00    -0.319 N 
ATOM      2  C   UNL     1      26.328  36.210  11.937  1.00  0.00     0.407 C 
ATOM      3  O   UNL     1      26.704  35.613  10.902  1.00  0.00    -0.225 OA
ATOM      4  H   UNL     1      26.760  37.554  13.492  1.00  0.00     0.167 HD
ENDROOT
BRANCH   1   5
ATOM      5  C   UNL     1      28.496  37.460  12.276  1.00  0.00     0.154 C 
BRANCH   5   6
ATOM      6  C   UNL     1      29.603  36.707  12.916  1.00  0.00     0.165 C 
BRANCH   6   7
ATOM      7  C   UNL     1      29.620  36.842  14.423  1.00  0.00     0.176 C 
BRANCH   7   8
ATOM      8  C   UNL     1      30.812  36.239  15.096  1.00  0.00     0.178 C 
ATOM      9  C   UNL     1      32.399  34.595  14.732  1.00  0.00     0.269 C 
ATOM     10  C   UNL     1      32.955  35.292  15.946  1.00  0.00     0.112 C 
ATOM     11  O   UNL     1      31.245  35.191  14.255  1.00  0.00    -0.332 OA
ATOM     12  C   UNL     1      31.978  35.435  17.058  1.00  0.00     0.145 C 
ATOM     13  C   UNL     1      30.585  35.650  16.446  1.00  0.00     0.142 C 
BRANCH   9  14
ATOM     14  O   UNL     1      32.236  33.253  15.022  1.00  0.00    -0.357 OA
ATOM     15  H   UNL     1      32.494  33.015  15.947  1.00  0.00     0.214 HD
ENDBRANCH   9  14
BRANCH   9  16
ATOM     16  C   UNL     1      33.425  34.699  13.658  1.00  0.00     0.364 C 
ATOM     17  O   UNL     1      34.640  34.432  13.870  1.00  0.00    -0.246 OA
BRANCH  16  18
ATOM     18  O   UNL     1      33.099  35.097  12.358  1.00  0.00    -0.477 OA
ATOM     19  H   UNL     1      32.146  35.304  12.089  1.00  0.00     0.296 HD
ENDBRANCH  16  18
ENDBRANCH   9  16
BRANCH  12  20
ATOM     20  O   UNL     1      31.965  34.343  17.924  1.00  0.00    -0.391 OA
ATOM     21  H   UNL     1      32.306  34.673  18.800  1.00  0.00     0.211 HD
ENDBRANCH  12  20
BRANCH  13  22
ATOM     22  N   UNL     1      29.860  36.429  17.389  1.00  0.00    -0.348 N 
ATOM     23  C   UNL     1      29.034  35.839  18.419  1.00  0.00     0.217 C 
ATOM     24  H   UNL     1      29.886  37.470  17.407  1.00  0.00     0.163 HD
ATOM     25  C   UNL     1      28.297  36.691  19.381  1.00  0.00     0.114 C 
ATOM     26  O   UNL     1      28.941  34.608  18.500  1.00  0.00    -0.275 OA
ENDBRANCH  13  22
ENDBRANCH   7   8
BRANCH   7  27
ATOM     27  O   UNL     1      28.517  36.036  14.845  1.00  0.00    -0.388 OA
ATOM     28  H   UNL     1      28.696  35.625  15.706  1.00  0.00     0.211 HD
ENDBRANCH   7  27
ENDBRANCH   6   7
BRANCH   6  29
ATOM     29  O   UNL     1      30.832  37.191  12.473  1.00  0.00    -0.388 OA
ATOM     30  H   UNL     1      30.698  38.004  11.932  1.00  0.00     0.211 HD
ENDBRANCH   6  29
ENDBRANCH   5   6
ENDBRANCH   1   5
BRANCH   2  31
ATOM     31  O   UNL     1      25.034  35.948  12.378  1.00  0.00    -0.443 OA
BRANCH  31  32
ATOM     32  C   UNL     1      24.667  34.690  12.883  1.00  0.00     0.294 C 
BRANCH  32  33
ATOM     33  C   UNL     1      25.460  34.349  14.078  1.00  0.00     0.120 A 
ATOM     34  C   UNL     1      26.078  33.148  14.365  1.00  0.00     0.139 A 
ATOM     35  N   UNL     1      25.706  35.189  15.106  1.00  0.00    -0.132 NA
ATOM     36  N   UNL     1      26.673  33.299  15.542  1.00  0.00    -0.237 N 
ATOM     37  N   UNL     1      26.451  34.505  15.979  1.00  0.00    -0.066 NA
BRANCH  36  38
ATOM     38  C   UNL     1      27.453  32.284  16.248  1.00  0.00     0.223 C 
BRANCH  38  39
ATOM     39  C   UNL     1      27.022  30.929  15.763  1.00  0.00     0.197 C 
BRANCH  39  40
ATOM     40  O   UNL     1      27.934  29.965  16.125  1.00  0.00    -0.382 OA
ATOM     41  C   UNL     1      27.397  28.885  16.792  1.00  0.00     0.195 C 
ENDBRANCH  39  40
ENDBRANCH  38  39
BRANCH  38  42
ATOM     42  C   UNL     1      28.902  32.471  15.911  1.00  0.00     0.244 C 
ATOM     43  O   UNL     1      29.245  32.873  14.789  1.00  0.00    -0.273 OA
ATOM     44  N   UNL     1      29.856  32.173  16.919  1.00  0.00    -0.368 N 
ATOM     45  H   UNL     1      30.793  32.635  16.873  1.00  0.00     0.159 HD
ATOM     46  H   UNL     1      29.636  31.518  17.679  1.00  0.00     0.159 HD
ENDBRANCH  38  42
ENDBRANCH  36  38
ENDBRANCH  32  33
ENDBRANCH  31  32
ENDBRANCH   2  31
TORSDOF 18
BEGIN_RES LYS A 131
REMARK  4 active torsions:
REMARK  status: ('A' for Active; 'I' for Inactive)
REMARK    1  A    between atoms: CA   and  CB  
REMARK    2  A    between atoms: CB   and  CG  
REMARK    3  A    between atoms: CG   and  CD  
REMARK    4  A    between atoms: CD   and  CE  
ROOT
ATOM      1  CA  LYS A 131      29.867  25.555  16.977  1.00 20.52     0.186 C 
ENDROOT
BRANCH   1   2
ATOM      2  CB  LYS A 131      28.345  25.722  17.026  1.00 20.94     0.034 C 
BRANCH   2   3
ATOM      3  CG  LYS A 131      27.601  24.402  16.897  1.00 22.96     0.005 C 
BRANCH   3   4
ATOM      4  CD  LYS A 131      26.569  24.225  17.975  1.00 24.33     0.041 C 
BRANCH   4   5
ATOM      5  CE  LYS A 131      25.480  23.274  17.487  1.00 26.91     0.338 C 
ATOM      6  NZ  LYS A 131      24.935  22.486  18.618  1.00 27.40     0.618 N 
ENDBRANCH   4   5
ENDBRANCH   3   4
ENDBRANCH   2   3
ENDBRANCH   1   2
END_RES LYS A 131
BEGIN_RES LYS A 135
REMARK  4 active torsions:
REMARK  status: ('A' for Active; 'I' for Inactive)
REMARK    5  A    between atoms: CA   and  CB  
REMARK    6  A    between atoms: CB   and  CG  
REMARK    7  A    between atoms: CG   and  CD  
REMARK    8  A    between atoms: CD   and  CE  
ROOT
ATOM      7  CA  LYS A 135      33.193  34.663   9.290  1.00 25.02     0.186 C 
ENDROOT
BRANCH   7   8
ATOM      8  CB  LYS A 135      32.060  35.360  10.034  1.00 26.63     0.034 C 
BRANCH   8   9
ATOM      9  CG  LYS A 135      30.706  35.144   9.409  1.00 29.45     0.005 C 
BRANCH   9  10
ATOM     10  CD  LYS A 135      30.127  36.460   8.913  1.00 32.00     0.041 C 
BRANCH  10  11
ATOM     11  CE  LYS A 135      28.828  36.223   8.168  1.00 34.25     0.338 C 
ATOM     12  NZ  LYS A 135      28.588  34.769   7.955  1.00 35.99     0.618 N 
ENDBRANCH  10  11
ENDBRANCH   9  10
ENDBRANCH   8   9
ENDBRANCH   7   8
END_RES LYS A 135
