REMARK VINA RESULT:    -4.538      7.197     12.439
REMARK INTER + INTRA:         -15.584
REMARK INTER:                  -8.017
REMARK INTRA:                  -7.567
REMARK UNBOUND:                -6.934
REMARK SMILES CC(=O)N[C@@H]1[C@@H](O)C[C@](O)(C(=O)O)O[C@H]1C(O)[C@H](O)CNC(=O)OCc1cn(C(C)CC(=O)c2ccccc2)nn1
REMARK SMILES IDX 21 1 22 2 23 3 20 5 18 6 16 7 15 8 9 9 8 10 14 11 6 12 5 13
REMARK SMILES IDX 10 14 11 16 12 17 13 18 7 20 4 22 2 23 1 25 3 26 17 27 19 29
REMARK SMILES IDX 24 31 25 32 26 33 27 34 41 35 28 36 40 37 29 38 30 39 31 40
REMARK SMILES IDX 32 41 33 42 34 43 35 44 39 45 36 46 38 47 37 48
REMARK H PARENT 21 4 10 15 13 19 7 21 4 24 17 28 19 30
REMARK Flexibility Score: inf
ROOT
ATOM      1  N   UNL     1      26.150  39.405   6.133  1.00  0.00    -0.319 N 
ATOM      2  C   UNL     1      25.303  39.991   7.117  1.00  0.00     0.407 C 
ATOM      3  O   UNL     1      25.808  40.748   7.966  1.00  0.00    -0.225 OA
ATOM      4  H   UNL     1      25.643  38.773   5.441  1.00  0.00     0.167 HD
ENDROOT
BRANCH   1   5
ATOM      5  C   UNL     1      27.577  39.626   6.046  1.00  0.00     0.154 C 
BRANCH   5   6
ATOM      6  C   UNL     1      28.364  38.443   6.566  1.00  0.00     0.165 C 
BRANCH   6   7
ATOM      7  C   UNL     1      28.789  38.637   8.006  1.00  0.00     0.176 C 
BRANCH   7   8
ATOM      8  C   UNL     1      29.436  39.966   8.254  1.00  0.00     0.178 C 
ATOM      9  C   UNL     1      31.735  39.575   8.188  1.00  0.00     0.269 C 
ATOM     10  C   UNL     1      31.882  39.808   9.671  1.00  0.00     0.112 C 
ATOM     11  O   UNL     1      30.633  40.130   7.611  1.00  0.00    -0.332 OA
ATOM     12  C   UNL     1      30.619  39.546  10.434  1.00  0.00     0.145 C 
ATOM     13  C   UNL     1      29.510  40.297   9.734  1.00  0.00     0.142 C 
BRANCH   9  14
ATOM     14  O   UNL     1      31.888  38.197   7.916  1.00  0.00    -0.357 OA
ATOM     15  H   UNL     1      31.211  37.654   8.363  1.00  0.00     0.214 HD
ENDBRANCH   9  14
BRANCH   9  16
ATOM     16  C   UNL     1      32.934  40.239   7.556  1.00  0.00     0.364 C 
ATOM     17  O   UNL     1      32.860  41.238   6.829  1.00  0.00    -0.246 OA
BRANCH  16  18
ATOM     18  O   UNL     1      34.166  39.633   7.856  1.00  0.00    -0.477 OA
ATOM     19  H   UNL     1      34.325  38.658   7.655  1.00  0.00     0.296 HD
ENDBRANCH  16  18
ENDBRANCH   9  16
BRANCH  12  20
ATOM     20  O   UNL     1      30.345  38.207  10.586  1.00  0.00    -0.391 OA
ATOM     21  H   UNL     1      29.537  37.969  10.071  1.00  0.00     0.211 HD
ENDBRANCH  12  20
BRANCH  13  22
ATOM     22  N   UNL     1      29.895  41.717   9.803  1.00  0.00    -0.348 N 
ATOM     23  C   UNL     1      29.229  42.569  10.725  1.00  0.00     0.217 C 
ATOM     24  H   UNL     1      30.638  42.117   9.199  1.00  0.00     0.163 HD
ATOM     25  C   UNL     1      29.631  43.998  10.783  1.00  0.00     0.114 C 
ATOM     26  O   UNL     1      28.333  42.088  11.454  1.00  0.00    -0.275 OA
ENDBRANCH  13  22
ENDBRANCH   7   8
BRANCH   7  27
ATOM     27  O   UNL     1      27.642  38.476   8.787  1.00  0.00    -0.388 OA
ATOM     28  H   UNL     1      26.860  38.871   8.299  1.00  0.00     0.211 HD
ENDBRANCH   7  27
ENDBRANCH   6   7
BRANCH   6  29
ATOM     29  O   UNL     1      29.497  38.259   5.747  1.00  0.00    -0.388 OA
ATOM     30  H   UNL     1      29.730  37.302   5.652  1.00  0.00     0.211 HD
ENDBRANCH   6  29
ENDBRANCH   5   6
ENDBRANCH   1   5
BRANCH   2  31
ATOM     31  O   UNL     1      23.947  39.757   7.167  1.00  0.00    -0.443 OA
BRANCH  31  32
ATOM     32  C   UNL     1      23.336  38.548   7.559  1.00  0.00     0.294 C 
BRANCH  32  33
ATOM     33  C   UNL     1      24.204  37.640   8.313  1.00  0.00     0.120 A 
ATOM     34  C   UNL     1      24.170  37.437   9.699  1.00  0.00     0.138 A 
ATOM     35  N   UNL     1      25.193  36.824   7.866  1.00  0.00    -0.132 NA
ATOM     36  N   UNL     1      25.094  36.549  10.011  1.00  0.00    -0.249 N 
ATOM     37  N   UNL     1      25.693  36.195   8.912  1.00  0.00    -0.067 NA
BRANCH  36  38
ATOM     38  C   UNL     1      25.379  36.055  11.396  1.00  0.00     0.114 C 
ATOM     39  C   UNL     1      24.317  35.015  11.641  1.00  0.00     0.034 C 
BRANCH  38  40
ATOM     40  C   UNL     1      26.728  35.509  11.377  1.00  0.00     0.108 C 
BRANCH  40  41
ATOM     41  C   UNL     1      27.809  36.206  12.001  1.00  0.00     0.164 C 
ATOM     42  O   UNL     1      27.845  37.498  11.657  1.00  0.00    -0.294 OA
BRANCH  41  43
ATOM     43  C   UNL     1      28.853  35.831  12.902  1.00  0.00     0.018 A 
ATOM     44  C   UNL     1      29.069  34.453  13.150  1.00  0.00     0.012 A 
ATOM     45  C   UNL     1      29.698  36.698  13.550  1.00  0.00     0.012 A 
ATOM     46  C   UNL     1      30.064  34.023  13.990  1.00  0.00     0.001 A 
ATOM     47  C   UNL     1      30.695  36.227  14.393  1.00  0.00     0.001 A 
ATOM     48  C   UNL     1      30.898  34.907  14.630  1.00  0.00     0.000 A 
ENDBRANCH  41  43
ENDBRANCH  40  41
ENDBRANCH  38  40
ENDBRANCH  36  38
ENDBRANCH  32  33
ENDBRANCH  31  32
ENDBRANCH   2  31
TORSDOF 18
BEGIN_RES LYS A 131
REMARK  4 active torsions:
REMARK  status: ('A' for Active; 'I' for Inactive)
REMARK    1  A    between atoms: CA   and  CB  
REMARK    2  A    between atoms: CB   and  CG  
REMARK    3  A    between atoms: CG   and  CD  
REMARK    4  A    between atoms: CD   and  CE  
ROOT
ATOM      1  CA  LYS A 131      29.867  25.555  16.977  1.00 20.52     0.186 C 
ENDROOT
BRANCH   1   2
ATOM      2  CB  LYS A 131      28.345  25.722  17.026  1.00 20.94     0.034 C 
BRANCH   2   3
ATOM      3  CG  LYS A 131      27.600  24.415  16.804  1.00 22.96     0.005 C 
BRANCH   3   4
ATOM      4  CD  LYS A 131      26.666  24.096  17.938  1.00 24.33     0.041 C 
BRANCH   4   5
ATOM      5  CE  LYS A 131      26.160  25.393  18.562  1.00 26.91     0.338 C 
ATOM      6  NZ  LYS A 131      24.765  25.662  18.141  1.00 27.40     0.618 N 
ENDBRANCH   4   5
ENDBRANCH   3   4
ENDBRANCH   2   3
ENDBRANCH   1   2
END_RES LYS A 131
BEGIN_RES LYS A 135
REMARK  4 active torsions:
REMARK  status: ('A' for Active; 'I' for Inactive)
REMARK    5  A    between atoms: CA   and  CB  
REMARK    6  A    between atoms: CB   and  CG  
REMARK    7  A    between atoms: CG   and  CD  
REMARK    8  A    between atoms: CD   and  CE  
ROOT
ATOM      7  CA  LYS A 135      33.193  34.663   9.290  1.00 25.02     0.186 C 
ENDROOT
BRANCH   7   8
ATOM      8  CB  LYS A 135      32.060  35.360  10.034  1.00 26.63     0.034 C 
BRANCH   8   9
ATOM      9  CG  LYS A 135      30.736  34.651   9.916  1.00 29.45     0.005 C 
BRANCH   9  10
ATOM     10  CD  LYS A 135      30.338  34.497   8.456  1.00 32.00     0.041 C 
BRANCH  10  11
ATOM     11  CE  LYS A 135      28.828  34.521   8.310  1.00 34.25     0.338 C 
ATOM     12  NZ  LYS A 135      28.423  35.180   7.037  1.00 35.99     0.618 N 
ENDBRANCH  10  11
ENDBRANCH   9  10
ENDBRANCH   8   9
ENDBRANCH   7   8
END_RES LYS A 135
