REMARK VINA RESULT:    -4.981      0.000      0.000
REMARK INTER + INTRA:         -15.769
REMARK INTER:                 -10.164
REMARK INTRA:                  -5.605
REMARK UNBOUND:                -6.275
REMARK SMILES CC(=O)N[C@@H]1[C@@H](O)C[C@](O)(C(=O)O)O[C@H]1C(O)[C@H](O)CNC(=O)OCc1cn(Cc2ccccc2OC(C)=O)nn1
REMARK SMILES IDX 21 1 22 2 23 3 20 5 18 6 16 7 15 8 9 9 8 10 14 11 6 12 5 13
REMARK SMILES IDX 10 14 11 16 12 17 13 18 7 20 4 22 2 23 1 25 3 26 17 27 19 29
REMARK SMILES IDX 24 31 25 32 26 33 27 34 41 35 28 36 40 37 29 38 30 39 35 40
REMARK SMILES IDX 31 41 34 42 32 43 33 44 36 45 37 46 39 47 38 48
REMARK H PARENT 21 4 10 15 13 19 7 21 4 24 17 28 19 30
REMARK Flexibility Score: inf
ROOT
ATOM      1  N   UNL     1      25.170  40.529   5.802  1.00  0.00    -0.319 N 
ATOM      2  C   UNL     1      26.031  41.097   4.816  1.00  0.00     0.407 C 
ATOM      3  O   UNL     1      25.984  42.331   4.632  1.00  0.00    -0.225 OA
ATOM      4  H   UNL     1      25.216  39.501   5.945  1.00  0.00     0.167 HD
ENDROOT
BRANCH   1   5
ATOM      5  C   UNL     1      24.268  41.354   6.561  1.00  0.00     0.154 C 
BRANCH   5   6
ATOM      6  C   UNL     1      23.527  40.458   7.559  1.00  0.00     0.165 C 
BRANCH   6   7
ATOM      7  C   UNL     1      24.253  39.146   7.669  1.00  0.00     0.176 C 
BRANCH   7   8
ATOM      8  C   UNL     1      23.400  38.175   8.440  1.00  0.00     0.178 C 
ATOM      9  C   UNL     1      21.516  36.831   8.207  1.00  0.00     0.269 C 
ATOM     10  C   UNL     1      20.715  37.701   9.147  1.00  0.00     0.112 C 
ATOM     11  O   UNL     1      22.457  37.656   7.612  1.00  0.00    -0.332 OA
ATOM     12  C   UNL     1      21.624  38.206  10.214  1.00  0.00     0.145 C 
ATOM     13  C   UNL     1      22.900  38.805   9.690  1.00  0.00     0.142 C 
BRANCH   9  14
ATOM     14  O   UNL     1      20.620  36.460   7.183  1.00  0.00    -0.357 OA
ATOM     15  H   UNL     1      19.853  37.074   7.131  1.00  0.00     0.214 HD
ENDBRANCH   9  14
BRANCH   9  16
ATOM     16  C   UNL     1      22.086  35.631   8.850  1.00  0.00     0.364 C 
ATOM     17  O   UNL     1      23.271  35.248   8.699  1.00  0.00    -0.246 OA
BRANCH  16  18
ATOM     18  O   UNL     1      21.283  34.864   9.673  1.00  0.00    -0.477 OA
ATOM     19  H   UNL     1      21.443  33.871   9.859  1.00  0.00     0.296 HD
ENDBRANCH  16  18
ENDBRANCH   9  16
BRANCH  12  20
ATOM     20  O   UNL     1      20.900  39.169  10.951  1.00  0.00    -0.391 OA
ATOM     21  H   UNL     1      21.425  39.389  11.777  1.00  0.00     0.211 HD
ENDBRANCH  12  20
BRANCH  13  22
ATOM     22  N   UNL     1      23.916  38.669  10.717  1.00  0.00    -0.348 N 
ATOM     23  C   UNL     1      24.403  39.790  11.455  1.00  0.00     0.217 C 
ATOM     24  H   UNL     1      24.319  37.735  10.944  1.00  0.00     0.163 HD
ATOM     25  C   UNL     1      25.441  39.593  12.492  1.00  0.00     0.114 C 
ATOM     26  O   UNL     1      23.950  40.930  11.219  1.00  0.00    -0.275 OA
ENDBRANCH  13  22
ENDBRANCH   7   8
BRANCH   7  27
ATOM     27  O   UNL     1      25.500  39.292   8.289  1.00  0.00    -0.388 OA
ATOM     28  H   UNL     1      25.782  38.414   8.637  1.00  0.00     0.211 HD
ENDBRANCH   7  27
ENDBRANCH   6   7
BRANCH   6  29
ATOM     29  O   UNL     1      22.227  40.349   7.120  1.00  0.00    -0.388 OA
ATOM     30  H   UNL     1      22.109  39.737   6.364  1.00  0.00     0.211 HD
ENDBRANCH   6  29
ENDBRANCH   5   6
ENDBRANCH   1   5
BRANCH   2  31
ATOM     31  O   UNL     1      26.890  40.283   4.096  1.00  0.00    -0.443 OA
BRANCH  31  32
ATOM     32  C   UNL     1      28.153  39.907   4.593  1.00  0.00     0.294 C 
BRANCH  32  33
ATOM     33  C   UNL     1      27.971  38.877   5.627  1.00  0.00     0.120 A 
ATOM     34  C   UNL     1      27.596  37.547   5.420  1.00  0.00     0.138 A 
ATOM     35  N   UNL     1      28.120  38.989   6.972  1.00  0.00    -0.132 NA
ATOM     36  N   UNL     1      27.542  36.957   6.608  1.00  0.00    -0.248 N 
ATOM     37  N   UNL     1      27.860  37.832   7.546  1.00  0.00    -0.067 NA
BRANCH  36  38
ATOM     38  C   UNL     1      27.197  35.572   6.853  1.00  0.00     0.185 C 
BRANCH  38  39
ATOM     39  C   UNL     1      28.257  35.034   7.771  1.00  0.00     0.016 A 
ATOM     40  C   UNL     1      27.883  34.596   9.015  1.00  0.00     0.135 A 
ATOM     41  C   UNL     1      29.562  34.992   7.353  1.00  0.00     0.009 A 
ATOM     42  C   UNL     1      28.814  34.099   9.889  1.00  0.00     0.047 A 
ATOM     43  C   UNL     1      30.524  34.486   8.234  1.00  0.00     0.001 A 
ATOM     44  C   UNL     1      30.128  34.056   9.471  1.00  0.00     0.004 A 
BRANCH  40  45
ATOM     45  O   UNL     1      26.552  34.655   9.400  1.00  0.00    -0.426 OA
BRANCH  45  46
ATOM     46  C   UNL     1      26.211  35.570  10.395  1.00  0.00     0.308 C 
ATOM     47  O   UNL     1      26.210  36.796  10.132  1.00  0.00    -0.252 OA
ATOM     48  C   UNL     1      25.849  35.112  11.758  1.00  0.00     0.139 C 
ENDBRANCH  45  46
ENDBRANCH  40  45
ENDBRANCH  38  39
ENDBRANCH  36  38
ENDBRANCH  32  33
ENDBRANCH  31  32
ENDBRANCH   2  31
TORSDOF 18
BEGIN_RES LYS A 131
REMARK  4 active torsions:
REMARK  status: ('A' for Active; 'I' for Inactive)
REMARK    1  A    between atoms: CA   and  CB  
REMARK    2  A    between atoms: CB   and  CG  
REMARK    3  A    between atoms: CG   and  CD  
REMARK    4  A    between atoms: CD   and  CE  
ROOT
ATOM      1  CA  LYS A 131      29.867  25.555  16.977  1.00 20.52     0.186 C 
ENDROOT
BRANCH   1   2
ATOM      2  CB  LYS A 131      28.345  25.722  17.026  1.00 20.94     0.034 C 
BRANCH   2   3
ATOM      3  CG  LYS A 131      27.601  24.401  16.900  1.00 22.96     0.005 C 
BRANCH   3   4
ATOM      4  CD  LYS A 131      26.161  24.521  17.314  1.00 24.33     0.041 C 
BRANCH   4   5
ATOM      5  CE  LYS A 131      25.965  23.856  18.673  1.00 26.91     0.338 C 
ATOM      6  NZ  LYS A 131      24.614  23.254  18.766  1.00 27.40     0.618 N 
ENDBRANCH   4   5
ENDBRANCH   3   4
ENDBRANCH   2   3
ENDBRANCH   1   2
END_RES LYS A 131
BEGIN_RES LYS A 135
REMARK  4 active torsions:
REMARK  status: ('A' for Active; 'I' for Inactive)
REMARK    5  A    between atoms: CA   and  CB  
REMARK    6  A    between atoms: CB   and  CG  
REMARK    7  A    between atoms: CG   and  CD  
REMARK    8  A    between atoms: CD   and  CE  
ROOT
ATOM      7  CA  LYS A 135      33.193  34.663   9.290  1.00 25.02     0.186 C 
ENDROOT
BRANCH   7   8
ATOM      8  CB  LYS A 135      32.060  35.360  10.034  1.00 26.63     0.034 C 
BRANCH   8   9
ATOM      9  CG  LYS A 135      32.504  36.050  11.298  1.00 29.45     0.005 C 
BRANCH   9  10
ATOM     10  CD  LYS A 135      31.897  35.375  12.519  1.00 32.00     0.041 C 
BRANCH  10  11
ATOM     11  CE  LYS A 135      30.965  36.326  13.245  1.00 34.25     0.338 C 
ATOM     12  NZ  LYS A 135      31.436  37.734  13.125  1.00 35.99     0.618 N 
ENDBRANCH  10  11
ENDBRANCH   9  10
ENDBRANCH   8   9
ENDBRANCH   7   8
END_RES LYS A 135
