REMARK VINA RESULT:    -5.138      2.008      4.683
REMARK INTER + INTRA:         -13.906
REMARK INTER:                  -8.149
REMARK INTRA:                  -5.757
REMARK UNBOUND:                -5.012
REMARK SMILES CC(=O)N[C@@H]1[C@@H](O)C[C@](O)(C(=O)O)O[C@H]1C(O)[C@H](O)CNC(=O)OCc1cn(-c2ccc(C)cc2)nn1
REMARK SMILES IDX 20 1 18 2 16 3 15 4 9 5 8 6 14 7 6 8 5 9 10 10 11 12 12 13
REMARK SMILES IDX 13 14 7 16 4 18 2 19 1 21 3 22 17 23 19 25 21 27 22 28 23 30
REMARK SMILES IDX 24 31 25 32 26 33 27 34 37 35 28 36 36 37 29 38 30 39 35 40
REMARK SMILES IDX 31 41 34 42 32 43 33 44
REMARK H PARENT 10 11 13 15 7 17 4 20 17 24 19 26 21 29
REMARK Flexibility Score: inf
ROOT
ATOM      1  C   UNL     1      30.852  31.202  20.048  1.00  0.00     0.154 C 
ENDROOT
BRANCH   1   2
ATOM      2  C   UNL     1      30.671  32.479  19.339  1.00  0.00     0.165 C 
BRANCH   2   3
ATOM      3  C   UNL     1      30.149  32.477  17.938  1.00  0.00     0.176 C 
BRANCH   3   4
ATOM      4  C   UNL     1      30.292  33.747  17.162  1.00  0.00     0.178 C 
ATOM      5  C   UNL     1      28.939  33.314  15.298  1.00  0.00     0.269 C 
ATOM      6  C   UNL     1      30.073  33.535  14.312  1.00  0.00     0.112 C 
ATOM      7  O   UNL     1      29.090  33.977  16.474  1.00  0.00    -0.332 OA
ATOM      8  C   UNL     1      31.396  33.278  15.016  1.00  0.00     0.145 C 
ATOM      9  C   UNL     1      31.483  33.986  16.329  1.00  0.00     0.142 C 
BRANCH   5  10
ATOM     10  O   UNL     1      28.765  31.956  15.406  1.00  0.00    -0.357 OA
ATOM     11  H   UNL     1      28.015  31.682  15.994  1.00  0.00     0.214 HD
ENDBRANCH   5  10
BRANCH   5  12
ATOM     12  C   UNL     1      27.726  33.885  14.632  1.00  0.00     0.364 C 
ATOM     13  O   UNL     1      27.785  34.925  13.910  1.00  0.00    -0.246 OA
BRANCH  12  14
ATOM     14  O   UNL     1      26.498  33.277  14.796  1.00  0.00    -0.477 OA
ATOM     15  H   UNL     1      25.755  33.464  14.118  1.00  0.00     0.296 HD
ENDBRANCH  12  14
ENDBRANCH   5  12
BRANCH   8  16
ATOM     16  O   UNL     1      31.387  31.907  15.273  1.00  0.00    -0.391 OA
ATOM     17  H   UNL     1      30.464  31.559  15.375  1.00  0.00     0.211 HD
ENDBRANCH   8  16
BRANCH   9  18
ATOM     18  N   UNL     1      31.626  35.425  16.208  1.00  0.00    -0.348 N 
ATOM     19  C   UNL     1      32.469  36.192  17.030  1.00  0.00     0.217 C 
ATOM     20  H   UNL     1      31.056  35.869  15.459  1.00  0.00     0.163 HD
ATOM     21  C   UNL     1      32.635  37.654  16.932  1.00  0.00     0.114 C 
ATOM     22  O   UNL     1      33.107  35.564  17.896  1.00  0.00    -0.275 OA
ENDBRANCH   9  18
ENDBRANCH   3   4
BRANCH   3  23
ATOM     23  O   UNL     1      28.688  32.455  18.118  1.00  0.00    -0.388 OA
ATOM     24  H   UNL     1      28.508  31.789  18.834  1.00  0.00     0.211 HD
ENDBRANCH   3  23
ENDBRANCH   2   3
BRANCH   2  25
ATOM     25  O   UNL     1      31.731  33.350  19.541  1.00  0.00    -0.388 OA
ATOM     26  H   UNL     1      32.613  32.866  19.541  1.00  0.00     0.211 HD
ENDBRANCH   2  25
ENDBRANCH   1   2
BRANCH   1  27
ATOM     27  N   UNL     1      30.150  30.061  19.455  1.00  0.00    -0.319 N 
ATOM     28  C   UNL     1      28.924  29.589  19.974  1.00  0.00     0.407 C 
ATOM     29  H   UNL     1      30.532  29.539  18.624  1.00  0.00     0.167 HD
ATOM     30  O   UNL     1      28.418  30.143  20.956  1.00  0.00    -0.225 OA
BRANCH  28  31
ATOM     31  O   UNL     1      28.238  28.505  19.425  1.00  0.00    -0.443 OA
BRANCH  31  32
ATOM     32  C   UNL     1      26.844  28.593  19.237  1.00  0.00     0.294 C 
BRANCH  32  33
ATOM     33  C   UNL     1      26.471  29.183  17.948  1.00  0.00     0.121 A 
ATOM     34  C   UNL     1      25.308  28.875  17.273  1.00  0.00     0.144 A 
ATOM     35  N   UNL     1      27.098  30.084  17.165  1.00  0.00    -0.131 NA
ATOM     36  N   UNL     1      25.249  29.576  16.121  1.00  0.00    -0.220 N 
ATOM     37  N   UNL     1      26.349  30.297  16.089  1.00  0.00    -0.062 NA
BRANCH  36  38
ATOM     38  C   UNL     1      24.236  29.574  15.117  1.00  0.00     0.066 A 
ATOM     39  C   UNL     1      23.073  28.848  15.281  1.00  0.00     0.029 A 
ATOM     40  C   UNL     1      24.365  30.288  13.944  1.00  0.00     0.029 A 
ATOM     41  C   UNL     1      22.084  28.836  14.317  1.00  0.00     0.005 A 
ATOM     42  C   UNL     1      23.381  30.281  12.977  1.00  0.00     0.005 A 
ATOM     43  C   UNL     1      22.222  29.555  13.148  1.00  0.00    -0.051 A 
ATOM     44  C   UNL     1      21.186  29.572  12.082  1.00  0.00     0.044 C 
ENDBRANCH  36  38
ENDBRANCH  32  33
ENDBRANCH  31  32
ENDBRANCH  28  31
ENDBRANCH   1  27
TORSDOF 15
BEGIN_RES LYS A 131
REMARK  4 active torsions:
REMARK  status: ('A' for Active; 'I' for Inactive)
REMARK    1  A    between atoms: CA   and  CB  
REMARK    2  A    between atoms: CB   and  CG  
REMARK    3  A    between atoms: CG   and  CD  
REMARK    4  A    between atoms: CD   and  CE  
ROOT
ATOM      1  CA  LYS A 131      29.867  25.555  16.977  1.00 20.52     0.186 C 
ENDROOT
BRANCH   1   2
ATOM      2  CB  LYS A 131      28.345  25.722  17.026  1.00 20.94     0.034 C 
BRANCH   2   3
ATOM      3  CG  LYS A 131      27.603  24.396  16.958  1.00 22.96     0.005 C 
BRANCH   3   4
ATOM      4  CD  LYS A 131      26.198  24.506  17.484  1.00 24.33     0.041 C 
BRANCH   4   5
ATOM      5  CE  LYS A 131      25.543  23.128  17.477  1.00 26.91     0.338 C 
ATOM      6  NZ  LYS A 131      24.138  23.225  17.017  1.00 27.40     0.618 N 
ENDBRANCH   4   5
ENDBRANCH   3   4
ENDBRANCH   2   3
ENDBRANCH   1   2
END_RES LYS A 131
BEGIN_RES LYS A 135
REMARK  4 active torsions:
REMARK  status: ('A' for Active; 'I' for Inactive)
REMARK    5  A    between atoms: CA   and  CB  
REMARK    6  A    between atoms: CB   and  CG  
REMARK    7  A    between atoms: CG   and  CD  
REMARK    8  A    between atoms: CD   and  CE  
ROOT
ATOM      7  CA  LYS A 135      33.193  34.663   9.290  1.00 25.02     0.186 C 
ENDROOT
BRANCH   7   8
ATOM      8  CB  LYS A 135      32.060  35.360  10.034  1.00 26.63     0.034 C 
BRANCH   8   9
ATOM      9  CG  LYS A 135      30.709  34.738   9.793  1.00 29.45     0.005 C 
BRANCH   9  10
ATOM     10  CD  LYS A 135      30.483  34.505   8.307  1.00 32.00     0.041 C 
BRANCH  10  11
ATOM     11  CE  LYS A 135      29.067  34.886   7.917  1.00 34.25     0.338 C 
ATOM     12  NZ  LYS A 135      28.820  36.337   8.144  1.00 35.99     0.618 N 
ENDBRANCH  10  11
ENDBRANCH   9  10
ENDBRANCH   8   9
ENDBRANCH   7   8
END_RES LYS A 135
