REMARK VINA RESULT:    -4.953      4.394      8.010
REMARK INTER + INTRA:         -16.647
REMARK INTER:                 -10.359
REMARK INTRA:                  -6.288
REMARK UNBOUND:                -6.771
REMARK SMILES CC(=O)N[C@@H]1[C@@H](O)C[C@](O)(C(=O)O)O[C@H]1C(O)[C@H](O)CNC(=O)OCc1cn(CC(O)CCc2ccccc2)nn1
REMARK SMILES IDX 24 1 22 2 21 3 23 5 20 6 18 7 16 8 15 9 9 10 8 11 14 12 6 13
REMARK SMILES IDX 5 14 10 15 11 17 12 18 13 19 7 21 4 23 2 24 1 26 3 27 17 28
REMARK SMILES IDX 19 30 25 32 26 33 27 34 41 35 28 36 40 37 29 38 30 39 31 40
REMARK SMILES IDX 32 42 33 43 34 44 35 45 39 46 36 47 38 48 37 49
REMARK H PARENT 21 4 10 16 13 20 7 22 4 25 17 29 19 31 31 41
REMARK Flexibility Score: inf
ROOT
ATOM      1  O   UNL     1      32.126  34.237  15.630  1.00  0.00    -0.443 OA
ENDROOT
BRANCH   1   2
ATOM      2  C   UNL     1      31.444  33.252  16.322  1.00  0.00     0.407 C 
ATOM      3  N   UNL     1      30.934  32.121  15.650  1.00  0.00    -0.319 N 
ATOM      4  H   UNL     1      31.075  32.034  14.627  1.00  0.00     0.167 HD
ATOM      5  O   UNL     1      31.274  33.358  17.557  1.00  0.00    -0.225 OA
BRANCH   3   6
ATOM      6  C   UNL     1      30.213  31.061  16.341  1.00  0.00     0.154 C 
BRANCH   6   7
ATOM      7  C   UNL     1      28.932  30.711  15.606  1.00  0.00     0.165 C 
BRANCH   7   8
ATOM      8  C   UNL     1      27.759  31.145  16.468  1.00  0.00     0.176 C 
BRANCH   8   9
ATOM      9  C   UNL     1      26.973  32.258  15.768  1.00  0.00     0.178 C 
ATOM     10  C   UNL     1      27.271  34.291  16.876  1.00  0.00     0.269 C 
ATOM     11  C   UNL     1      26.255  33.811  17.852  1.00  0.00     0.112 C 
ATOM     12  O   UNL     1      27.558  33.472  15.844  1.00  0.00    -0.332 OA
ATOM     13  C   UNL     1      25.101  33.111  17.229  1.00  0.00     0.145 C 
ATOM     14  C   UNL     1      25.527  32.160  16.143  1.00  0.00     0.142 C 
BRANCH  10  15
ATOM     15  O   UNL     1      28.466  34.515  17.602  1.00  0.00    -0.357 OA
ATOM     16  H   UNL     1      29.136  34.941  17.008  1.00  0.00     0.214 HD
ENDBRANCH  10  15
BRANCH  10  17
ATOM     17  C   UNL     1      26.834  35.651  16.396  1.00  0.00     0.364 C 
ATOM     18  O   UNL     1      27.257  36.718  16.897  1.00  0.00    -0.246 OA
BRANCH  17  19
ATOM     19  O   UNL     1      25.918  35.785  15.347  1.00  0.00    -0.477 OA
ATOM     20  H   UNL     1      26.153  36.360  14.526  1.00  0.00     0.296 HD
ENDBRANCH  17  19
ENDBRANCH  10  17
BRANCH  13  21
ATOM     21  O   UNL     1      24.378  32.448  18.249  1.00  0.00    -0.391 OA
ATOM     22  H   UNL     1      23.497  32.124  17.895  1.00  0.00     0.211 HD
ENDBRANCH  13  21
BRANCH  14  23
ATOM     23  N   UNL     1      24.680  32.291  14.956  1.00  0.00    -0.348 N 
ATOM     24  C   UNL     1      24.251  31.173  14.227  1.00  0.00     0.217 C 
ATOM     25  H   UNL     1      24.410  33.282  14.681  1.00  0.00     0.163 HD
ATOM     26  C   UNL     1      23.401  31.356  13.038  1.00  0.00     0.114 C 
ATOM     27  O   UNL     1      24.585  30.024  14.574  1.00  0.00    -0.275 OA
ENDBRANCH  14  23
ENDBRANCH   8   9
BRANCH   8  28
ATOM     28  O   UNL     1      26.884  30.045  16.484  1.00  0.00    -0.388 OA
ATOM     29  H   UNL     1      26.567  29.813  15.560  1.00  0.00     0.211 HD
ENDBRANCH   8  28
ENDBRANCH   7   8
BRANCH   7  30
ATOM     30  O   UNL     1      28.875  29.342  15.374  1.00  0.00    -0.388 OA
ATOM     31  H   UNL     1      28.967  28.893  16.248  1.00  0.00     0.211 HD
ENDBRANCH   7  30
ENDBRANCH   6   7
ENDBRANCH   3   6
ENDBRANCH   1   2
BRANCH   1  32
ATOM     32  C   UNL     1      31.426  35.479  15.447  1.00  0.00     0.294 C 
BRANCH  32  33
ATOM     33  C   UNL     1      30.518  35.383  14.283  1.00  0.00     0.120 A 
ATOM     34  C   UNL     1      29.477  36.204  13.919  1.00  0.00     0.138 A 
ATOM     35  N   UNL     1      30.581  34.418  13.348  1.00  0.00    -0.132 NA
ATOM     36  N   UNL     1      28.941  35.724  12.787  1.00  0.00    -0.250 N 
ATOM     37  N   UNL     1      29.609  34.663  12.461  1.00  0.00    -0.067 NA
BRANCH  36  38
ATOM     38  C   UNL     1      27.798  36.274  12.023  1.00  0.00     0.177 C 
BRANCH  38  39
ATOM     39  C   UNL     1      26.688  35.270  12.055  1.00  0.00     0.136 C 
BRANCH  39  40
ATOM     40  O   UNL     1      26.886  34.302  13.050  1.00  0.00    -0.391 OA
ATOM     41  H   UNL     1      26.733  33.409  12.625  1.00  0.00     0.211 HD
ENDBRANCH  39  40
BRANCH  39  42
ATOM     42  C   UNL     1      26.140  34.834  10.791  1.00  0.00     0.038 C 
BRANCH  42  43
ATOM     43  C   UNL     1      27.033  34.294   9.758  1.00  0.00     0.038 C 
BRANCH  43  44
ATOM     44  C   UNL     1      27.187  35.118   8.570  1.00  0.00    -0.048 A 
ATOM     45  C   UNL     1      26.371  36.250   8.443  1.00  0.00     0.004 A 
ATOM     46  C   UNL     1      28.012  34.855   7.522  1.00  0.00     0.004 A 
ATOM     47  C   UNL     1      26.416  37.035   7.315  1.00  0.00     0.000 A 
ATOM     48  C   UNL     1      28.072  35.632   6.379  1.00  0.00     0.000 A 
ATOM     49  C   UNL     1      27.261  36.743   6.270  1.00  0.00     0.000 A 
ENDBRANCH  43  44
ENDBRANCH  42  43
ENDBRANCH  39  42
ENDBRANCH  38  39
ENDBRANCH  36  38
ENDBRANCH  32  33
ENDBRANCH   1  32
TORSDOF 20
BEGIN_RES LYS A 131
REMARK  4 active torsions:
REMARK  status: ('A' for Active; 'I' for Inactive)
REMARK    1  A    between atoms: CA   and  CB  
REMARK    2  A    between atoms: CB   and  CG  
REMARK    3  A    between atoms: CG   and  CD  
REMARK    4  A    between atoms: CD   and  CE  
ROOT
ATOM      1  CA  LYS A 131      29.867  25.555  16.977  1.00 20.52     0.186 C 
ENDROOT
BRANCH   1   2
ATOM      2  CB  LYS A 131      28.345  25.722  17.026  1.00 20.94     0.034 C 
BRANCH   2   3
ATOM      3  CG  LYS A 131      27.600  24.412  16.822  1.00 22.96     0.005 C 
BRANCH   3   4
ATOM      4  CD  LYS A 131      26.569  24.174  17.890  1.00 24.33     0.041 C 
BRANCH   4   5
ATOM      5  CE  LYS A 131      25.220  23.885  17.240  1.00 26.91     0.338 C 
ATOM      6  NZ  LYS A 131      24.800  22.490  17.513  1.00 27.40     0.618 N 
ENDBRANCH   4   5
ENDBRANCH   3   4
ENDBRANCH   2   3
ENDBRANCH   1   2
END_RES LYS A 131
BEGIN_RES LYS A 135
REMARK  4 active torsions:
REMARK  status: ('A' for Active; 'I' for Inactive)
REMARK    5  A    between atoms: CA   and  CB  
REMARK    6  A    between atoms: CB   and  CG  
REMARK    7  A    between atoms: CG   and  CD  
REMARK    8  A    between atoms: CD   and  CE  
ROOT
ATOM      7  CA  LYS A 135      33.193  34.663   9.290  1.00 25.02     0.186 C 
ENDROOT
BRANCH   7   8
ATOM      8  CB  LYS A 135      32.060  35.360  10.034  1.00 26.63     0.034 C 
BRANCH   8   9
ATOM      9  CG  LYS A 135      30.848  35.622   9.177  1.00 29.45     0.005 C 
BRANCH   9  10
ATOM     10  CD  LYS A 135      30.247  36.982   9.500  1.00 32.00     0.041 C 
BRANCH  10  11
ATOM     11  CE  LYS A 135      30.929  38.070   8.693  1.00 34.25     0.338 C 
ATOM     12  NZ  LYS A 135      29.975  38.716   7.749  1.00 35.99     0.618 N 
ENDBRANCH  10  11
ENDBRANCH   9  10
ENDBRANCH   8   9
ENDBRANCH   7   8
END_RES LYS A 135
