REMARK VINA RESULT:    -5.356      7.020     14.567
REMARK INTER + INTRA:         -17.063
REMARK INTER:                  -9.238
REMARK INTRA:                  -7.826
REMARK UNBOUND:                -5.759
REMARK SMILES CC(=O)N[C@@H]1[C@@H](O)C[C@](O)(C(=O)O)O[C@H]1C(O)[C@H](O)CNC(=O)OCc1cn(CC(=O)NCC(O)Cn2ccnc2[N+](=O)[O-])nn1
REMARK SMILES IDX 25 1 24 2 22 3 21 4 23 6 20 7 18 8 16 9 15 10 9 11 8 12
REMARK SMILES IDX 14 13 6 14 5 15 10 16 11 18 12 19 13 20 7 22 4 24 2 25 1 27
REMARK SMILES IDX 3 28 17 29 19 31 26 33 27 34 46 35 28 36 45 37 29 38 30 39
REMARK SMILES IDX 31 40 32 41 33 43 34 44 35 45 36 47 37 48 38 49 41 50 39 51
REMARK SMILES IDX 40 52 42 53 43 54 44 55
REMARK H PARENT 21 5 10 17 13 21 7 23 4 26 17 30 19 32 32 42 35 46
REMARK Flexibility Score: inf
ROOT
ATOM      1  C   UNL     1      24.272  27.280  19.570  1.00  0.00     0.294 C 
ENDROOT
BRANCH   1   2
ATOM      2  O   UNL     1      24.709  26.051  20.116  1.00  0.00    -0.443 OA
BRANCH   2   3
ATOM      3  C   UNL     1      25.129  25.948  21.430  1.00  0.00     0.407 C 
ATOM      4  N   UNL     1      26.505  26.153  21.791  1.00  0.00    -0.319 N 
ATOM      5  H   UNL     1      27.155  26.372  21.009  1.00  0.00     0.167 HD
ATOM      6  O   UNL     1      24.287  25.671  22.302  1.00  0.00    -0.225 OA
BRANCH   4   7
ATOM      7  C   UNL     1      26.985  26.068  23.127  1.00  0.00     0.154 C 
BRANCH   7   8
ATOM      8  C   UNL     1      28.351  26.622  23.334  1.00  0.00     0.165 C 
BRANCH   8   9
ATOM      9  C   UNL     1      28.739  27.446  22.116  1.00  0.00     0.176 C 
BRANCH   9  10
ATOM     10  C   UNL     1      29.206  28.821  22.471  1.00  0.00     0.178 C 
ATOM     11  C   UNL     1      28.853  30.275  20.685  1.00  0.00     0.269 C 
ATOM     12  C   UNL     1      30.172  31.019  20.833  1.00  0.00     0.112 C 
ATOM     13  O   UNL     1      28.415  29.770  21.878  1.00  0.00    -0.332 OA
ATOM     14  C   UNL     1      30.876  30.563  22.104  1.00  0.00     0.145 C 
ATOM     15  C   UNL     1      30.653  29.047  22.183  1.00  0.00     0.142 C 
BRANCH  11  16
ATOM     16  O   UNL     1      29.095  29.240  19.801  1.00  0.00    -0.357 OA
ATOM     17  H   UNL     1      30.067  29.139  19.635  1.00  0.00     0.214 HD
ENDBRANCH  11  16
BRANCH  11  18
ATOM     18  C   UNL     1      27.803  31.146  20.097  1.00  0.00     0.364 C 
ATOM     19  O   UNL     1      26.575  30.860  20.184  1.00  0.00    -0.246 OA
BRANCH  18  20
ATOM     20  O   UNL     1      28.134  32.312  19.428  1.00  0.00    -0.477 OA
ATOM     21  H   UNL     1      27.692  32.653  18.593  1.00  0.00     0.296 HD
ENDBRANCH  18  20
ENDBRANCH  11  18
BRANCH  14  22
ATOM     22  O   UNL     1      32.220  30.864  21.970  1.00  0.00    -0.391 OA
ATOM     23  H   UNL     1      32.445  31.266  21.101  1.00  0.00     0.211 HD
ENDBRANCH  14  22
BRANCH  15  24
ATOM     24  N   UNL     1      31.505  28.486  23.223  1.00  0.00    -0.348 N 
ATOM     25  C   UNL     1      32.384  27.432  22.905  1.00  0.00     0.217 C 
ATOM     26  H   UNL     1      31.454  28.859  24.174  1.00  0.00     0.163 HD
ATOM     27  C   UNL     1      33.285  26.822  23.952  1.00  0.00     0.114 C 
ATOM     28  O   UNL     1      32.481  26.934  21.758  1.00  0.00    -0.275 OA
ENDBRANCH  15  24
ENDBRANCH   9  10
BRANCH   9  29
ATOM     29  O   UNL     1      29.712  26.806  21.366  1.00  0.00    -0.388 OA
ATOM     30  H   UNL     1      30.191  26.114  21.858  1.00  0.00     0.211 HD
ENDBRANCH   9  29
ENDBRANCH   8   9
BRANCH   8  31
ATOM     31  O   UNL     1      29.333  25.673  23.568  1.00  0.00    -0.388 OA
ATOM     32  H   UNL     1      29.594  25.182  22.743  1.00  0.00     0.211 HD
ENDBRANCH   8  31
ENDBRANCH   7   8
ENDBRANCH   4   7
ENDBRANCH   2   3
ENDBRANCH   1   2
BRANCH   1  33
ATOM     33  C   UNL     1      25.413  27.793  18.773  1.00  0.00     0.120 A 
ATOM     34  C   UNL     1      25.308  28.785  17.823  1.00  0.00     0.138 A 
ATOM     35  N   UNL     1      26.710  27.455  18.763  1.00  0.00    -0.132 NA
ATOM     36  N   UNL     1      26.533  29.027  17.262  1.00  0.00    -0.243 N 
ATOM     37  N   UNL     1      27.363  28.204  17.855  1.00  0.00    -0.067 NA
BRANCH  36  38
ATOM     38  C   UNL     1      26.718  30.018  16.225  1.00  0.00     0.245 C 
BRANCH  38  39
ATOM     39  C   UNL     1      28.217  30.199  16.077  1.00  0.00     0.241 C 
ATOM     40  O   UNL     1      28.796  29.802  15.043  1.00  0.00    -0.273 OA
ATOM     41  N   UNL     1      28.996  30.802  17.068  1.00  0.00    -0.352 N 
ATOM     42  H   UNL     1      28.405  31.135  17.922  1.00  0.00     0.163 HD
BRANCH  41  43
ATOM     43  C   UNL     1      30.393  31.031  17.124  1.00  0.00     0.151 C 
BRANCH  43  44
ATOM     44  C   UNL     1      30.994  32.141  16.391  1.00  0.00     0.168 C 
BRANCH  44  45
ATOM     45  O   UNL     1      31.314  31.811  15.046  1.00  0.00    -0.388 OA
ATOM     46  H   UNL     1      31.902  31.017  15.038  1.00  0.00     0.211 HD
ENDBRANCH  44  45
BRANCH  44  47
ATOM     47  C   UNL     1      30.552  33.532  16.581  1.00  0.00     0.239 C 
BRANCH  47  48
ATOM     48  N   UNL     1      29.955  34.120  15.397  1.00  0.00    -0.227 N 
ATOM     49  C   UNL     1      28.658  33.993  15.018  1.00  0.00     0.204 A 
ATOM     50  C   UNL     1      30.595  34.867  14.478  1.00  0.00     0.434 A 
ATOM     51  C   UNL     1      28.524  34.689  13.831  1.00  0.00     0.245 A 
ATOM     52  N   UNL     1      29.703  35.219  13.503  1.00  0.00    -0.074 NA
BRANCH  50  53
ATOM     53  N   UNL     1      31.952  35.272  14.442  1.00  0.00    -0.047 N 
ATOM     54  O   UNL     1      32.194  36.515  14.462  1.00  0.00    -0.390 OA
ATOM     55  O   UNL     1      33.032  34.457  14.386  1.00  0.00    -0.390 OA
ENDBRANCH  50  53
ENDBRANCH  47  48
ENDBRANCH  44  47
ENDBRANCH  43  44
ENDBRANCH  41  43
ENDBRANCH  38  39
ENDBRANCH  36  38
ENDBRANCH   1  33
TORSDOF 22
BEGIN_RES LYS A 131
REMARK  4 active torsions:
REMARK  status: ('A' for Active; 'I' for Inactive)
REMARK    1  A    between atoms: CA   and  CB  
REMARK    2  A    between atoms: CB   and  CG  
REMARK    3  A    between atoms: CG   and  CD  
REMARK    4  A    between atoms: CD   and  CE  
ROOT
ATOM      1  CA  LYS A 131      29.867  25.555  16.977  1.00 20.52     0.186 C 
ENDROOT
BRANCH   1   2
ATOM      2  CB  LYS A 131      28.345  25.722  17.026  1.00 20.94     0.034 C 
BRANCH   2   3
ATOM      3  CG  LYS A 131      27.599  24.434  16.712  1.00 22.96     0.005 C 
BRANCH   3   4
ATOM      4  CD  LYS A 131      27.026  23.797  17.948  1.00 24.33     0.041 C 
BRANCH   4   5
ATOM      5  CE  LYS A 131      25.536  23.539  17.743  1.00 26.91     0.338 C 
ATOM      6  NZ  LYS A 131      24.919  24.648  16.978  1.00 27.40     0.618 N 
ENDBRANCH   4   5
ENDBRANCH   3   4
ENDBRANCH   2   3
ENDBRANCH   1   2
END_RES LYS A 131
BEGIN_RES LYS A 135
REMARK  4 active torsions:
REMARK  status: ('A' for Active; 'I' for Inactive)
REMARK    5  A    between atoms: CA   and  CB  
REMARK    6  A    between atoms: CB   and  CG  
REMARK    7  A    between atoms: CG   and  CD  
REMARK    8  A    between atoms: CD   and  CE  
ROOT
ATOM      7  CA  LYS A 135      33.193  34.663   9.290  1.00 25.02     0.186 C 
ENDROOT
BRANCH   7   8
ATOM      8  CB  LYS A 135      32.060  35.360  10.034  1.00 26.63     0.034 C 
BRANCH   8   9
ATOM      9  CG  LYS A 135      30.756  35.366   9.278  1.00 29.45     0.005 C 
BRANCH   9  10
ATOM     10  CD  LYS A 135      29.647  35.970  10.125  1.00 32.00     0.041 C 
BRANCH  10  11
ATOM     11  CE  LYS A 135      28.390  35.126  10.038  1.00 34.25     0.338 C 
ATOM     12  NZ  LYS A 135      28.390  34.290   8.805  1.00 35.99     0.618 N 
ENDBRANCH  10  11
ENDBRANCH   9  10
ENDBRANCH   8   9
ENDBRANCH   7   8
END_RES LYS A 135
