REMARK VINA RESULT:    -5.325      2.766      3.699
REMARK INTER + INTRA:         -14.754
REMARK INTER:                  -9.282
REMARK INTRA:                  -5.472
REMARK UNBOUND:                -5.226
REMARK SMILES COc1ccc(-n2cc(COC(=O)NC[C@@H](O)C(O)[C@@H]3O[C@@](O)(C(=O)O)C[C@H](O)[C@H]3NC(C)=O)nn2)cc1
REMARK SMILES IDX 14 1 12 2 13 3 15 5 16 6 18 7 20 8 22 9 27 10 21 11 28 12
REMARK SMILES IDX 30 13 23 14 24 16 25 17 26 18 29 20 31 22 32 23 33 25 34 26
REMARK SMILES IDX 19 27 17 29 11 31 10 32 9 33 8 34 35 35 7 36 36 37 6 38 5 39
REMARK SMILES IDX 37 40 4 41 38 42 3 43 2 44 1 45
REMARK H PARENT 14 4 23 15 26 19 29 21 31 24 19 28 17 30
REMARK Flexibility Score: inf
ROOT
ATOM      1  N   UNL     1      25.005  28.933  19.096  1.00  0.00    -0.319 N 
ATOM      2  C   UNL     1      25.164  30.282  18.712  1.00  0.00     0.407 C 
ATOM      3  O   UNL     1      25.650  31.135  19.469  1.00  0.00    -0.225 OA
ATOM      4  H   UNL     1      24.547  28.313  18.352  1.00  0.00     0.167 HD
ENDROOT
BRANCH   1   5
ATOM      5  C   UNL     1      25.365  28.308  20.304  1.00  0.00     0.154 C 
BRANCH   5   6
ATOM      6  C   UNL     1      26.731  27.830  20.505  1.00  0.00     0.165 C 
BRANCH   6   7
ATOM      7  C   UNL     1      27.766  28.160  19.551  1.00  0.00     0.176 C 
BRANCH   7   8
ATOM      8  C   UNL     1      29.192  28.326  20.119  1.00  0.00     0.178 C 
ATOM      9  C   UNL     1      30.281  27.085  21.803  1.00  0.00     0.269 C 
ATOM     10  C   UNL     1      29.987  28.183  22.838  1.00  0.00     0.112 C 
ATOM     11  O   UNL     1      29.334  27.169  20.865  1.00  0.00    -0.332 OA
ATOM     12  C   UNL     1      30.200  29.470  22.138  1.00  0.00     0.145 C 
ATOM     13  C   UNL     1      29.433  29.587  20.808  1.00  0.00     0.142 C 
BRANCH   9  14
ATOM     14  O   UNL     1      29.999  25.891  22.522  1.00  0.00    -0.357 OA
ATOM     15  H   UNL     1      29.369  26.065  23.263  1.00  0.00     0.214 HD
ENDBRANCH   9  14
BRANCH   9  16
ATOM     16  C   UNL     1      31.667  27.032  21.385  1.00  0.00     0.364 C 
ATOM     17  O   UNL     1      32.588  26.996  22.240  1.00  0.00    -0.246 OA
BRANCH  16  18
ATOM     18  O   UNL     1      32.116  27.015  20.063  1.00  0.00    -0.477 OA
ATOM     19  H   UNL     1      32.029  27.825  19.445  1.00  0.00     0.296 HD
ENDBRANCH  16  18
ENDBRANCH   9  16
BRANCH  12  20
ATOM     20  O   UNL     1      29.838  30.593  22.898  1.00  0.00    -0.391 OA
ATOM     21  H   UNL     1      30.242  30.426  23.807  1.00  0.00     0.211 HD
ENDBRANCH  12  20
BRANCH  13  22
ATOM     22  N   UNL     1      30.186  30.590  20.120  1.00  0.00    -0.348 N 
ATOM     23  C   UNL     1      29.865  31.938  19.958  1.00  0.00     0.217 C 
ATOM     24  H   UNL     1      31.096  30.248  19.687  1.00  0.00     0.163 HD
ATOM     25  C   UNL     1      30.756  32.872  19.202  1.00  0.00     0.114 C 
ATOM     26  O   UNL     1      28.808  32.332  20.464  1.00  0.00    -0.275 OA
ENDBRANCH  13  22
ENDBRANCH   7   8
BRANCH   7  27
ATOM     27  O   UNL     1      27.764  27.246  18.502  1.00  0.00    -0.388 OA
ATOM     28  H   UNL     1      27.989  26.329  18.801  1.00  0.00     0.211 HD
ENDBRANCH   7  27
ENDBRANCH   6   7
BRANCH   6  29
ATOM     29  O   UNL     1      26.706  26.449  20.851  1.00  0.00    -0.388 OA
ATOM     30  H   UNL     1      27.114  25.912  20.121  1.00  0.00     0.211 HD
ENDBRANCH   6  29
ENDBRANCH   5   6
ENDBRANCH   1   5
BRANCH   2  31
ATOM     31  O   UNL     1      24.772  30.725  17.432  1.00  0.00    -0.443 OA
BRANCH  31  32
ATOM     32  C   UNL     1      25.206  30.027  16.291  1.00  0.00     0.294 C 
BRANCH  32  33
ATOM     33  C   UNL     1      26.654  30.218  16.114  1.00  0.00     0.121 A 
ATOM     34  C   UNL     1      27.239  31.450  15.801  1.00  0.00     0.144 A 
ATOM     35  N   UNL     1      27.672  29.366  16.196  1.00  0.00    -0.131 NA
ATOM     36  N   UNL     1      28.571  31.277  15.712  1.00  0.00    -0.220 N 
ATOM     37  N   UNL     1      28.795  29.989  15.960  1.00  0.00    -0.062 NA
BRANCH  36  38
ATOM     38  C   UNL     1      29.550  32.263  15.415  1.00  0.00     0.067 A 
ATOM     39  C   UNL     1      30.891  32.090  15.671  1.00  0.00     0.032 A 
ATOM     40  C   UNL     1      29.176  33.476  14.832  1.00  0.00     0.032 A 
ATOM     41  C   UNL     1      31.834  33.066  15.370  1.00  0.00     0.048 A 
ATOM     42  C   UNL     1      30.115  34.445  14.535  1.00  0.00     0.048 A 
ATOM     43  C   UNL     1      31.451  34.256  14.797  1.00  0.00     0.119 A 
BRANCH  43  44
ATOM     44  O   UNL     1      32.379  35.209  14.504  1.00  0.00    -0.497 OA
ATOM     45  C   UNL     1      32.203  36.530  14.967  1.00  0.00     0.278 C 
ENDBRANCH  43  44
ENDBRANCH  36  38
ENDBRANCH  32  33
ENDBRANCH  31  32
ENDBRANCH   2  31
TORSDOF 16
BEGIN_RES LYS A 131
REMARK  4 active torsions:
REMARK  status: ('A' for Active; 'I' for Inactive)
REMARK    1  A    between atoms: CA   and  CB  
REMARK    2  A    between atoms: CB   and  CG  
REMARK    3  A    between atoms: CG   and  CD  
REMARK    4  A    between atoms: CD   and  CE  
ROOT
ATOM      1  CA  LYS A 131      29.867  25.555  16.977  1.00 20.52     0.186 C 
ENDROOT
BRANCH   1   2
ATOM      2  CB  LYS A 131      28.345  25.722  17.026  1.00 20.94     0.034 C 
BRANCH   2   3
ATOM      3  CG  LYS A 131      27.599  24.475  16.576  1.00 22.96     0.005 C 
BRANCH   3   4
ATOM      4  CD  LYS A 131      27.177  23.618  17.736  1.00 24.33     0.041 C 
BRANCH   4   5
ATOM      5  CE  LYS A 131      25.744  23.963  18.129  1.00 26.91     0.338 C 
ATOM      6  NZ  LYS A 131      24.971  24.398  16.942  1.00 27.40     0.618 N 
ENDBRANCH   4   5
ENDBRANCH   3   4
ENDBRANCH   2   3
ENDBRANCH   1   2
END_RES LYS A 131
BEGIN_RES LYS A 135
REMARK  4 active torsions:
REMARK  status: ('A' for Active; 'I' for Inactive)
REMARK    5  A    between atoms: CA   and  CB  
REMARK    6  A    between atoms: CB   and  CG  
REMARK    7  A    between atoms: CG   and  CD  
REMARK    8  A    between atoms: CD   and  CE  
ROOT
ATOM      7  CA  LYS A 135      33.193  34.663   9.290  1.00 25.02     0.186 C 
ENDROOT
BRANCH   7   8
ATOM      8  CB  LYS A 135      32.060  35.360  10.034  1.00 26.63     0.034 C 
BRANCH   8   9
ATOM      9  CG  LYS A 135      30.760  35.376   9.273  1.00 29.45     0.005 C 
BRANCH   9  10
ATOM     10  CD  LYS A 135      29.704  34.554   9.996  1.00 32.00     0.041 C 
BRANCH  10  11
ATOM     11  CE  LYS A 135      28.647  34.070   9.022  1.00 34.25     0.338 C 
ATOM     12  NZ  LYS A 135      27.350  33.830   9.714  1.00 35.99     0.618 N 
ENDBRANCH  10  11
ENDBRANCH   9  10
ENDBRANCH   8   9
ENDBRANCH   7   8
END_RES LYS A 135
