REMARK VINA RESULT:    -4.281      2.083      4.868
REMARK INTER + INTRA:         -14.220
REMARK INTER:                  -7.174
REMARK INTRA:                  -7.046
REMARK UNBOUND:                -6.059
REMARK SMILES CC(=O)N[C@@H]1[C@@H](O)C[C@](O)(C(=O)O)O[C@H]1C(O)[C@H](O)CNC(=O)OCc1cn(CCOC(C)=O)nn1
REMARK SMILES IDX 21 1 22 2 23 3 20 5 18 6 16 7 15 8 9 9 8 10 14 11 6 12 5 13
REMARK SMILES IDX 10 14 11 16 12 17 13 18 7 20 4 22 2 23 1 25 3 26 17 27 19 29
REMARK SMILES IDX 24 31 25 32 26 33 27 34 36 35 28 36 35 37 29 38 30 39 31 40
REMARK SMILES IDX 32 41 34 42 33 43
REMARK H PARENT 21 4 10 15 13 19 7 21 4 24 17 28 19 30
REMARK Flexibility Score: inf
ROOT
ATOM      1  N   UNL     1      25.454  33.873  14.304  1.00  0.00    -0.319 N 
ATOM      2  C   UNL     1      24.853  35.034  13.768  1.00  0.00     0.407 C 
ATOM      3  O   UNL     1      24.530  35.975  14.507  1.00  0.00    -0.225 OA
ATOM      4  H   UNL     1      25.694  33.117  13.605  1.00  0.00     0.167 HD
ENDROOT
BRANCH   1   5
ATOM      5  C   UNL     1      25.754  33.667  15.705  1.00  0.00     0.154 C 
BRANCH   5   6
ATOM      6  C   UNL     1      26.946  32.808  15.897  1.00  0.00     0.165 C 
BRANCH   6   7
ATOM      7  C   UNL     1      28.281  33.431  15.556  1.00  0.00     0.176 C 
BRANCH   7   8
ATOM      8  C   UNL     1      29.242  33.541  16.701  1.00  0.00     0.178 C 
ATOM      9  C   UNL     1      31.073  33.701  15.275  1.00  0.00     0.269 C 
ATOM     10  C   UNL     1      31.140  32.225  15.204  1.00  0.00     0.112 C 
ATOM     11  O   UNL     1      30.398  34.232  16.342  1.00  0.00    -0.332 OA
ATOM     12  C   UNL     1      30.520  31.470  16.323  1.00  0.00     0.145 C 
ATOM     13  C   UNL     1      29.720  32.258  17.301  1.00  0.00     0.142 C 
BRANCH   9  14
ATOM     14  O   UNL     1      30.476  34.256  14.116  1.00  0.00    -0.357 OA
ATOM     15  H   UNL     1      30.652  33.701  13.320  1.00  0.00     0.214 HD
ENDBRANCH   9  14
BRANCH   9  16
ATOM     16  C   UNL     1      32.443  34.286  15.304  1.00  0.00     0.364 C 
ATOM     17  O   UNL     1      32.873  34.905  16.337  1.00  0.00    -0.246 OA
BRANCH  16  18
ATOM     18  O   UNL     1      33.337  34.209  14.248  1.00  0.00    -0.477 OA
ATOM     19  H   UNL     1      32.941  34.171  13.302  1.00  0.00     0.296 HD
ENDBRANCH  16  18
ENDBRANCH   9  16
BRANCH  12  20
ATOM     20  O   UNL     1      29.687  30.489  15.775  1.00  0.00    -0.391 OA
ATOM     21  H   UNL     1      28.789  30.491  16.229  1.00  0.00     0.211 HD
ENDBRANCH  12  20
BRANCH  13  22
ATOM     22  N   UNL     1      30.433  32.603  18.509  1.00  0.00    -0.348 N 
ATOM     23  C   UNL     1      30.514  31.757  19.620  1.00  0.00     0.217 C 
ATOM     24  H   UNL     1      30.899  33.529  18.531  1.00  0.00     0.163 HD
ATOM     25  C   UNL     1      31.241  32.085  20.873  1.00  0.00     0.114 C 
ATOM     26  O   UNL     1      29.932  30.658  19.541  1.00  0.00    -0.275 OA
ENDBRANCH  13  22
ENDBRANCH   7   8
BRANCH   7  27
ATOM     27  O   UNL     1      27.920  34.811  15.307  1.00  0.00    -0.388 OA
ATOM     28  H   UNL     1      27.389  34.738  14.456  1.00  0.00     0.211 HD
ENDBRANCH   7  27
ENDBRANCH   6   7
BRANCH   6  29
ATOM     29  O   UNL     1      26.855  31.492  15.558  1.00  0.00    -0.388 OA
ATOM     30  H   UNL     1      26.905  31.330  14.604  1.00  0.00     0.211 HD
ENDBRANCH   6  29
ENDBRANCH   5   6
ENDBRANCH   1   5
BRANCH   2  31
ATOM     31  O   UNL     1      24.614  35.135  12.379  1.00  0.00    -0.443 OA
BRANCH  31  32
ATOM     32  C   UNL     1      25.554  34.586  11.456  1.00  0.00     0.294 C 
BRANCH  32  33
ATOM     33  C   UNL     1      26.854  35.246  11.688  1.00  0.00     0.120 A 
ATOM     34  C   UNL     1      27.175  36.551  11.352  1.00  0.00     0.138 A 
ATOM     35  N   UNL     1      27.954  34.725  12.249  1.00  0.00    -0.132 NA
ATOM     36  N   UNL     1      28.447  36.764  11.720  1.00  0.00    -0.249 N 
ATOM     37  N   UNL     1      28.892  35.651  12.257  1.00  0.00    -0.067 NA
BRANCH  36  38
ATOM     38  C   UNL     1      29.158  38.010  11.542  1.00  0.00     0.187 C 
BRANCH  38  39
ATOM     39  C   UNL     1      29.248  38.704  12.880  1.00  0.00     0.256 C 
BRANCH  39  40
ATOM     40  O   UNL     1      30.464  38.390  13.495  1.00  0.00    -0.464 OA
BRANCH  40  41
ATOM     41  C   UNL     1      30.516  37.825  14.735  1.00  0.00     0.302 C 
ATOM     42  O   UNL     1      29.617  37.065  15.140  1.00  0.00    -0.253 OA
ATOM     43  C   UNL     1      31.674  38.108  15.653  1.00  0.00     0.139 C 
ENDBRANCH  40  41
ENDBRANCH  39  40
ENDBRANCH  38  39
ENDBRANCH  36  38
ENDBRANCH  32  33
ENDBRANCH  31  32
ENDBRANCH   2  31
TORSDOF 18
BEGIN_RES LYS A 131
REMARK  4 active torsions:
REMARK  status: ('A' for Active; 'I' for Inactive)
REMARK    1  A    between atoms: CA   and  CB  
REMARK    2  A    between atoms: CB   and  CG  
REMARK    3  A    between atoms: CG   and  CD  
REMARK    4  A    between atoms: CD   and  CE  
ROOT
ATOM      1  CA  LYS A 131      29.867  25.555  16.977  1.00 20.52     0.186 C 
ENDROOT
BRANCH   1   2
ATOM      2  CB  LYS A 131      28.345  25.722  17.026  1.00 20.94     0.034 C 
BRANCH   2   3
ATOM      3  CG  LYS A 131      27.599  24.475  16.575  1.00 22.96     0.005 C 
BRANCH   3   4
ATOM      4  CD  LYS A 131      27.029  23.706  17.735  1.00 24.33     0.041 C 
BRANCH   4   5
ATOM      5  CE  LYS A 131      25.689  24.313  18.139  1.00 26.91     0.338 C 
ATOM      6  NZ  LYS A 131      24.759  24.332  16.985  1.00 27.40     0.618 N 
ENDBRANCH   4   5
ENDBRANCH   3   4
ENDBRANCH   2   3
ENDBRANCH   1   2
END_RES LYS A 131
BEGIN_RES LYS A 135
REMARK  4 active torsions:
REMARK  status: ('A' for Active; 'I' for Inactive)
REMARK    5  A    between atoms: CA   and  CB  
REMARK    6  A    between atoms: CB   and  CG  
REMARK    7  A    between atoms: CG   and  CD  
REMARK    8  A    between atoms: CD   and  CE  
ROOT
ATOM      7  CA  LYS A 135      33.193  34.663   9.290  1.00 25.02     0.186 C 
ENDROOT
BRANCH   7   8
ATOM      8  CB  LYS A 135      32.060  35.360  10.034  1.00 26.63     0.034 C 
BRANCH   8   9
ATOM      9  CG  LYS A 135      30.806  35.517   9.212  1.00 29.45     0.005 C 
BRANCH   9  10
ATOM     10  CD  LYS A 135      30.092  34.183   9.064  1.00 32.00     0.041 C 
BRANCH  10  11
ATOM     11  CE  LYS A 135      28.664  34.392   8.597  1.00 34.25     0.338 C 
ATOM     12  NZ  LYS A 135      28.474  35.764   8.050  1.00 35.99     0.618 N 
ENDBRANCH  10  11
ENDBRANCH   9  10
ENDBRANCH   8   9
ENDBRANCH   7   8
END_RES LYS A 135
