REMARK VINA RESULT:    -3.869      1.946      3.546
REMARK INTER + INTRA:         -14.348
REMARK INTER:                  -7.858
REMARK INTRA:                  -6.490
REMARK UNBOUND:                -7.426
REMARK SMILES CC(=O)N[C@@H]1[C@@H](O)C[C@](O)(C(=O)O)O[C@H]1C(O)[C@H](O)CNC(=O)OCc1cn(Cc2ccccc2Br)nn1
REMARK SMILES IDX 21 1 22 2 23 3 20 5 18 6 16 7 15 8 9 9 8 10 14 11 6 12 5 13
REMARK SMILES IDX 10 14 11 16 12 17 13 18 7 20 4 22 2 23 1 25 3 26 17 27 19 29
REMARK SMILES IDX 24 31 25 32 26 33 27 34 38 35 28 36 37 37 29 38 30 39 31 40
REMARK SMILES IDX 35 41 32 42 34 43 36 44 33 45
REMARK H PARENT 21 4 10 15 13 19 7 21 4 24 17 28 19 30
REMARK Flexibility Score: inf
ROOT
ATOM      1  N   UNL     1      25.559  29.439  19.448  1.00  0.00    -0.319 N 
ATOM      2  C   UNL     1      24.533  29.531  18.501  1.00  0.00     0.407 C 
ATOM      3  O   UNL     1      23.381  29.886  18.874  1.00  0.00    -0.225 OA
ATOM      4  H   UNL     1      26.510  29.139  19.095  1.00  0.00     0.167 HD
ENDROOT
BRANCH   1   5
ATOM      5  C   UNL     1      25.412  29.721  20.859  1.00  0.00     0.154 C 
BRANCH   5   6
ATOM      6  C   UNL     1      26.748  29.547  21.549  1.00  0.00     0.165 C 
BRANCH   6   7
ATOM      7  C   UNL     1      27.887  30.011  20.667  1.00  0.00     0.176 C 
BRANCH   7   8
ATOM      8  C   UNL     1      29.239  29.612  21.226  1.00  0.00     0.178 C 
ATOM      9  C   UNL     1      30.598  27.726  21.418  1.00  0.00     0.269 C 
ATOM     10  C   UNL     1      30.740  27.899  22.882  1.00  0.00     0.112 C 
ATOM     11  O   UNL     1      29.404  28.282  20.985  1.00  0.00    -0.332 OA
ATOM     12  C   UNL     1      29.865  28.890  23.545  1.00  0.00     0.145 C 
ATOM     13  C   UNL     1      29.371  30.005  22.670  1.00  0.00     0.142 C 
BRANCH   9  14
ATOM     14  O   UNL     1      30.478  26.341  21.136  1.00  0.00    -0.357 OA
ATOM     15  H   UNL     1      31.361  25.944  20.914  1.00  0.00     0.214 HD
ENDBRANCH   9  14
BRANCH   9  16
ATOM     16  C   UNL     1      31.771  28.222  20.694  1.00  0.00     0.364 C 
ATOM     17  O   UNL     1      32.374  29.287  21.001  1.00  0.00    -0.246 OA
BRANCH  16  18
ATOM     18  O   UNL     1      32.257  27.501  19.613  1.00  0.00    -0.477 OA
ATOM     19  H   UNL     1      32.448  27.921  18.711  1.00  0.00     0.296 HD
ENDBRANCH  16  18
ENDBRANCH   9  16
BRANCH  12  20
ATOM     20  O   UNL     1      28.790  28.243  24.184  1.00  0.00    -0.391 OA
ATOM     21  H   UNL     1      28.494  28.896  24.895  1.00  0.00     0.211 HD
ENDBRANCH  12  20
BRANCH  13  22
ATOM     22  N   UNL     1      30.159  31.205  22.845  1.00  0.00    -0.348 N 
ATOM     23  C   UNL     1      29.580  32.465  23.145  1.00  0.00     0.217 C 
ATOM     24  H   UNL     1      31.192  31.157  22.751  1.00  0.00     0.163 HD
ATOM     25  C   UNL     1      30.378  33.710  23.328  1.00  0.00     0.114 C 
ATOM     26  O   UNL     1      28.308  32.498  23.256  1.00  0.00    -0.275 OA
ENDBRANCH  13  22
ENDBRANCH   7   8
BRANCH   7  27
ATOM     27  O   UNL     1      27.792  31.382  20.454  1.00  0.00    -0.388 OA
ATOM     28  H   UNL     1      27.889  31.850  21.340  1.00  0.00     0.211 HD
ENDBRANCH   7  27
ENDBRANCH   6   7
BRANCH   6  29
ATOM     29  O   UNL     1      26.859  28.159  21.801  1.00  0.00    -0.388 OA
ATOM     30  H   UNL     1      27.407  27.710  21.138  1.00  0.00     0.211 HD
ENDBRANCH   6  29
ENDBRANCH   5   6
ENDBRANCH   1   5
BRANCH   2  31
ATOM     31  O   UNL     1      24.685  29.256  17.150  1.00  0.00    -0.443 OA
BRANCH  31  32
ATOM     32  C   UNL     1      25.179  30.253  16.271  1.00  0.00     0.294 C 
BRANCH  32  33
ATOM     33  C   UNL     1      26.432  30.850  16.778  1.00  0.00     0.120 A 
ATOM     34  C   UNL     1      27.725  30.321  16.656  1.00  0.00     0.138 A 
ATOM     35  N   UNL     1      26.617  31.993  17.449  1.00  0.00    -0.132 NA
ATOM     36  N   UNL     1      28.616  31.114  17.228  1.00  0.00    -0.248 N 
ATOM     37  N   UNL     1      27.895  32.152  17.716  1.00  0.00    -0.067 NA
BRANCH  36  38
ATOM     38  C   UNL     1      30.047  31.061  17.409  1.00  0.00     0.182 C 
BRANCH  38  39
ATOM     39  C   UNL     1      30.795  32.199  16.892  1.00  0.00    -0.012 A 
ATOM     40  C   UNL     1      31.110  32.295  15.533  1.00  0.00     0.007 A 
ATOM     41  C   UNL     1      31.194  33.232  17.689  1.00  0.00     0.023 A 
ATOM     42  C   UNL     1      31.784  33.386  15.060  1.00  0.00     0.000 A 
ATOM     43  C   UNL     1      31.877  34.334  17.206  1.00  0.00     0.016 A 
ATOM     44  Br  UNL     1      30.869  33.204  19.592  1.00  0.00    -0.050 Br
ATOM     45  C   UNL     1      32.180  34.421  15.871  1.00  0.00     0.001 A 
ENDBRANCH  38  39
ENDBRANCH  36  38
ENDBRANCH  32  33
ENDBRANCH  31  32
ENDBRANCH   2  31
TORSDOF 16
BEGIN_RES LYS A 131
REMARK  4 active torsions:
REMARK  status: ('A' for Active; 'I' for Inactive)
REMARK    1  A    between atoms: CA   and  CB  
REMARK    2  A    between atoms: CB   and  CG  
REMARK    3  A    between atoms: CG   and  CD  
REMARK    4  A    between atoms: CD   and  CE  
ROOT
ATOM      1  CA  LYS A 131      29.867  25.555  16.977  1.00 20.52     0.186 C 
ENDROOT
BRANCH   1   2
ATOM      2  CB  LYS A 131      28.345  25.722  17.026  1.00 20.94     0.034 C 
BRANCH   2   3
ATOM      3  CG  LYS A 131      27.602  24.397  16.946  1.00 22.96     0.005 C 
BRANCH   3   4
ATOM      4  CD  LYS A 131      26.401  24.365  17.849  1.00 24.33     0.041 C 
BRANCH   4   5
ATOM      5  CE  LYS A 131      25.982  25.792  18.190  1.00 26.91     0.338 C 
ATOM      6  NZ  LYS A 131      25.467  25.864  19.578  1.00 27.40     0.618 N 
ENDBRANCH   4   5
ENDBRANCH   3   4
ENDBRANCH   2   3
ENDBRANCH   1   2
END_RES LYS A 131
BEGIN_RES LYS A 135
REMARK  4 active torsions:
REMARK  status: ('A' for Active; 'I' for Inactive)
REMARK    5  A    between atoms: CA   and  CB  
REMARK    6  A    between atoms: CB   and  CG  
REMARK    7  A    between atoms: CG   and  CD  
REMARK    8  A    between atoms: CD   and  CE  
ROOT
ATOM      7  CA  LYS A 135      33.193  34.663   9.290  1.00 25.02     0.186 C 
ENDROOT
BRANCH   7   8
ATOM      8  CB  LYS A 135      32.060  35.360  10.034  1.00 26.63     0.034 C 
BRANCH   8   9
ATOM      9  CG  LYS A 135      30.699  34.786   9.734  1.00 29.45     0.005 C 
BRANCH   9  10
ATOM     10  CD  LYS A 135      30.569  34.461   8.254  1.00 32.00     0.041 C 
BRANCH  10  11
ATOM     11  CE  LYS A 135      29.304  35.073   7.684  1.00 34.25     0.338 C 
ATOM     12  NZ  LYS A 135      29.107  36.462   8.184  1.00 35.99     0.618 N 
ENDBRANCH  10  11
ENDBRANCH   9  10
ENDBRANCH   8   9
ENDBRANCH   7   8
END_RES LYS A 135
