REMARK VINA RESULT:    -7.536      3.045      5.768
REMARK INTER + INTRA:         -12.655
REMARK INTER:                  -8.718
REMARK INTRA:                  -3.937
REMARK UNBOUND:                 3.032
REMARK SMILES CC(=O)N[C@@H]1[C@@H](O)C[C@](O)(C(=O)O)O[C@H]1C(O)[C@H](O)CNC(=O)OCc1cn(C2CC(O)C=C[C@@H](O)C2)nn1
REMARK SMILES IDX 21 1 22 2 23 3 20 5 18 6 16 7 15 8 9 9 8 10 14 11 6 12 5 13
REMARK SMILES IDX 10 14 11 16 12 17 13 18 7 20 4 22 2 23 1 25 3 26 17 27 19 29
REMARK SMILES IDX 24 31 25 32 26 33 27 34 39 35 28 36 38 37 29 38 30 39 31 40
REMARK SMILES IDX 32 42 37 44 35 45 34 46 33 47 36 49
REMARK H PARENT 21 4 10 15 13 19 7 21 4 24 17 28 19 30 32 43 36 50
REMARK Flexibility Score: 90.00
ROOT
ATOM      1  N   UNL     1      30.445  33.438  14.568  1.00  0.00    -0.319 N 
ATOM      2  C   UNL     1      30.137  34.673  13.922  1.00  0.00     0.407 C 
ATOM      3  O   UNL     1      30.822  35.716  14.083  1.00  0.00    -0.225 OA
ATOM      4  H   UNL     1      29.859  32.589  14.416  1.00  0.00     0.167 HD
ENDROOT
BRANCH   1   5
ATOM      5  C   UNL     1      31.619  33.448  15.442  1.00  0.00     0.154 C 
BRANCH   5   6
ATOM      6  C   UNL     1      31.119  33.122  16.837  1.00  0.00     0.165 C 
BRANCH   6   7
ATOM      7  C   UNL     1      30.129  31.979  16.849  1.00  0.00     0.176 C 
BRANCH   7   8
ATOM      8  C   UNL     1      29.798  31.525  18.235  1.00  0.00     0.178 C 
ATOM      9  C   UNL     1      30.328  30.217  20.026  1.00  0.00     0.269 C 
ATOM     10  C   UNL     1      29.179  31.010  20.610  1.00  0.00     0.112 C 
ATOM     11  O   UNL     1      30.757  30.735  18.810  1.00  0.00    -0.332 OA
ATOM     12  C   UNL     1      27.964  30.992  19.705  1.00  0.00     0.145 C 
ATOM     13  C   UNL     1      28.474  30.795  18.306  1.00  0.00     0.142 C 
BRANCH   9  14
ATOM     14  O   UNL     1      30.017  28.865  19.938  1.00  0.00    -0.357 OA
ATOM     15  H   UNL     1      30.146  28.396  20.805  1.00  0.00     0.214 HD
ENDBRANCH   9  14
BRANCH   9  16
ATOM     16  C   UNL     1      31.462  30.356  20.971  1.00  0.00     0.364 C 
ATOM     17  O   UNL     1      32.482  29.616  20.921  1.00  0.00    -0.246 OA
BRANCH  16  18
ATOM     18  O   UNL     1      31.411  31.328  21.945  1.00  0.00    -0.477 OA
ATOM     19  H   UNL     1      30.601  31.910  22.135  1.00  0.00     0.296 HD
ENDBRANCH  16  18
ENDBRANCH   9  16
BRANCH  12  20
ATOM     20  O   UNL     1      27.133  29.988  20.143  1.00  0.00    -0.391 OA
ATOM     21  H   UNL     1      27.459  29.707  21.054  1.00  0.00     0.211 HD
ENDBRANCH  12  20
BRANCH  13  22
ATOM     22  N   UNL     1      27.572  31.148  17.274  1.00  0.00    -0.348 N 
ATOM     23  C   UNL     1      26.883  30.237  16.429  1.00  0.00     0.217 C 
ATOM     24  H   UNL     1      27.388  32.161  17.108  1.00  0.00     0.163 HD
ATOM     25  C   UNL     1      25.949  30.711  15.364  1.00  0.00     0.114 C 
ATOM     26  O   UNL     1      27.087  29.020  16.607  1.00  0.00    -0.275 OA
ENDBRANCH  13  22
ENDBRANCH   7   8
BRANCH   7  27
ATOM     27  O   UNL     1      30.497  30.974  15.989  1.00  0.00    -0.388 OA
ATOM     28  H   UNL     1      31.341  30.582  16.306  1.00  0.00     0.211 HD
ENDBRANCH   7  27
ENDBRANCH   6   7
BRANCH   6  29
ATOM     29  O   UNL     1      30.412  34.236  17.347  1.00  0.00    -0.388 OA
ATOM     30  H   UNL     1      30.426  34.239  18.346  1.00  0.00     0.211 HD
ENDBRANCH   6  29
ENDBRANCH   5   6
ENDBRANCH   1   5
BRANCH   2  31
ATOM     31  O   UNL     1      29.051  34.745  13.084  1.00  0.00    -0.443 OA
BRANCH  31  32
ATOM     32  C   UNL     1      27.752  35.135  13.495  1.00  0.00     0.294 C 
BRANCH  32  33
ATOM     33  C   UNL     1      26.896  35.262  12.293  1.00  0.00     0.120 A 
ATOM     34  C   UNL     1      25.841  36.115  12.060  1.00  0.00     0.138 A 
ATOM     35  N   UNL     1      27.034  34.514  11.181  1.00  0.00    -0.132 NA
ATOM     36  N   UNL     1      25.365  35.870  10.825  1.00  0.00    -0.249 N 
ATOM     37  N   UNL     1      26.119  34.889  10.325  1.00  0.00    -0.067 NA
BRANCH  36  38
ATOM     38  C   UNL     1      24.244  36.554  10.177  1.00  0.00     0.115 C 
BRANCH  38  39
ATOM     39  C   UNL     1      23.519  35.548   9.348  1.00  0.00     0.063 C 
BRANCH  39  40
ATOM     40  C   UNL     1      22.171  35.974   8.885  1.00  0.00     0.139 CG0
ATOM     41  G   UNL     1      22.207  36.999   7.829  1.00  0.00     0.000 G0
BRANCH  40  42
ATOM     42  O   UNL     1      21.349  34.878   8.537  1.00  0.00    -0.389 OA
ATOM     43  H   UNL     1      20.468  35.008   8.948  1.00  0.00     0.211 HD
ENDBRANCH  40  42
ENDBRANCH  39  40
ENDBRANCH  38  39
BRANCH  38  44
ATOM     44  C   UNL     1      24.798  37.704   9.409  1.00  0.00     0.063 C 
BRANCH  44  45
ATOM     45  C   UNL     1      24.682  37.572   7.920  1.00  0.00     0.139 C 
BRANCH  45  46
ATOM     46  C   UNL     1      23.293  37.670   7.421  1.00  0.00     0.002 C 
ATOM     47  C   UNL     1      22.236  37.001   7.823  1.00  0.00     0.002 CG0
ATOM     48  G   UNL     1      22.134  35.974   8.872  1.00  0.00     0.000 G0
ENDBRANCH  45  46
BRANCH  45  49
ATOM     49  O   UNL     1      25.527  38.446   7.238  1.00  0.00    -0.389 OA
ATOM     50  H   UNL     1      26.479  38.259   7.433  1.00  0.00     0.211 HD
ENDBRANCH  45  49
ENDBRANCH  44  45
ENDBRANCH  38  44
ENDBRANCH  36  38
ENDBRANCH  32  33
ENDBRANCH  31  32
ENDBRANCH   2  31
TORSDOF 17
BEGIN_RES LYS A 131
REMARK  4 active torsions:
REMARK  status: ('A' for Active; 'I' for Inactive)
REMARK    1  A    between atoms: CA   and  CB  
REMARK    2  A    between atoms: CB   and  CG  
REMARK    3  A    between atoms: CG   and  CD  
REMARK    4  A    between atoms: CD   and  CE  
ROOT
ATOM      1  CA  LYS A 131      29.867  25.555  16.977  1.00 20.52     0.186 C 
ENDROOT
BRANCH   1   2
ATOM      2  CB  LYS A 131      28.345  25.722  17.026  1.00 20.94     0.034 C 
BRANCH   2   3
ATOM      3  CG  LYS A 131      27.602  24.398  16.934  1.00 22.96     0.005 C 
BRANCH   3   4
ATOM      4  CD  LYS A 131      26.516  24.285  17.968  1.00 24.33     0.041 C 
BRANCH   4   5
ATOM      5  CE  LYS A 131      25.154  24.367  17.285  1.00 26.91     0.338 C 
ATOM      6  NZ  LYS A 131      24.365  23.141  17.552  1.00 27.40     0.618 N 
ENDBRANCH   4   5
ENDBRANCH   3   4
ENDBRANCH   2   3
ENDBRANCH   1   2
END_RES LYS A 131
BEGIN_RES LYS A 135
REMARK  4 active torsions:
REMARK  status: ('A' for Active; 'I' for Inactive)
REMARK    5  A    between atoms: CA   and  CB  
REMARK    6  A    between atoms: CB   and  CG  
REMARK    7  A    between atoms: CG   and  CD  
REMARK    8  A    between atoms: CD   and  CE  
ROOT
ATOM      7  CA  LYS A 135      33.193  34.663   9.290  1.00 25.02     0.186 C 
ENDROOT
BRANCH   7   8
ATOM      8  CB  LYS A 135      32.060  35.360  10.034  1.00 26.63     0.034 C 
BRANCH   8   9
ATOM      9  CG  LYS A 135      30.698  34.794   9.724  1.00 29.45     0.005 C 
BRANCH   9  10
ATOM     10  CD  LYS A 135      30.421  34.851   8.230  1.00 32.00     0.041 C 
BRANCH  10  11
ATOM     11  CE  LYS A 135      29.165  35.655   7.951  1.00 34.25     0.338 C 
ATOM     12  NZ  LYS A 135      28.821  35.627   6.503  1.00 35.99     0.618 N 
ENDBRANCH  10  11
ENDBRANCH   9  10
ENDBRANCH   8   9
ENDBRANCH   7   8
END_RES LYS A 135
