REMARK VINA RESULT:    -4.382      7.559     12.873
REMARK INTER + INTRA:         -14.912
REMARK INTER:                  -6.919
REMARK INTRA:                  -7.993
REMARK UNBOUND:                -5.918
REMARK SMILES CC(=O)N[C@@H]1[C@@H](O)C[C@](O)(C(=O)O)O[C@H]1C(O)[C@H](O)CNC(=O)OCc1cn(CCCCCC(=O)O)nn1
REMARK SMILES IDX 25 1 24 2 22 3 21 4 23 6 20 7 18 8 16 9 15 10 9 11 8 12
REMARK SMILES IDX 14 13 6 14 5 15 10 16 11 18 12 19 13 20 7 22 4 24 2 25 1 27
REMARK SMILES IDX 3 28 17 29 19 31 26 33 27 34 38 35 28 36 37 37 29 38 30 39
REMARK SMILES IDX 31 40 32 41 33 42 34 43 35 44 36 45
REMARK H PARENT 21 5 10 17 13 21 7 23 4 26 17 30 19 32 36 46
REMARK Flexibility Score: inf
ROOT
ATOM      1  C   UNL     1      27.732  31.382  23.032  1.00  0.00     0.294 C 
ENDROOT
BRANCH   1   2
ATOM      2  O   UNL     1      28.867  32.239  23.080  1.00  0.00    -0.443 OA
BRANCH   2   3
ATOM      3  C   UNL     1      28.914  33.305  22.174  1.00  0.00     0.407 C 
ATOM      4  N   UNL     1      30.122  33.519  21.451  1.00  0.00    -0.319 N 
ATOM      5  H   UNL     1      30.923  32.857  21.631  1.00  0.00     0.167 HD
ATOM      6  O   UNL     1      27.890  34.021  22.047  1.00  0.00    -0.225 OA
BRANCH   4   7
ATOM      7  C   UNL     1      30.196  34.603  20.525  1.00  0.00     0.154 C 
BRANCH   7   8
ATOM      8  C   UNL     1      30.437  34.195  19.091  1.00  0.00     0.165 C 
BRANCH   8   9
ATOM      9  C   UNL     1      29.168  33.555  18.563  1.00  0.00     0.176 C 
BRANCH   9  10
ATOM     10  C   UNL     1      29.033  33.574  17.077  1.00  0.00     0.178 C 
ATOM     11  C   UNL     1      28.671  31.264  16.937  1.00  0.00     0.269 C 
ATOM     12  C   UNL     1      30.151  31.144  16.536  1.00  0.00     0.112 C 
ATOM     13  O   UNL     1      28.217  32.529  16.695  1.00  0.00    -0.332 OA
ATOM     14  C   UNL     1      30.372  32.237  15.519  1.00  0.00     0.145 C 
ATOM     15  C   UNL     1      30.290  33.571  16.283  1.00  0.00     0.142 C 
BRANCH  11  16
ATOM     16  O   UNL     1      28.494  30.807  18.240  1.00  0.00    -0.357 OA
ATOM     17  H   UNL     1      27.517  30.665  18.450  1.00  0.00     0.214 HD
ENDBRANCH  11  16
BRANCH  11  18
ATOM     18  C   UNL     1      27.932  30.344  16.035  1.00  0.00     0.364 C 
ATOM     19  O   UNL     1      26.794  30.678  15.588  1.00  0.00    -0.246 OA
BRANCH  18  20
ATOM     20  O   UNL     1      28.507  29.133  15.698  1.00  0.00    -0.477 OA
ATOM     21  H   UNL     1      28.789  28.534  16.488  1.00  0.00     0.296 HD
ENDBRANCH  18  20
ENDBRANCH  11  18
BRANCH  14  22
ATOM     22  O   UNL     1      31.609  32.119  14.884  1.00  0.00    -0.391 OA
ATOM     23  H   UNL     1      31.433  31.720  13.992  1.00  0.00     0.211 HD
ENDBRANCH  14  22
BRANCH  15  24
ATOM     24  N   UNL     1      30.343  34.669  15.328  1.00  0.00    -0.348 N 
ATOM     25  C   UNL     1      31.400  35.598  15.283  1.00  0.00     0.217 C 
ATOM     26  H   UNL     1      29.547  34.767  14.635  1.00  0.00     0.163 HD
ATOM     27  C   UNL     1      31.424  36.726  14.283  1.00  0.00     0.114 C 
ATOM     28  O   UNL     1      32.351  35.472  16.114  1.00  0.00    -0.275 OA
ENDBRANCH  15  24
ENDBRANCH   9  10
BRANCH   9  29
ATOM     29  O   UNL     1      28.135  34.411  19.042  1.00  0.00    -0.388 OA
ATOM     30  H   UNL     1      27.598  34.643  18.249  1.00  0.00     0.211 HD
ENDBRANCH   9  29
ENDBRANCH   8   9
BRANCH   8  31
ATOM     31  O   UNL     1      31.529  33.355  19.062  1.00  0.00    -0.388 OA
ATOM     32  H   UNL     1      31.458  32.645  19.746  1.00  0.00     0.211 HD
ENDBRANCH   8  31
ENDBRANCH   7   8
ENDBRANCH   4   7
ENDBRANCH   2   3
ENDBRANCH   1   2
BRANCH   1  33
ATOM     33  C   UNL     1      28.202  30.109  22.440  1.00  0.00     0.120 A 
ATOM     34  C   UNL     1      28.839  29.119  23.160  1.00  0.00     0.138 A 
ATOM     35  N   UNL     1      28.107  29.692  21.178  1.00  0.00    -0.132 NA
ATOM     36  N   UNL     1      29.101  28.137  22.270  1.00  0.00    -0.252 N 
ATOM     37  N   UNL     1      28.659  28.489  21.083  1.00  0.00    -0.067 NA
BRANCH  36  38
ATOM     38  C   UNL     1      29.784  26.903  22.665  1.00  0.00     0.146 C 
BRANCH  38  39
ATOM     39  C   UNL     1      31.017  27.289  23.440  1.00  0.00     0.024 C 
BRANCH  39  40
ATOM     40  C   UNL     1      32.267  27.309  22.586  1.00  0.00     0.002 C 
BRANCH  40  41
ATOM     41  C   UNL     1      32.699  28.689  22.229  1.00  0.00     0.012 C 
BRANCH  41  42
ATOM     42  C   UNL     1      32.285  29.122  20.849  1.00  0.00     0.122 C 
BRANCH  42  43
ATOM     43  C   UNL     1      31.697  30.469  20.797  1.00  0.00     0.303 C 
ATOM     44  O   UNL     1      32.194  31.413  21.431  1.00  0.00    -0.252 OA
BRANCH  43  45
ATOM     45  O   UNL     1      30.551  30.721  20.024  1.00  0.00    -0.481 OA
ATOM     46  H   UNL     1      30.089  31.635  20.071  1.00  0.00     0.296 HD
ENDBRANCH  43  45
ENDBRANCH  42  43
ENDBRANCH  41  42
ENDBRANCH  40  41
ENDBRANCH  39  40
ENDBRANCH  38  39
ENDBRANCH  36  38
ENDBRANCH   1  33
TORSDOF 21
BEGIN_RES LYS A 131
REMARK  4 active torsions:
REMARK  status: ('A' for Active; 'I' for Inactive)
REMARK    1  A    between atoms: CA   and  CB  
REMARK    2  A    between atoms: CB   and  CG  
REMARK    3  A    between atoms: CG   and  CD  
REMARK    4  A    between atoms: CD   and  CE  
ROOT
ATOM      1  CA  LYS A 131      29.867  25.555  16.977  1.00 20.52     0.186 C 
ENDROOT
BRANCH   1   2
ATOM      2  CB  LYS A 131      28.345  25.722  17.026  1.00 20.94     0.034 C 
BRANCH   2   3
ATOM      3  CG  LYS A 131      27.602  24.400  16.914  1.00 22.96     0.005 C 
BRANCH   3   4
ATOM      4  CD  LYS A 131      26.141  24.542  17.242  1.00 24.33     0.041 C 
BRANCH   4   5
ATOM      5  CE  LYS A 131      25.603  23.210  17.754  1.00 26.91     0.338 C 
ATOM      6  NZ  LYS A 131      25.537  23.211  19.235  1.00 27.40     0.618 N 
ENDBRANCH   4   5
ENDBRANCH   3   4
ENDBRANCH   2   3
ENDBRANCH   1   2
END_RES LYS A 131
BEGIN_RES LYS A 135
REMARK  4 active torsions:
REMARK  status: ('A' for Active; 'I' for Inactive)
REMARK    5  A    between atoms: CA   and  CB  
REMARK    6  A    between atoms: CB   and  CG  
REMARK    7  A    between atoms: CG   and  CD  
REMARK    8  A    between atoms: CD   and  CE  
ROOT
ATOM      7  CA  LYS A 135      33.193  34.663   9.290  1.00 25.02     0.186 C 
ENDROOT
BRANCH   7   8
ATOM      8  CB  LYS A 135      32.060  35.360  10.034  1.00 26.63     0.034 C 
BRANCH   8   9
ATOM      9  CG  LYS A 135      30.725  34.681   9.871  1.00 29.45     0.005 C 
BRANCH   9  10
ATOM     10  CD  LYS A 135      30.292  34.690   8.413  1.00 32.00     0.041 C 
BRANCH  10  11
ATOM     11  CE  LYS A 135      28.788  34.532   8.302  1.00 34.25     0.338 C 
ATOM     12  NZ  LYS A 135      28.237  33.802   9.478  1.00 35.99     0.618 N 
ENDBRANCH  10  11
ENDBRANCH   9  10
ENDBRANCH   8   9
ENDBRANCH   7   8
END_RES LYS A 135
