REMARK VINA RESULT:    -5.348      3.228      6.206
REMARK INTER + INTRA:         -14.282
REMARK INTER:                  -8.601
REMARK INTRA:                  -5.681
REMARK UNBOUND:                -5.026
REMARK SMILES CC(=O)N[C@@H]1[C@@H](O)C[C@](O)(C(=O)O)O[C@H]1C(O)[C@H](O)CNC(=O)OCc1cn(C2CCCC2)nn1
REMARK SMILES IDX 20 1 18 2 16 3 15 4 9 5 8 6 14 7 6 8 5 9 10 10 11 12 12 13
REMARK SMILES IDX 13 14 7 16 4 18 2 19 1 21 3 22 17 23 19 25 21 27 22 28 23 30
REMARK SMILES IDX 24 31 25 32 26 33 27 34 35 35 28 36 34 37 29 38 30 39 33 40
REMARK SMILES IDX 31 41 32 42
REMARK H PARENT 10 11 13 15 7 17 4 20 17 24 19 26 21 29
REMARK Flexibility Score: inf
ROOT
ATOM      1  C   UNL     1      25.976  28.457  20.903  1.00  0.00     0.154 C 
ENDROOT
BRANCH   1   2
ATOM      2  C   UNL     1      27.439  28.129  21.013  1.00  0.00     0.165 C 
BRANCH   2   3
ATOM      3  C   UNL     1      28.151  29.000  19.997  1.00  0.00     0.176 C 
BRANCH   3   4
ATOM      4  C   UNL     1      29.591  29.219  20.336  1.00  0.00     0.178 C 
ATOM      5  C   UNL     1      31.137  28.753  21.998  1.00  0.00     0.269 C 
ATOM      6  C   UNL     1      32.015  29.547  21.043  1.00  0.00     0.112 C 
ATOM      7  O   UNL     1      29.802  29.010  21.679  1.00  0.00    -0.332 OA
ATOM      8  C   UNL     1      31.316  30.869  20.797  1.00  0.00     0.145 C 
ATOM      9  C   UNL     1      30.115  30.562  19.911  1.00  0.00     0.142 C 
BRANCH   5  10
ATOM     10  O   UNL     1      31.436  29.205  23.278  1.00  0.00    -0.357 OA
ATOM     11  H   UNL     1      31.372  28.409  23.891  1.00  0.00     0.214 HD
ENDBRANCH   5  10
BRANCH   5  12
ATOM     12  C   UNL     1      31.406  27.312  21.927  1.00  0.00     0.364 C 
ATOM     13  O   UNL     1      30.484  26.466  22.033  1.00  0.00    -0.246 OA
BRANCH  12  14
ATOM     14  O   UNL     1      32.695  26.841  21.740  1.00  0.00    -0.477 OA
ATOM     15  H   UNL     1      33.517  27.457  21.782  1.00  0.00     0.296 HD
ENDBRANCH  12  14
ENDBRANCH   5  12
BRANCH   8  16
ATOM     16  O   UNL     1      30.870  31.330  22.047  1.00  0.00    -0.391 OA
ATOM     17  H   UNL     1      31.592  31.902  22.417  1.00  0.00     0.211 HD
ENDBRANCH   8  16
BRANCH   9  18
ATOM     18  N   UNL     1      30.545  30.570  18.528  1.00  0.00    -0.348 N 
ATOM     19  C   UNL     1      29.880  31.361  17.565  1.00  0.00     0.217 C 
ATOM     20  H   UNL     1      31.351  29.991  18.231  1.00  0.00     0.163 HD
ATOM     21  C   UNL     1      30.267  31.417  16.134  1.00  0.00     0.114 C 
ATOM     22  O   UNL     1      28.908  32.056  17.941  1.00  0.00    -0.275 OA
ENDBRANCH   9  18
ENDBRANCH   3   4
BRANCH   3  23
ATOM     23  O   UNL     1      28.096  28.315  18.782  1.00  0.00    -0.388 OA
ATOM     24  H   UNL     1      28.767  27.608  18.698  1.00  0.00     0.211 HD
ENDBRANCH   3  23
ENDBRANCH   2   3
BRANCH   2  25
ATOM     25  O   UNL     1      27.694  26.803  20.752  1.00  0.00    -0.388 OA
ATOM     26  H   UNL     1      28.546  26.726  20.244  1.00  0.00     0.211 HD
ENDBRANCH   2  25
ENDBRANCH   1   2
BRANCH   1  27
ATOM     27  N   UNL     1      25.367  28.177  19.641  1.00  0.00    -0.319 N 
ATOM     28  C   UNL     1      24.746  26.979  19.271  1.00  0.00     0.407 C 
ATOM     29  H   UNL     1      25.396  28.966  18.919  1.00  0.00     0.167 HD
ATOM     30  O   UNL     1      24.692  26.022  20.077  1.00  0.00    -0.225 OA
BRANCH  28  31
ATOM     31  O   UNL     1      24.175  26.839  17.992  1.00  0.00    -0.443 OA
BRANCH  31  32
ATOM     32  C   UNL     1      23.204  27.794  17.608  1.00  0.00     0.294 C 
BRANCH  32  33
ATOM     33  C   UNL     1      23.759  28.601  16.499  1.00  0.00     0.120 A 
ATOM     34  C   UNL     1      23.180  28.679  15.239  1.00  0.00     0.138 A 
ATOM     35  N   UNL     1      24.842  29.367  16.450  1.00  0.00    -0.132 NA
ATOM     36  N   UNL     1      23.936  29.485  14.496  1.00  0.00    -0.249 N 
ATOM     37  N   UNL     1      24.943  29.896  15.242  1.00  0.00    -0.067 NA
BRANCH  36  38
ATOM     38  C   UNL     1      23.644  29.812  13.104  1.00  0.00     0.109 C 
ATOM     39  C   UNL     1      22.367  29.115  12.731  1.00  0.00     0.027 C 
ATOM     40  C   UNL     1      23.389  31.299  12.995  1.00  0.00     0.027 C 
ATOM     41  C   UNL     1      21.424  30.172  12.251  1.00  0.00     0.002 C 
ATOM     42  C   UNL     1      21.875  31.415  12.968  1.00  0.00     0.002 C 
ENDBRANCH  36  38
ENDBRANCH  32  33
ENDBRANCH  31  32
ENDBRANCH  28  31
ENDBRANCH   1  27
TORSDOF 15
BEGIN_RES LYS A 131
REMARK  4 active torsions:
REMARK  status: ('A' for Active; 'I' for Inactive)
REMARK    1  A    between atoms: CA   and  CB  
REMARK    2  A    between atoms: CB   and  CG  
REMARK    3  A    between atoms: CG   and  CD  
REMARK    4  A    between atoms: CD   and  CE  
ROOT
ATOM      1  CA  LYS A 131      29.867  25.555  16.977  1.00 20.52     0.186 C 
ENDROOT
BRANCH   1   2
ATOM      2  CB  LYS A 131      28.345  25.722  17.026  1.00 20.94     0.034 C 
BRANCH   2   3
ATOM      3  CG  LYS A 131      27.600  24.412  16.822  1.00 22.96     0.005 C 
BRANCH   3   4
ATOM      4  CD  LYS A 131      26.766  24.043  18.017  1.00 24.33     0.041 C 
BRANCH   4   5
ATOM      5  CE  LYS A 131      25.730  22.999  17.612  1.00 26.91     0.338 C 
ATOM      6  NZ  LYS A 131      24.529  23.653  17.043  1.00 27.40     0.618 N 
ENDBRANCH   4   5
ENDBRANCH   3   4
ENDBRANCH   2   3
ENDBRANCH   1   2
END_RES LYS A 131
BEGIN_RES LYS A 135
REMARK  4 active torsions:
REMARK  status: ('A' for Active; 'I' for Inactive)
REMARK    5  A    between atoms: CA   and  CB  
REMARK    6  A    between atoms: CB   and  CG  
REMARK    7  A    between atoms: CG   and  CD  
REMARK    8  A    between atoms: CD   and  CE  
ROOT
ATOM      7  CA  LYS A 135      33.193  34.663   9.290  1.00 25.02     0.186 C 
ENDROOT
BRANCH   7   8
ATOM      8  CB  LYS A 135      32.060  35.360  10.034  1.00 26.63     0.034 C 
BRANCH   8   9
ATOM      9  CG  LYS A 135      30.732  34.660   9.902  1.00 29.45     0.005 C 
BRANCH   9  10
ATOM     10  CD  LYS A 135      30.342  34.521   8.439  1.00 32.00     0.041 C 
BRANCH  10  11
ATOM     11  CE  LYS A 135      28.833  34.553   8.285  1.00 34.25     0.338 C 
ATOM     12  NZ  LYS A 135      28.164  33.842   9.409  1.00 35.99     0.618 N 
ENDBRANCH  10  11
ENDBRANCH   9  10
ENDBRANCH   8   9
ENDBRANCH   7   8
END_RES LYS A 135
