REMARK VINA RESULT:    -5.018      7.778     12.599
REMARK INTER + INTRA:         -13.697
REMARK INTER:                  -8.685
REMARK INTRA:                  -5.012
REMARK UNBOUND:                -5.012
REMARK SMILES CC(=O)N[C@@H]1[C@@H](O)C[C@](O)(C(=O)O)O[C@H]1C(O)[C@H](O)CNC(=O)OCc1cn(-c2ccc(C)cc2)nn1
REMARK SMILES IDX 20 1 18 2 16 3 15 4 9 5 8 6 14 7 6 8 5 9 10 10 11 12 12 13
REMARK SMILES IDX 13 14 7 16 4 18 2 19 1 21 3 22 17 23 19 25 21 27 22 28 23 30
REMARK SMILES IDX 24 31 25 32 26 33 27 34 37 35 28 36 36 37 29 38 30 39 35 40
REMARK SMILES IDX 31 41 34 42 32 43 33 44
REMARK H PARENT 10 11 13 15 7 17 4 20 17 24 19 26 21 29
REMARK Flexibility Score: inf
ROOT
ATOM      1  C   UNL     1      33.392  44.155   6.849  1.00  0.00     0.154 C 
ENDROOT
BRANCH   1   2
ATOM      2  C   UNL     1      34.041  43.084   7.623  1.00  0.00     0.165 C 
BRANCH   2   3
ATOM      3  C   UNL     1      34.819  42.026   6.909  1.00  0.00     0.176 C 
BRANCH   3   4
ATOM      4  C   UNL     1      34.248  40.644   6.920  1.00  0.00     0.178 C 
ATOM      5  C   UNL     1      35.605  39.561   5.347  1.00  0.00     0.269 C 
ATOM      6  C   UNL     1      34.429  39.167   4.471  1.00  0.00     0.112 C 
ATOM      7  O   UNL     1      35.287  39.739   6.656  1.00  0.00    -0.332 OA
ATOM      8  C   UNL     1      33.284  40.137   4.716  1.00  0.00     0.145 C 
ATOM      9  C   UNL     1      33.016  40.337   6.172  1.00  0.00     0.142 C 
BRANCH   5  10
ATOM     10  O   UNL     1      36.213  40.633   4.738  1.00  0.00    -0.357 OA
ATOM     11  H   UNL     1      37.009  40.400   4.193  1.00  0.00     0.214 HD
ENDBRANCH   5  10
BRANCH   5  12
ATOM     12  C   UNL     1      36.546  38.398   5.283  1.00  0.00     0.364 C 
ATOM     13  O   UNL     1      37.743  38.525   4.889  1.00  0.00    -0.246 OA
BRANCH  12  14
ATOM     14  O   UNL     1      36.116  37.142   5.659  1.00  0.00    -0.477 OA
ATOM     15  H   UNL     1      35.750  36.506   4.947  1.00  0.00     0.296 HD
ENDBRANCH  12  14
ENDBRANCH   5  12
BRANCH   8  16
ATOM     16  O   UNL     1      33.745  41.349   4.199  1.00  0.00    -0.391 OA
ATOM     17  H   UNL     1      33.010  41.881   3.800  1.00  0.00     0.211 HD
ENDBRANCH   8  16
BRANCH   9  18
ATOM     18  N   UNL     1      32.412  39.187   6.818  1.00  0.00    -0.348 N 
ATOM     19  C   UNL     1      31.474  39.287   7.859  1.00  0.00     0.217 C 
ATOM     20  H   UNL     1      32.719  38.260   6.457  1.00  0.00     0.163 HD
ATOM     21  C   UNL     1      30.842  38.138   8.534  1.00  0.00     0.114 C 
ATOM     22  O   UNL     1      31.174  40.442   8.216  1.00  0.00    -0.275 OA
ENDBRANCH   9  18
ENDBRANCH   3   4
BRANCH   3  23
ATOM     23  O   UNL     1      35.991  41.821   7.776  1.00  0.00    -0.388 OA
ATOM     24  H   UNL     1      35.646  41.807   8.708  1.00  0.00     0.211 HD
ENDBRANCH   3  23
ENDBRANCH   2   3
BRANCH   2  25
ATOM     25  O   UNL     1      33.227  42.596   8.634  1.00  0.00    -0.388 OA
ATOM     26  H   UNL     1      32.282  42.929   8.542  1.00  0.00     0.211 HD
ENDBRANCH   2  25
ENDBRANCH   1   2
BRANCH   1  27
ATOM     27  N   UNL     1      32.521  43.693   5.766  1.00  0.00    -0.319 N 
ATOM     28  C   UNL     1      31.158  43.390   5.984  1.00  0.00     0.407 C 
ATOM     29  H   UNL     1      32.873  43.558   4.782  1.00  0.00     0.167 HD
ATOM     30  O   UNL     1      30.674  43.512   7.114  1.00  0.00    -0.225 OA
BRANCH  28  31
ATOM     31  O   UNL     1      30.310  42.949   4.967  1.00  0.00    -0.443 OA
BRANCH  31  32
ATOM     32  C   UNL     1      28.934  42.802   5.231  1.00  0.00     0.294 C 
BRANCH  32  33
ATOM     33  C   UNL     1      28.453  41.430   5.038  1.00  0.00     0.121 A 
ATOM     34  C   UNL     1      28.398  40.489   6.045  1.00  0.00     0.144 A 
ATOM     35  N   UNL     1      27.988  40.794   3.944  1.00  0.00    -0.131 NA
ATOM     36  N   UNL     1      27.914  39.327   5.560  1.00  0.00    -0.220 N 
ATOM     37  N   UNL     1      27.677  39.549   4.285  1.00  0.00    -0.062 NA
BRANCH  36  38
ATOM     38  C   UNL     1      27.688  38.092   6.237  1.00  0.00     0.066 A 
ATOM     39  C   UNL     1      28.298  36.928   5.816  1.00  0.00     0.029 A 
ATOM     40  C   UNL     1      26.856  37.999   7.334  1.00  0.00     0.029 A 
ATOM     41  C   UNL     1      28.088  35.725   6.462  1.00  0.00     0.005 A 
ATOM     42  C   UNL     1      26.642  36.801   7.983  1.00  0.00     0.005 A 
ATOM     43  C   UNL     1      27.255  35.642   7.558  1.00  0.00    -0.051 A 
ATOM     44  C   UNL     1      26.997  34.371   8.284  1.00  0.00     0.044 C 
ENDBRANCH  36  38
ENDBRANCH  32  33
ENDBRANCH  31  32
ENDBRANCH  28  31
ENDBRANCH   1  27
TORSDOF 15
BEGIN_RES LYS A 131
REMARK  4 active torsions:
REMARK  status: ('A' for Active; 'I' for Inactive)
REMARK    1  A    between atoms: CA   and  CB  
REMARK    2  A    between atoms: CB   and  CG  
REMARK    3  A    between atoms: CG   and  CD  
REMARK    4  A    between atoms: CD   and  CE  
ROOT
ATOM      1  CA  LYS A 131      29.867  25.555  16.977  1.00 20.52     0.186 C 
ENDROOT
BRANCH   1   2
ATOM      2  CB  LYS A 131      28.345  25.722  17.026  1.00 20.94     0.034 C 
BRANCH   2   3
ATOM      3  CG  LYS A 131      27.601  24.402  16.896  1.00 22.96     0.005 C 
BRANCH   3   4
ATOM      4  CD  LYS A 131      26.684  24.151  18.061  1.00 24.33     0.041 C 
BRANCH   4   5
ATOM      5  CE  LYS A 131      25.390  24.935  17.868  1.00 26.91     0.338 C 
ATOM      6  NZ  LYS A 131      24.532  24.277  16.854  1.00 27.40     0.618 N 
ENDBRANCH   4   5
ENDBRANCH   3   4
ENDBRANCH   2   3
ENDBRANCH   1   2
END_RES LYS A 131
BEGIN_RES LYS A 135
REMARK  4 active torsions:
REMARK  status: ('A' for Active; 'I' for Inactive)
REMARK    5  A    between atoms: CA   and  CB  
REMARK    6  A    between atoms: CB   and  CG  
REMARK    7  A    between atoms: CG   and  CD  
REMARK    8  A    between atoms: CD   and  CE  
ROOT
ATOM      7  CA  LYS A 135      33.193  34.663   9.290  1.00 25.02     0.186 C 
ENDROOT
BRANCH   7   8
ATOM      8  CB  LYS A 135      32.060  35.360  10.034  1.00 26.63     0.034 C 
BRANCH   8   9
ATOM      9  CG  LYS A 135      30.766  34.587  10.022  1.00 29.45     0.005 C 
BRANCH   9  10
ATOM     10  CD  LYS A 135      29.619  35.455  10.516  1.00 32.00     0.041 C 
BRANCH  10  11
ATOM     11  CE  LYS A 135      28.983  34.845  11.750  1.00 34.25     0.338 C 
ATOM     12  NZ  LYS A 135      30.014  34.482  12.761  1.00 35.99     0.618 N 
ENDBRANCH  10  11
ENDBRANCH   9  10
ENDBRANCH   8   9
ENDBRANCH   7   8
END_RES LYS A 135
