REMARK VINA RESULT:    -5.201      3.574      7.139
REMARK INTER + INTRA:         -14.028
REMARK INTER:                  -7.863
REMARK INTRA:                  -6.165
REMARK UNBOUND:                -5.026
REMARK SMILES CC(=O)N[C@@H]1[C@@H](O)C[C@](O)(C(=O)O)O[C@H]1C(O)[C@H](O)CNC(=O)OCc1cn(C2CCCC2)nn1
REMARK SMILES IDX 20 1 18 2 16 3 15 4 9 5 8 6 14 7 6 8 5 9 10 10 11 12 12 13
REMARK SMILES IDX 13 14 7 16 4 18 2 19 1 21 3 22 17 23 19 25 21 27 22 28 23 30
REMARK SMILES IDX 24 31 25 32 26 33 27 34 35 35 28 36 34 37 29 38 30 39 33 40
REMARK SMILES IDX 31 41 32 42
REMARK H PARENT 10 11 13 15 7 17 4 20 17 24 19 26 21 29
REMARK Flexibility Score: inf
ROOT
ATOM      1  C   UNL     1      27.353  30.922  20.205  1.00  0.00     0.154 C 
ENDROOT
BRANCH   1   2
ATOM      2  C   UNL     1      28.769  31.393  20.386  1.00  0.00     0.165 C 
BRANCH   2   3
ATOM      3  C   UNL     1      29.653  30.350  19.731  1.00  0.00     0.176 C 
BRANCH   3   4
ATOM      4  C   UNL     1      30.190  29.355  20.710  1.00  0.00     0.178 C 
ATOM      5  C   UNL     1      32.073  28.931  21.993  1.00  0.00     0.269 C 
ATOM      6  C   UNL     1      31.229  27.721  22.364  1.00  0.00     0.112 C 
ATOM      7  O   UNL     1      31.555  29.480  20.818  1.00  0.00    -0.332 OA
ATOM      8  C   UNL     1      30.841  27.040  21.068  1.00  0.00     0.145 C 
ATOM      9  C   UNL     1      29.802  27.935  20.405  1.00  0.00     0.142 C 
BRANCH   5  10
ATOM     10  O   UNL     1      33.367  28.465  21.795  1.00  0.00    -0.357 OA
ATOM     11  H   UNL     1      33.319  27.460  21.799  1.00  0.00     0.214 HD
ENDBRANCH   5  10
BRANCH   5  12
ATOM     12  C   UNL     1      32.089  29.941  23.058  1.00  0.00     0.364 C 
ATOM     13  O   UNL     1      32.130  29.617  24.272  1.00  0.00    -0.246 OA
BRANCH  12  14
ATOM     14  O   UNL     1      32.058  31.292  22.754  1.00  0.00    -0.477 OA
ATOM     15  H   UNL     1      32.656  31.978  23.233  1.00  0.00     0.296 HD
ENDBRANCH  12  14
ENDBRANCH   5  12
BRANCH   8  16
ATOM     16  O   UNL     1      31.998  26.997  20.271  1.00  0.00    -0.391 OA
ATOM     17  H   UNL     1      31.723  27.250  19.350  1.00  0.00     0.211 HD
ENDBRANCH   8  16
BRANCH   9  18
ATOM     18  N   UNL     1      28.495  27.599  20.934  1.00  0.00    -0.348 N 
ATOM     19  C   UNL     1      27.443  27.211  20.076  1.00  0.00     0.217 C 
ATOM     20  H   UNL     1      28.322  27.639  21.955  1.00  0.00     0.163 HD
ATOM     21  C   UNL     1      26.083  26.854  20.550  1.00  0.00     0.114 C 
ATOM     22  O   UNL     1      27.670  27.167  18.846  1.00  0.00    -0.275 OA
ENDBRANCH   9  18
ENDBRANCH   3   4
BRANCH   3  23
ATOM     23  O   UNL     1      28.847  29.663  18.821  1.00  0.00    -0.388 OA
ATOM     24  H   UNL     1      29.183  29.683  17.904  1.00  0.00     0.211 HD
ENDBRANCH   3  23
ENDBRANCH   2   3
BRANCH   2  25
ATOM     25  O   UNL     1      29.107  31.523  21.713  1.00  0.00    -0.388 OA
ATOM     26  H   UNL     1      28.358  31.191  22.277  1.00  0.00     0.211 HD
ENDBRANCH   2  25
ENDBRANCH   1   2
BRANCH   1  27
ATOM     27  N   UNL     1      26.677  31.409  19.045  1.00  0.00    -0.319 N 
ATOM     28  C   UNL     1      25.573  30.818  18.422  1.00  0.00     0.407 C 
ATOM     29  H   UNL     1      27.062  32.313  18.621  1.00  0.00     0.167 HD
ATOM     30  O   UNL     1      25.089  29.755  18.874  1.00  0.00    -0.225 OA
BRANCH  28  31
ATOM     31  O   UNL     1      24.996  31.412  17.284  1.00  0.00    -0.443 OA
BRANCH  31  32
ATOM     32  C   UNL     1      25.322  30.853  16.025  1.00  0.00     0.294 C 
BRANCH  32  33
ATOM     33  C   UNL     1      26.794  30.860  15.881  1.00  0.00     0.120 A 
ATOM     34  C   UNL     1      27.522  31.971  15.478  1.00  0.00     0.138 A 
ATOM     35  N   UNL     1      27.683  29.895  16.084  1.00  0.00    -0.132 NA
ATOM     36  N   UNL     1      28.809  31.625  15.457  1.00  0.00    -0.249 N 
ATOM     37  N   UNL     1      28.894  30.362  15.827  1.00  0.00    -0.067 NA
BRANCH  36  38
ATOM     38  C   UNL     1      29.886  32.536  15.080  1.00  0.00     0.109 C 
ATOM     39  C   UNL     1      29.502  33.911  15.548  1.00  0.00     0.027 C 
ATOM     40  C   UNL     1      31.140  32.144  15.828  1.00  0.00     0.027 C 
ATOM     41  C   UNL     1      30.607  34.388  16.435  1.00  0.00     0.002 C 
ATOM     42  C   UNL     1      31.202  33.122  16.988  1.00  0.00     0.002 C 
ENDBRANCH  36  38
ENDBRANCH  32  33
ENDBRANCH  31  32
ENDBRANCH  28  31
ENDBRANCH   1  27
TORSDOF 15
BEGIN_RES LYS A 131
REMARK  4 active torsions:
REMARK  status: ('A' for Active; 'I' for Inactive)
REMARK    1  A    between atoms: CA   and  CB  
REMARK    2  A    between atoms: CB   and  CG  
REMARK    3  A    between atoms: CG   and  CD  
REMARK    4  A    between atoms: CD   and  CE  
ROOT
ATOM      1  CA  LYS A 131      29.867  25.555  16.977  1.00 20.52     0.186 C 
ENDROOT
BRANCH   1   2
ATOM      2  CB  LYS A 131      28.345  25.722  17.026  1.00 20.94     0.034 C 
BRANCH   2   3
ATOM      3  CG  LYS A 131      27.603  24.396  16.960  1.00 22.96     0.005 C 
BRANCH   3   4
ATOM      4  CD  LYS A 131      26.111  24.579  17.001  1.00 24.33     0.041 C 
BRANCH   4   5
ATOM      5  CE  LYS A 131      25.474  23.406  17.738  1.00 26.91     0.338 C 
ATOM      6  NZ  LYS A 131      25.874  23.410  19.164  1.00 27.40     0.618 N 
ENDBRANCH   4   5
ENDBRANCH   3   4
ENDBRANCH   2   3
ENDBRANCH   1   2
END_RES LYS A 131
BEGIN_RES LYS A 135
REMARK  4 active torsions:
REMARK  status: ('A' for Active; 'I' for Inactive)
REMARK    5  A    between atoms: CA   and  CB  
REMARK    6  A    between atoms: CB   and  CG  
REMARK    7  A    between atoms: CG   and  CD  
REMARK    8  A    between atoms: CD   and  CE  
ROOT
ATOM      7  CA  LYS A 135      33.193  34.663   9.290  1.00 25.02     0.186 C 
ENDROOT
BRANCH   7   8
ATOM      8  CB  LYS A 135      32.060  35.360  10.034  1.00 26.63     0.034 C 
BRANCH   8   9
ATOM      9  CG  LYS A 135      30.733  34.657   9.907  1.00 29.45     0.005 C 
BRANCH   9  10
ATOM     10  CD  LYS A 135      30.330  34.533   8.446  1.00 32.00     0.041 C 
BRANCH  10  11
ATOM     11  CE  LYS A 135      28.819  34.540   8.308  1.00 34.25     0.338 C 
ATOM     12  NZ  LYS A 135      28.174  33.816   9.437  1.00 35.99     0.618 N 
ENDBRANCH  10  11
ENDBRANCH   9  10
ENDBRANCH   8   9
ENDBRANCH   7   8
END_RES LYS A 135
