REMARK VINA RESULT:    -4.894      2.431      5.994
REMARK INTER + INTRA:         -14.447
REMARK INTER:                  -8.764
REMARK INTRA:                  -5.683
REMARK UNBOUND:                -5.118
REMARK SMILES COc1ccc(Cn2cc(COC(=O)NC[C@@H](O)C(O)[C@@H]3O[C@@](O)(C(=O)O)C[C@H](O)[C@H]3NC(C)=O)nn2)cc1OC
REMARK SMILES IDX 15 1 13 2 14 3 16 5 17 6 19 7 21 8 23 9 28 10 22 11 29 12
REMARK SMILES IDX 31 13 24 14 25 16 26 17 27 18 30 20 32 22 33 23 34 25 35 26
REMARK SMILES IDX 20 27 18 29 12 31 11 32 10 33 9 34 36 35 8 36 37 37 7 38
REMARK SMILES IDX 6 39 38 40 5 41 39 42 4 43 3 44 40 45 41 46 2 47 1 48
REMARK H PARENT 15 4 24 15 27 19 30 21 32 24 20 28 18 30
REMARK Flexibility Score: inf
ROOT
ATOM      1  N   UNL     1      28.227  30.674  19.106  1.00  0.00    -0.319 N 
ATOM      2  C   UNL     1      28.091  29.340  19.514  1.00  0.00     0.407 C 
ATOM      3  O   UNL     1      29.031  28.728  20.065  1.00  0.00    -0.225 OA
ATOM      4  H   UNL     1      27.381  31.119  18.636  1.00  0.00     0.167 HD
ENDROOT
BRANCH   1   5
ATOM      5  C   UNL     1      29.412  31.498  19.268  1.00  0.00     0.154 C 
BRANCH   5   6
ATOM      6  C   UNL     1      30.043  31.783  17.953  1.00  0.00     0.165 C 
BRANCH   6   7
ATOM      7  C   UNL     1      29.414  32.924  17.192  1.00  0.00     0.176 C 
BRANCH   7   8
ATOM      8  C   UNL     1      30.232  34.171  17.146  1.00  0.00     0.178 C 
ATOM      9  C   UNL     1      31.449  34.069  15.158  1.00  0.00     0.269 C 
ATOM     10  C   UNL     1      32.642  34.855  15.684  1.00  0.00     0.112 C 
ATOM     11  O   UNL     1      30.338  34.555  15.793  1.00  0.00    -0.332 OA
ATOM     12  C   UNL     1      32.349  35.316  17.082  1.00  0.00     0.145 C 
ATOM     13  C   UNL     1      31.516  34.228  17.855  1.00  0.00     0.142 C 
BRANCH   9  14
ATOM     14  O   UNL     1      31.651  32.699  15.286  1.00  0.00    -0.357 OA
ATOM     15  H   UNL     1      31.722  32.240  14.410  1.00  0.00     0.214 HD
ENDBRANCH   9  14
BRANCH   9  16
ATOM     16  C   UNL     1      31.296  34.340  13.699  1.00  0.00     0.364 C 
ATOM     17  O   UNL     1      30.152  34.284  13.190  1.00  0.00    -0.246 OA
BRANCH  16  18
ATOM     18  O   UNL     1      32.371  34.650  12.880  1.00  0.00    -0.477 OA
ATOM     19  H   UNL     1      33.288  34.919  13.259  1.00  0.00     0.296 HD
ENDBRANCH  16  18
ENDBRANCH   9  16
BRANCH  12  20
ATOM     20  O   UNL     1      33.507  35.574  17.808  1.00  0.00    -0.391 OA
ATOM     21  H   UNL     1      33.561  35.013  18.610  1.00  0.00     0.211 HD
ENDBRANCH  12  20
BRANCH  13  22
ATOM     22  N   UNL     1      31.379  34.836  19.186  1.00  0.00    -0.348 N 
ATOM     23  C   UNL     1      31.768  34.200  20.390  1.00  0.00     0.217 C 
ATOM     24  H   UNL     1      30.969  35.810  19.288  1.00  0.00     0.163 HD
ATOM     25  C   UNL     1      31.614  34.839  21.722  1.00  0.00     0.114 C 
ATOM     26  O   UNL     1      32.265  33.048  20.348  1.00  0.00    -0.275 OA
ENDBRANCH  13  22
ENDBRANCH   7   8
BRANCH   7  27
ATOM     27  O   UNL     1      28.218  33.299  17.928  1.00  0.00    -0.388 OA
ATOM     28  H   UNL     1      28.436  34.127  18.420  1.00  0.00     0.211 HD
ENDBRANCH   7  27
ENDBRANCH   6   7
BRANCH   6  29
ATOM     29  O   UNL     1      30.377  30.695  17.190  1.00  0.00    -0.388 OA
ATOM     30  H   UNL     1      30.131  30.772  16.248  1.00  0.00     0.211 HD
ENDBRANCH   6  29
ENDBRANCH   5   6
ENDBRANCH   1   5
BRANCH   2  31
ATOM     31  O   UNL     1      26.881  28.641  19.316  1.00  0.00    -0.443 OA
BRANCH  31  32
ATOM     32  C   UNL     1      26.607  28.149  17.994  1.00  0.00     0.294 C 
BRANCH  32  33
ATOM     33  C   UNL     1      26.761  29.199  16.990  1.00  0.00     0.120 A 
ATOM     34  C   UNL     1      25.828  30.143  16.643  1.00  0.00     0.138 A 
ATOM     35  N   UNL     1      27.854  29.420  16.244  1.00  0.00    -0.132 NA
ATOM     36  N   UNL     1      26.364  30.912  15.700  1.00  0.00    -0.248 N 
ATOM     37  N   UNL     1      27.581  30.464  15.472  1.00  0.00    -0.067 NA
BRANCH  36  38
ATOM     38  C   UNL     1      25.741  32.042  15.022  1.00  0.00     0.181 C 
BRANCH  38  39
ATOM     39  C   UNL     1      24.566  31.533  14.249  1.00  0.00    -0.023 A 
ATOM     40  C   UNL     1      23.364  32.238  14.292  1.00  0.00     0.056 A 
ATOM     41  C   UNL     1      24.620  30.390  13.480  1.00  0.00     0.010 A 
ATOM     42  C   UNL     1      22.264  31.810  13.591  1.00  0.00     0.161 A 
ATOM     43  C   UNL     1      23.531  29.933  12.764  1.00  0.00     0.051 A 
ATOM     44  C   UNL     1      22.364  30.658  12.832  1.00  0.00     0.160 A 
BRANCH  42  45
ATOM     45  O   UNL     1      21.057  32.503  13.626  1.00  0.00    -0.493 OA
ATOM     46  C   UNL     1      20.174  32.262  14.708  1.00  0.00     0.278 C 
ENDBRANCH  42  45
BRANCH  44  47
ATOM     47  O   UNL     1      21.248  30.233  12.128  1.00  0.00    -0.493 OA
ATOM     48  C   UNL     1      20.868  28.871  12.075  1.00  0.00     0.278 C 
ENDBRANCH  44  47
ENDBRANCH  38  39
ENDBRANCH  36  38
ENDBRANCH  32  33
ENDBRANCH  31  32
ENDBRANCH   2  31
TORSDOF 18
BEGIN_RES LYS A 131
REMARK  4 active torsions:
REMARK  status: ('A' for Active; 'I' for Inactive)
REMARK    1  A    between atoms: CA   and  CB  
REMARK    2  A    between atoms: CB   and  CG  
REMARK    3  A    between atoms: CG   and  CD  
REMARK    4  A    between atoms: CD   and  CE  
ROOT
ATOM      1  CA  LYS A 131      29.867  25.555  16.977  1.00 20.52     0.186 C 
ENDROOT
BRANCH   1   2
ATOM      2  CB  LYS A 131      28.345  25.722  17.026  1.00 20.94     0.034 C 
BRANCH   2   3
ATOM      3  CG  LYS A 131      27.601  24.403  16.887  1.00 22.96     0.005 C 
BRANCH   3   4
ATOM      4  CD  LYS A 131      26.160  24.519  17.301  1.00 24.33     0.041 C 
BRANCH   4   5
ATOM      5  CE  LYS A 131      25.815  23.390  18.267  1.00 26.91     0.338 C 
ATOM      6  NZ  LYS A 131      24.979  22.368  17.594  1.00 27.40     0.618 N 
ENDBRANCH   4   5
ENDBRANCH   3   4
ENDBRANCH   2   3
ENDBRANCH   1   2
END_RES LYS A 131
BEGIN_RES LYS A 135
REMARK  4 active torsions:
REMARK  status: ('A' for Active; 'I' for Inactive)
REMARK    5  A    between atoms: CA   and  CB  
REMARK    6  A    between atoms: CB   and  CG  
REMARK    7  A    between atoms: CG   and  CD  
REMARK    8  A    between atoms: CD   and  CE  
ROOT
ATOM      7  CA  LYS A 135      33.193  34.663   9.290  1.00 25.02     0.186 C 
ENDROOT
BRANCH   7   8
ATOM      8  CB  LYS A 135      32.060  35.360  10.034  1.00 26.63     0.034 C 
BRANCH   8   9
ATOM      9  CG  LYS A 135      30.704  34.762   9.763  1.00 29.45     0.005 C 
BRANCH   9  10
ATOM     10  CD  LYS A 135      30.513  34.517   8.274  1.00 32.00     0.041 C 
BRANCH  10  11
ATOM     11  CE  LYS A 135      29.121  34.934   7.839  1.00 34.25     0.338 C 
ATOM     12  NZ  LYS A 135      28.082  34.343   8.727  1.00 35.99     0.618 N 
ENDBRANCH  10  11
ENDBRANCH   9  10
ENDBRANCH   8   9
ENDBRANCH   7   8
END_RES LYS A 135
