REMARK VINA RESULT:    -4.473      3.285      7.702
REMARK INTER + INTRA:         -14.924
REMARK INTER:                  -8.436
REMARK INTRA:                  -6.488
REMARK UNBOUND:                -5.875
REMARK SMILES CC[N+](C)(CC)CCCn1cc(COC(=O)NC[C@@H](O)C(O)[C@@H]2O[C@@](O)(C(=O)O)C[C@H](O)[C@H]2NC(C)=O)nn1
REMARK SMILES IDX 14 1 15 2 17 3 16 5 18 6 19 7 21 8 23 9 25 10 30 11 24 12
REMARK SMILES IDX 31 13 33 14 26 15 27 17 28 18 29 19 32 21 34 23 35 24 36 26
REMARK SMILES IDX 37 27 22 28 20 30 13 32 12 33 11 34 38 35 10 36 39 37 9 38
REMARK SMILES IDX 8 39 7 40 3 41 4 42 2 43 1 44 5 45 6 46
REMARK H PARENT 17 4 26 16 29 20 32 22 34 25 22 29 20 31
REMARK Flexibility Score: inf
ROOT
ATOM      1  O   UNL     1      32.991  35.933  14.904  1.00  0.00    -0.443 OA
ENDROOT
BRANCH   1   2
ATOM      2  C   UNL     1      32.264  35.438  15.967  1.00  0.00     0.407 C 
ATOM      3  N   UNL     1      32.127  34.033  16.209  1.00  0.00    -0.319 N 
ATOM      4  H   UNL     1      32.611  33.415  15.549  1.00  0.00     0.167 HD
ATOM      5  O   UNL     1      31.705  36.247  16.743  1.00  0.00    -0.225 OA
BRANCH   3   6
ATOM      6  C   UNL     1      31.364  33.602  17.321  1.00  0.00     0.154 C 
BRANCH   6   7
ATOM      7  C   UNL     1      29.978  33.126  17.042  1.00  0.00     0.165 C 
BRANCH   7   8
ATOM      8  C   UNL     1      29.869  31.766  16.426  1.00  0.00     0.176 C 
BRANCH   8   9
ATOM      9  C   UNL     1      28.627  31.005  16.781  1.00  0.00     0.178 C 
ATOM     10  C   UNL     1      26.342  31.042  16.536  1.00  0.00     0.269 C 
ATOM     11  C   UNL     1      26.547  29.634  17.062  1.00  0.00     0.112 C 
ATOM     12  O   UNL     1      27.534  31.684  16.301  1.00  0.00    -0.332 OA
ATOM     13  C   UNL     1      27.322  29.655  18.343  1.00  0.00     0.145 C 
ATOM     14  C   UNL     1      28.454  30.679  18.223  1.00  0.00     0.142 C 
BRANCH  10  15
ATOM     15  O   UNL     1      25.645  31.754  17.529  1.00  0.00    -0.357 OA
ATOM     16  H   UNL     1      25.703  32.709  17.266  1.00  0.00     0.214 HD
ENDBRANCH  10  15
BRANCH  10  17
ATOM     17  C   UNL     1      25.515  31.005  15.319  1.00  0.00     0.364 C 
ATOM     18  O   UNL     1      24.948  29.933  14.966  1.00  0.00    -0.246 OA
BRANCH  17  19
ATOM     19  O   UNL     1      25.332  32.124  14.534  1.00  0.00    -0.477 OA
ATOM     20  H   UNL     1      25.287  32.058  13.535  1.00  0.00     0.296 HD
ENDBRANCH  17  19
ENDBRANCH  10  17
BRANCH  13  21
ATOM     21  O   UNL     1      26.455  30.007  19.386  1.00  0.00    -0.391 OA
ATOM     22  H   UNL     1      26.477  29.311  20.078  1.00  0.00     0.211 HD
ENDBRANCH  13  21
BRANCH  14  23
ATOM     23  N   UNL     1      29.625  29.985  18.769  1.00  0.00    -0.348 N 
ATOM     24  C   UNL     1      30.303  30.502  19.898  1.00  0.00     0.217 C 
ATOM     25  H   UNL     1      29.950  29.103  18.312  1.00  0.00     0.163 HD
ATOM     26  C   UNL     1      31.500  29.785  20.443  1.00  0.00     0.114 C 
ATOM     27  O   UNL     1      29.949  31.566  20.495  1.00  0.00    -0.275 OA
ENDBRANCH  14  23
ENDBRANCH   8   9
BRANCH   8  28
ATOM     28  O   UNL     1      29.986  31.889  15.033  1.00  0.00    -0.388 OA
ATOM     29  H   UNL     1      29.135  31.552  14.637  1.00  0.00     0.211 HD
ENDBRANCH   8  28
ENDBRANCH   7   8
BRANCH   7  30
ATOM     30  O   UNL     1      29.384  34.086  16.194  1.00  0.00    -0.388 OA
ATOM     31  H   UNL     1      28.954  33.682  15.414  1.00  0.00     0.211 HD
ENDBRANCH   7  30
ENDBRANCH   6   7
ENDBRANCH   3   6
ENDBRANCH   1   2
BRANCH   1  32
ATOM     32  C   UNL     1      32.747  35.415  13.603  1.00  0.00     0.294 C 
BRANCH  32  33
ATOM     33  C   UNL     1      31.290  35.303  13.370  1.00  0.00     0.120 A 
ATOM     34  C   UNL     1      30.372  36.273  13.031  1.00  0.00     0.138 A 
ATOM     35  N   UNL     1      30.566  34.167  13.457  1.00  0.00    -0.132 NA
ATOM     36  N   UNL     1      29.144  35.728  12.921  1.00  0.00    -0.252 N 
ATOM     37  N   UNL     1      29.307  34.449  13.187  1.00  0.00    -0.067 NA
BRANCH  36  38
ATOM     38  C   UNL     1      27.904  36.353  12.596  1.00  0.00     0.152 C 
BRANCH  38  39
ATOM     39  C   UNL     1      27.119  35.645  11.559  1.00  0.00     0.085 C 
BRANCH  39  40
ATOM     40  C   UNL     1      25.781  36.151  11.214  1.00  0.00     0.265 C 
BRANCH  40  41
ATOM     41  N   UNL     1      25.392  36.316   9.874  1.00  0.00    -0.326 N 
ATOM     42  C   UNL     1      25.560  35.186   9.001  1.00  0.00     0.334 C 
BRANCH  41  43
ATOM     43  C   UNL     1      23.933  36.545   9.904  1.00  0.00     0.260 C 
ATOM     44  C   UNL     1      23.131  35.470   9.280  1.00  0.00     0.071 C 
ENDBRANCH  41  43
BRANCH  41  45
ATOM     45  C   UNL     1      25.962  37.469   9.236  1.00  0.00     0.260 C 
ATOM     46  C   UNL     1      26.007  37.412   7.752  1.00  0.00     0.071 C 
ENDBRANCH  41  45
ENDBRANCH  40  41
ENDBRANCH  39  40
ENDBRANCH  38  39
ENDBRANCH  36  38
ENDBRANCH  32  33
ENDBRANCH   1  32
TORSDOF 20
BEGIN_RES LYS A 131
REMARK  4 active torsions:
REMARK  status: ('A' for Active; 'I' for Inactive)
REMARK    1  A    between atoms: CA   and  CB  
REMARK    2  A    between atoms: CB   and  CG  
REMARK    3  A    between atoms: CG   and  CD  
REMARK    4  A    between atoms: CD   and  CE  
ROOT
ATOM      1  CA  LYS A 131      29.867  25.555  16.977  1.00 20.52     0.186 C 
ENDROOT
BRANCH   1   2
ATOM      2  CB  LYS A 131      28.345  25.722  17.026  1.00 20.94     0.034 C 
BRANCH   2   3
ATOM      3  CG  LYS A 131      27.599  24.425  16.751  1.00 22.96     0.005 C 
BRANCH   3   4
ATOM      4  CD  LYS A 131      26.930  23.884  17.984  1.00 24.33     0.041 C 
BRANCH   4   5
ATOM      5  CE  LYS A 131      25.579  23.283  17.608  1.00 26.91     0.338 C 
ATOM      6  NZ  LYS A 131      24.750  24.279  16.889  1.00 27.40     0.618 N 
ENDBRANCH   4   5
ENDBRANCH   3   4
ENDBRANCH   2   3
ENDBRANCH   1   2
END_RES LYS A 131
BEGIN_RES LYS A 135
REMARK  4 active torsions:
REMARK  status: ('A' for Active; 'I' for Inactive)
REMARK    5  A    between atoms: CA   and  CB  
REMARK    6  A    between atoms: CB   and  CG  
REMARK    7  A    between atoms: CG   and  CD  
REMARK    8  A    between atoms: CD   and  CE  
ROOT
ATOM      7  CA  LYS A 135      33.193  34.663   9.290  1.00 25.02     0.186 C 
ENDROOT
BRANCH   7   8
ATOM      8  CB  LYS A 135      32.060  35.360  10.034  1.00 26.63     0.034 C 
BRANCH   8   9
ATOM      9  CG  LYS A 135      30.706  34.750   9.778  1.00 29.45     0.005 C 
BRANCH   9  10
ATOM     10  CD  LYS A 135      30.480  34.552   8.287  1.00 32.00     0.041 C 
BRANCH  10  11
ATOM     11  CE  LYS A 135      29.041  34.860   7.921  1.00 34.25     0.338 C 
ATOM     12  NZ  LYS A 135      28.961  35.588   6.624  1.00 35.99     0.618 N 
ENDBRANCH  10  11
ENDBRANCH   9  10
ENDBRANCH   8   9
ENDBRANCH   7   8
END_RES LYS A 135
