REMARK VINA RESULT:    -5.186      1.503      2.189
REMARK INTER + INTRA:         -14.478
REMARK INTER:                  -9.333
REMARK INTRA:                  -5.144
REMARK UNBOUND:                -5.502
REMARK SMILES CC(=O)N[C@@H]1[C@@H](O)C[C@](O)(C(=O)O)O[C@H]1C(O)[C@H](O)CNC(=O)OCc1cn([C@@H]2C[C@H]3CC[C@@H](C2)N3C)nn1
REMARK SMILES IDX 20 1 18 2 16 3 15 4 9 5 8 6 14 7 6 8 5 9 10 10 11 12 12 13
REMARK SMILES IDX 13 14 7 16 4 18 2 19 1 21 3 22 17 23 19 25 21 27 22 28 23 30
REMARK SMILES IDX 24 31 25 32 26 33 27 34 39 35 28 36 38 37 29 38 35 39 30 40
REMARK SMILES IDX 34 41 31 42 36 43 33 44 32 45 37 46
REMARK H PARENT 10 11 13 15 7 17 4 20 17 24 19 26 21 29
REMARK Flexibility Score: inf
ROOT
ATOM      1  C   UNL     1      27.481  28.716  19.963  1.00  0.00     0.154 C 
ENDROOT
BRANCH   1   2
ATOM      2  C   UNL     1      28.024  27.463  20.583  1.00  0.00     0.165 C 
BRANCH   2   3
ATOM      3  C   UNL     1      28.385  27.696  22.045  1.00  0.00     0.176 C 
BRANCH   3   4
ATOM      4  C   UNL     1      29.650  28.553  22.078  1.00  0.00     0.178 C 
ATOM      5  C   UNL     1      30.917  29.757  20.524  1.00  0.00     0.269 C 
ATOM      6  C   UNL     1      32.167  28.973  20.772  1.00  0.00     0.112 C 
ATOM      7  O   UNL     1      29.757  29.158  20.891  1.00  0.00    -0.332 OA
ATOM      8  C   UNL     1      31.994  27.763  21.625  1.00  0.00     0.145 C 
ATOM      9  C   UNL     1      30.846  27.792  22.578  1.00  0.00     0.142 C 
BRANCH   5  10
ATOM     10  O   UNL     1      30.822  29.989  19.149  1.00  0.00    -0.357 OA
ATOM     11  H   UNL     1      31.669  30.315  18.759  1.00  0.00     0.214 HD
ENDBRANCH   5  10
BRANCH   5  12
ATOM     12  C   UNL     1      30.957  31.092  21.158  1.00  0.00     0.364 C 
ATOM     13  O   UNL     1      31.907  31.393  21.912  1.00  0.00    -0.246 OA
BRANCH  12  14
ATOM     14  O   UNL     1      29.983  32.068  20.973  1.00  0.00    -0.477 OA
ATOM     15  H   UNL     1      29.145  31.863  20.406  1.00  0.00     0.296 HD
ENDBRANCH  12  14
ENDBRANCH   5  12
BRANCH   8  16
ATOM     16  O   UNL     1      31.902  26.660  20.764  1.00  0.00    -0.391 OA
ATOM     17  H   UNL     1      32.804  26.332  20.535  1.00  0.00     0.211 HD
ENDBRANCH   8  16
BRANCH   9  18
ATOM     18  N   UNL     1      31.187  28.157  23.925  1.00  0.00    -0.348 N 
ATOM     19  C   UNL     1      31.099  27.280  25.031  1.00  0.00     0.217 C 
ATOM     20  H   UNL     1      31.526  29.135  24.132  1.00  0.00     0.163 HD
ATOM     21  C   UNL     1      31.442  27.635  26.425  1.00  0.00     0.114 C 
ATOM     22  O   UNL     1      30.695  26.122  24.766  1.00  0.00    -0.275 OA
ENDBRANCH   9  18
ENDBRANCH   3   4
BRANCH   3  23
ATOM     23  O   UNL     1      28.571  26.510  22.735  1.00  0.00    -0.388 OA
ATOM     24  H   UNL     1      28.522  25.766  22.080  1.00  0.00     0.211 HD
ENDBRANCH   3  23
ENDBRANCH   2   3
BRANCH   2  25
ATOM     25  O   UNL     1      29.134  26.984  19.946  1.00  0.00    -0.388 OA
ATOM     26  H   UNL     1      29.075  25.988  19.849  1.00  0.00     0.211 HD
ENDBRANCH   2  25
ENDBRANCH   1   2
BRANCH   1  27
ATOM     27  N   UNL     1      28.004  28.966  18.663  1.00  0.00    -0.319 N 
ATOM     28  C   UNL     1      27.263  28.935  17.469  1.00  0.00     0.407 C 
ATOM     29  H   UNL     1      29.043  29.198  18.566  1.00  0.00     0.167 HD
ATOM     30  O   UNL     1      26.047  28.670  17.438  1.00  0.00    -0.225 OA
BRANCH  28  31
ATOM     31  O   UNL     1      27.912  29.214  16.252  1.00  0.00    -0.443 OA
BRANCH  31  32
ATOM     32  C   UNL     1      27.784  30.509  15.701  1.00  0.00     0.294 C 
BRANCH  32  33
ATOM     33  C   UNL     1      28.908  31.355  16.101  1.00  0.00     0.120 A 
ATOM     34  C   UNL     1      29.700  32.106  15.239  1.00  0.00     0.138 A 
ATOM     35  N   UNL     1      29.375  31.560  17.332  1.00  0.00    -0.132 NA
ATOM     36  N   UNL     1      30.617  32.737  15.982  1.00  0.00    -0.249 N 
ATOM     37  N   UNL     1      30.397  32.390  17.232  1.00  0.00    -0.067 NA
BRANCH  36  38
ATOM     38  C   UNL     1      31.656  33.631  15.536  1.00  0.00     0.112 C 
ATOM     39  C   UNL     1      31.261  34.200  14.174  1.00  0.00     0.046 C 
ATOM     40  C   UNL     1      31.704  34.780  16.520  1.00  0.00     0.046 C 
ATOM     41  C   UNL     1      32.213  35.312  13.826  1.00  0.00     0.058 C 
ATOM     42  C   UNL     1      32.508  35.913  15.971  1.00  0.00     0.058 C 
ATOM     43  N   UNL     1      32.018  36.429  14.731  1.00  0.00    -0.300 NA
ATOM     44  C   UNL     1      33.637  34.900  14.147  1.00  0.00     0.021 C 
ATOM     45  C   UNL     1      33.869  35.337  15.561  1.00  0.00     0.021 C 
ATOM     46  C   UNL     1      30.658  36.881  14.781  1.00  0.00     0.105 C 
ENDBRANCH  36  38
ENDBRANCH  32  33
ENDBRANCH  31  32
ENDBRANCH  28  31
ENDBRANCH   1  27
TORSDOF 15
BEGIN_RES LYS A 131
REMARK  4 active torsions:
REMARK  status: ('A' for Active; 'I' for Inactive)
REMARK    1  A    between atoms: CA   and  CB  
REMARK    2  A    between atoms: CB   and  CG  
REMARK    3  A    between atoms: CG   and  CD  
REMARK    4  A    between atoms: CD   and  CE  
ROOT
ATOM      1  CA  LYS A 131      29.867  25.555  16.977  1.00 20.52     0.186 C 
ENDROOT
BRANCH   1   2
ATOM      2  CB  LYS A 131      28.345  25.722  17.026  1.00 20.94     0.034 C 
BRANCH   2   3
ATOM      3  CG  LYS A 131      27.601  24.400  16.907  1.00 22.96     0.005 C 
BRANCH   3   4
ATOM      4  CD  LYS A 131      26.691  24.156  18.078  1.00 24.33     0.041 C 
BRANCH   4   5
ATOM      5  CE  LYS A 131      25.657  23.097  17.707  1.00 26.91     0.338 C 
ATOM      6  NZ  LYS A 131      24.906  22.662  18.908  1.00 27.40     0.618 N 
ENDBRANCH   4   5
ENDBRANCH   3   4
ENDBRANCH   2   3
ENDBRANCH   1   2
END_RES LYS A 131
BEGIN_RES LYS A 135
REMARK  4 active torsions:
REMARK  status: ('A' for Active; 'I' for Inactive)
REMARK    5  A    between atoms: CA   and  CB  
REMARK    6  A    between atoms: CB   and  CG  
REMARK    7  A    between atoms: CG   and  CD  
REMARK    8  A    between atoms: CD   and  CE  
ROOT
ATOM      7  CA  LYS A 135      33.193  34.663   9.290  1.00 25.02     0.186 C 
ENDROOT
BRANCH   7   8
ATOM      8  CB  LYS A 135      32.060  35.360  10.034  1.00 26.63     0.034 C 
BRANCH   8   9
ATOM      9  CG  LYS A 135      30.730  34.666   9.893  1.00 29.45     0.005 C 
BRANCH   9  10
ATOM     10  CD  LYS A 135      30.363  34.501   8.426  1.00 32.00     0.041 C 
BRANCH  10  11
ATOM     11  CE  LYS A 135      29.523  35.672   7.953  1.00 34.25     0.338 C 
ATOM     12  NZ  LYS A 135      28.238  35.205   7.362  1.00 35.99     0.618 N 
ENDBRANCH  10  11
ENDBRANCH   9  10
ENDBRANCH   8   9
ENDBRANCH   7   8
END_RES LYS A 135
