REMARK VINA RESULT:    -9.199      6.378     11.807
REMARK INTER + INTRA:         -13.518
REMARK INTER:                  -8.564
REMARK INTRA:                  -4.954
REMARK UNBOUND:                 4.555
REMARK SMILES CC(=O)N[C@@H]1[C@@H](O)C[C@](O)(C(=O)O)O[C@H]1C(O)[C@H](O)CNC(=O)OCc1cn(C2CCc3ccccc3NC2=O)nn1
REMARK SMILES IDX 24 1 22 2 21 3 23 5 20 6 18 7 16 8 15 9 9 10 8 11 14 12 6 13
REMARK SMILES IDX 5 14 10 15 11 17 12 18 13 19 7 21 4 23 2 24 1 26 3 27 17 28
REMARK SMILES IDX 19 30 25 32 26 33 27 34 42 35 28 36 41 37 29 38 39 40 38 41
REMARK SMILES IDX 40 42 37 44 32 45 36 46 33 47 35 48 34 49 31 50 30 51
REMARK H PARENT 21 4 10 16 13 20 7 22 4 25 17 29 19 31 38 43
REMARK Flexibility Score: 80.00
ROOT
ATOM      1  O   UNL     1      18.641  42.352   7.775  1.00  0.00    -0.443 OA
ENDROOT
BRANCH   1   2
ATOM      2  C   UNL     1      18.183  41.344   6.963  1.00  0.00     0.407 C 
ATOM      3  N   UNL     1      17.392  40.280   7.514  1.00  0.00    -0.319 N 
ATOM      4  H   UNL     1      17.199  40.335   8.542  1.00  0.00     0.167 HD
ATOM      5  O   UNL     1      18.431  41.308   5.732  1.00  0.00    -0.225 OA
BRANCH   3   6
ATOM      6  C   UNL     1      16.890  39.194   6.693  1.00  0.00     0.154 C 
BRANCH   6   7
ATOM      7  C   UNL     1      17.451  37.898   7.225  1.00  0.00     0.165 C 
BRANCH   7   8
ATOM      8  C   UNL     1      17.345  37.796   8.732  1.00  0.00     0.176 C 
BRANCH   8   9
ATOM      9  C   UNL     1      17.836  36.421   9.213  1.00  0.00     0.178 C 
ATOM     10  C   UNL     1      19.900  35.307   9.236  1.00  0.00     0.269 C 
ATOM     11  C   UNL     1      19.107  34.052   9.047  1.00  0.00     0.112 C 
ATOM     12  O   UNL     1      19.176  36.467   9.261  1.00  0.00    -0.332 OA
ATOM     13  C   UNL     1      18.165  34.317   7.883  1.00  0.00     0.145 C 
ATOM     14  C   UNL     1      17.214  35.407   8.310  1.00  0.00     0.142 C 
BRANCH  10  15
ATOM     15  O   UNL     1      20.785  35.431   8.145  1.00  0.00    -0.357 OA
ATOM     16  H   UNL     1      21.435  34.690   8.257  1.00  0.00     0.214 HD
ENDBRANCH  10  15
BRANCH  10  17
ATOM     17  C   UNL     1      20.735  35.268  10.463  1.00  0.00     0.364 C 
ATOM     18  O   UNL     1      20.208  35.506  11.570  1.00  0.00    -0.246 OA
BRANCH  17  19
ATOM     19  O   UNL     1      22.096  34.972  10.427  1.00  0.00    -0.477 OA
ATOM     20  H   UNL     1      22.403  34.180  11.009  1.00  0.00     0.296 HD
ENDBRANCH  17  19
ENDBRANCH  10  17
BRANCH  13  21
ATOM     21  O   UNL     1      18.939  34.788   6.828  1.00  0.00    -0.391 OA
ATOM     22  H   UNL     1      19.253  34.004   6.315  1.00  0.00     0.211 HD
ENDBRANCH  13  21
BRANCH  14  23
ATOM     23  N   UNL     1      16.137  34.762   9.041  1.00  0.00    -0.348 N 
ATOM     24  C   UNL     1      14.766  34.901   8.701  1.00  0.00     0.217 C 
ATOM     25  H   UNL     1      16.384  34.151   9.878  1.00  0.00     0.163 HD
ATOM     26  C   UNL     1      13.756  34.194   9.524  1.00  0.00     0.114 C 
ATOM     27  O   UNL     1      14.463  35.621   7.713  1.00  0.00    -0.275 OA
ENDBRANCH  14  23
ENDBRANCH   8   9
BRANCH   8  28
ATOM     28  O   UNL     1      15.984  37.895   9.039  1.00  0.00    -0.388 OA
ATOM     29  H   UNL     1      15.779  38.620   9.668  1.00  0.00     0.211 HD
ENDBRANCH   8  28
ENDBRANCH   7   8
BRANCH   7  30
ATOM     30  O   UNL     1      18.764  37.708   6.810  1.00  0.00    -0.388 OA
ATOM     31  H   UNL     1      18.845  37.610   5.838  1.00  0.00     0.211 HD
ENDBRANCH   7  30
ENDBRANCH   6   7
ENDBRANCH   3   6
ENDBRANCH   1   2
BRANCH   1  32
ATOM     32  C   UNL     1      20.025  42.547   8.015  1.00  0.00     0.294 C 
BRANCH  32  33
ATOM     33  C   UNL     1      20.710  41.258   8.285  1.00  0.00     0.120 A 
ATOM     34  C   UNL     1      22.092  41.117   8.454  1.00  0.00     0.139 A 
ATOM     35  N   UNL     1      20.213  40.015   8.421  1.00  0.00    -0.132 NA
ATOM     36  N   UNL     1      22.372  39.822   8.678  1.00  0.00    -0.240 N 
ATOM     37  N   UNL     1      21.219  39.191   8.651  1.00  0.00    -0.066 NA
BRANCH  36  38
ATOM     38  C   UNL     1      23.679  39.242   8.894  1.00  0.00     0.198 CG0
ATOM     39  G   UNL     1      24.306  38.952   7.568  1.00  0.00     0.000 G0
BRANCH  38  40
ATOM     40  C   UNL     1      23.601  38.038   9.768  1.00  0.00     0.249 C 
ATOM     41  N   UNL     1      24.198  36.758   9.680  1.00  0.00    -0.324 N 
ATOM     42  O   UNL     1      22.857  38.223  10.764  1.00  0.00    -0.272 OA
ATOM     43  H   UNL     1      23.812  35.980  10.257  1.00  0.00     0.170 HD
BRANCH  41  44
ATOM     44  C   UNL     1      25.317  36.373   8.862  1.00  0.00     0.044 A 
ATOM     45  C   UNL     1      26.040  37.180   8.003  1.00  0.00    -0.024 A 
ATOM     46  C   UNL     1      25.614  35.036   9.038  1.00  0.00     0.026 A 
ATOM     47  C   UNL     1      27.074  36.627   7.312  1.00  0.00     0.006 A 
ATOM     48  C   UNL     1      26.662  34.479   8.338  1.00  0.00     0.002 A 
ATOM     49  C   UNL     1      27.381  35.283   7.482  1.00  0.00     0.000 A 
BRANCH  45  50
ATOM     50  C   UNL     1      25.811  38.626   7.736  1.00  0.00     0.040 C 
BRANCH  50  51
ATOM     51  C   UNL     1      24.338  38.955   7.561  1.00  0.00     0.042 CG0
ATOM     52  G   UNL     1      23.664  39.250   8.862  1.00  0.00     0.000 G0
ENDBRANCH  50  51
ENDBRANCH  45  50
ENDBRANCH  41  44
ENDBRANCH  38  40
ENDBRANCH  36  38
ENDBRANCH  32  33
ENDBRANCH   1  32
TORSDOF 15
BEGIN_RES LYS A 131
REMARK  4 active torsions:
REMARK  status: ('A' for Active; 'I' for Inactive)
REMARK    1  A    between atoms: CA   and  CB  
REMARK    2  A    between atoms: CB   and  CG  
REMARK    3  A    between atoms: CG   and  CD  
REMARK    4  A    between atoms: CD   and  CE  
ROOT
ATOM      1  CA  LYS A 131      29.867  25.555  16.977  1.00 20.52     0.186 C 
ENDROOT
BRANCH   1   2
ATOM      2  CB  LYS A 131      28.345  25.722  17.026  1.00 20.94     0.034 C 
BRANCH   2   3
ATOM      3  CG  LYS A 131      27.602  24.398  16.934  1.00 22.96     0.005 C 
BRANCH   3   4
ATOM      4  CD  LYS A 131      26.218  24.484  17.515  1.00 24.33     0.041 C 
BRANCH   4   5
ATOM      5  CE  LYS A 131      25.649  23.079  17.685  1.00 26.91     0.338 C 
ATOM      6  NZ  LYS A 131      25.071  22.914  19.040  1.00 27.40     0.618 N 
ENDBRANCH   4   5
ENDBRANCH   3   4
ENDBRANCH   2   3
ENDBRANCH   1   2
END_RES LYS A 131
BEGIN_RES LYS A 135
REMARK  4 active torsions:
REMARK  status: ('A' for Active; 'I' for Inactive)
REMARK    5  A    between atoms: CA   and  CB  
REMARK    6  A    between atoms: CB   and  CG  
REMARK    7  A    between atoms: CG   and  CD  
REMARK    8  A    between atoms: CD   and  CE  
ROOT
ATOM      7  CA  LYS A 135      33.193  34.663   9.290  1.00 25.02     0.186 C 
ENDROOT
BRANCH   7   8
ATOM      8  CB  LYS A 135      32.060  35.360  10.034  1.00 26.63     0.034 C 
BRANCH   8   9
ATOM      9  CG  LYS A 135      30.729  35.263   9.333  1.00 29.45     0.005 C 
BRANCH   9  10
ATOM     10  CD  LYS A 135      29.775  34.372  10.114  1.00 32.00     0.041 C 
BRANCH  10  11
ATOM     11  CE  LYS A 135      29.184  35.127  11.289  1.00 34.25     0.338 C 
ATOM     12  NZ  LYS A 135      28.559  36.404  10.847  1.00 35.99     0.618 N 
ENDBRANCH  10  11
ENDBRANCH   9  10
ENDBRANCH   8   9
ENDBRANCH   7   8
END_RES LYS A 135
