REMARK VINA RESULT:    -9.096      5.917     10.060
REMARK INTER + INTRA:         -13.314
REMARK INTER:                  -9.137
REMARK INTRA:                  -4.177
REMARK UNBOUND:                 4.555
REMARK SMILES CC(=O)N[C@@H]1[C@@H](O)C[C@](O)(C(=O)O)O[C@H]1C(O)[C@H](O)CNC(=O)OCc1cn(C2CCc3ccccc3NC2=O)nn1
REMARK SMILES IDX 24 1 22 2 21 3 23 5 20 6 18 7 16 8 15 9 9 10 8 11 14 12 6 13
REMARK SMILES IDX 5 14 10 15 11 17 12 18 13 19 7 21 4 23 2 24 1 26 3 27 17 28
REMARK SMILES IDX 19 30 25 32 26 33 27 34 42 35 28 36 41 37 29 38 39 40 38 41
REMARK SMILES IDX 40 42 37 44 32 45 36 46 33 47 35 48 34 49 31 50 30 51
REMARK H PARENT 21 4 10 16 13 20 7 22 4 25 17 29 19 31 38 43
REMARK Flexibility Score: 80.00
ROOT
ATOM      1  O   UNL     1      22.807  38.135   8.177  1.00  0.00    -0.443 OA
ENDROOT
BRANCH   1   2
ATOM      2  C   UNL     1      21.481  37.945   8.480  1.00  0.00     0.407 C 
ATOM      3  N   UNL     1      20.619  37.276   7.547  1.00  0.00    -0.319 N 
ATOM      4  H   UNL     1      21.066  36.957   6.656  1.00  0.00     0.167 HD
ATOM      5  O   UNL     1      20.976  38.340   9.561  1.00  0.00    -0.225 OA
BRANCH   3   6
ATOM      6  C   UNL     1      19.212  37.057   7.826  1.00  0.00     0.154 C 
BRANCH   6   7
ATOM      7  C   UNL     1      18.981  35.572   7.963  1.00  0.00     0.165 C 
BRANCH   7   8
ATOM      8  C   UNL     1      19.204  35.079   9.377  1.00  0.00     0.176 C 
BRANCH   8   9
ATOM      9  C   UNL     1      18.249  33.919   9.699  1.00  0.00     0.178 C 
ATOM     10  C   UNL     1      16.891  32.483   8.435  1.00  0.00     0.269 C 
ATOM     11  C   UNL     1      15.959  32.503   9.606  1.00  0.00     0.112 C 
ATOM     12  O   UNL     1      18.005  33.269   8.552  1.00  0.00    -0.332 OA
ATOM     13  C   UNL     1      15.752  33.967   9.958  1.00  0.00     0.145 C 
ATOM     14  C   UNL     1      17.081  34.515  10.414  1.00  0.00     0.142 C 
BRANCH  10  15
ATOM     15  O   UNL     1      16.191  32.974   7.313  1.00  0.00    -0.357 OA
ATOM     16  H   UNL     1      16.158  33.957   7.442  1.00  0.00     0.214 HD
ENDBRANCH  10  15
BRANCH  10  17
ATOM     17  C   UNL     1      17.340  31.110   8.093  1.00  0.00     0.364 C 
ATOM     18  O   UNL     1      17.268  30.209   8.955  1.00  0.00    -0.246 OA
BRANCH  17  19
ATOM     19  O   UNL     1      17.841  30.784   6.835  1.00  0.00    -0.477 OA
ATOM     20  H   UNL     1      18.712  31.260   6.557  1.00  0.00     0.296 HD
ENDBRANCH  17  19
ENDBRANCH  10  17
BRANCH  13  21
ATOM     21  O   UNL     1      15.376  34.621   8.790  1.00  0.00    -0.391 OA
ATOM     22  H   UNL     1      14.471  34.305   8.550  1.00  0.00     0.211 HD
ENDBRANCH  13  21
BRANCH  14  23
ATOM     23  N   UNL     1      17.209  34.190  11.823  1.00  0.00    -0.348 N 
ATOM     24  C   UNL     1      18.084  33.189  12.321  1.00  0.00     0.217 C 
ATOM     25  H   UNL     1      16.616  34.729  12.527  1.00  0.00     0.163 HD
ATOM     26  C   UNL     1      18.126  32.946  13.782  1.00  0.00     0.114 C 
ATOM     27  O   UNL     1      18.789  32.546  11.498  1.00  0.00    -0.275 OA
ENDBRANCH  14  23
ENDBRANCH   8   9
BRANCH   8  28
ATOM     28  O   UNL     1      18.881  36.146  10.222  1.00  0.00    -0.388 OA
ATOM     29  H   UNL     1      18.579  36.946   9.741  1.00  0.00     0.211 HD
ENDBRANCH   8  28
ENDBRANCH   7   8
BRANCH   7  30
ATOM     30  O   UNL     1      19.759  34.854   7.063  1.00  0.00    -0.388 OA
ATOM     31  H   UNL     1      20.543  34.442   7.482  1.00  0.00     0.211 HD
ENDBRANCH   7  30
ENDBRANCH   6   7
ENDBRANCH   3   6
ENDBRANCH   1   2
BRANCH   1  32
ATOM     32  C   UNL     1      23.774  37.120   8.390  1.00  0.00     0.294 C 
BRANCH  32  33
ATOM     33  C   UNL     1      23.874  36.767   9.829  1.00  0.00     0.120 A 
ATOM     34  C   UNL     1      23.535  35.519  10.362  1.00  0.00     0.139 A 
ATOM     35  N   UNL     1      24.278  37.499  10.883  1.00  0.00    -0.132 NA
ATOM     36  N   UNL     1      23.740  35.543  11.689  1.00  0.00    -0.240 N 
ATOM     37  N   UNL     1      24.187  36.748  11.966  1.00  0.00    -0.066 NA
BRANCH  36  38
ATOM     38  C   UNL     1      23.506  34.463  12.623  1.00  0.00     0.198 CG0
ATOM     39  G   UNL     1      24.546  33.411  12.416  1.00  0.00     0.000 G0
BRANCH  38  40
ATOM     40  C   UNL     1      22.119  33.933  12.504  1.00  0.00     0.249 C 
ATOM     41  N   UNL     1      21.610  32.617  12.393  1.00  0.00    -0.324 N 
ATOM     42  O   UNL     1      21.259  34.849  12.505  1.00  0.00    -0.272 OA
ATOM     43  H   UNL     1      20.630  32.480  12.065  1.00  0.00     0.170 HD
BRANCH  41  44
ATOM     44  C   UNL     1      22.301  31.388  12.687  1.00  0.00     0.044 A 
ATOM     45  C   UNL     1      23.584  31.249  13.183  1.00  0.00    -0.024 A 
ATOM     46  C   UNL     1      21.499  30.299  12.407  1.00  0.00     0.026 A 
ATOM     47  C   UNL     1      24.061  29.994  13.398  1.00  0.00     0.006 A 
ATOM     48  C   UNL     1      21.985  29.028  12.627  1.00  0.00     0.002 A 
ATOM     49  C   UNL     1      23.263  28.891  13.121  1.00  0.00     0.000 A 
BRANCH  45  50
ATOM     50  C   UNL     1      24.531  32.346  13.519  1.00  0.00     0.040 C 
BRANCH  50  51
ATOM     51  C   UNL     1      24.584  33.414  12.439  1.00  0.00     0.042 CG0
ATOM     52  G   UNL     1      23.533  34.459  12.622  1.00  0.00     0.000 G0
ENDBRANCH  50  51
ENDBRANCH  45  50
ENDBRANCH  41  44
ENDBRANCH  38  40
ENDBRANCH  36  38
ENDBRANCH  32  33
ENDBRANCH   1  32
TORSDOF 15
BEGIN_RES LYS A 131
REMARK  4 active torsions:
REMARK  status: ('A' for Active; 'I' for Inactive)
REMARK    1  A    between atoms: CA   and  CB  
REMARK    2  A    between atoms: CB   and  CG  
REMARK    3  A    between atoms: CG   and  CD  
REMARK    4  A    between atoms: CD   and  CE  
ROOT
ATOM      1  CA  LYS A 131      29.867  25.555  16.977  1.00 20.52     0.186 C 
ENDROOT
BRANCH   1   2
ATOM      2  CB  LYS A 131      28.345  25.722  17.026  1.00 20.94     0.034 C 
BRANCH   2   3
ATOM      3  CG  LYS A 131      27.602  24.397  16.944  1.00 22.96     0.005 C 
BRANCH   3   4
ATOM      4  CD  LYS A 131      26.151  24.538  17.310  1.00 24.33     0.041 C 
BRANCH   4   5
ATOM      5  CE  LYS A 131      25.729  23.358  18.180  1.00 26.91     0.338 C 
ATOM      6  NZ  LYS A 131      25.427  22.175  17.340  1.00 27.40     0.618 N 
ENDBRANCH   4   5
ENDBRANCH   3   4
ENDBRANCH   2   3
ENDBRANCH   1   2
END_RES LYS A 131
BEGIN_RES LYS A 135
REMARK  4 active torsions:
REMARK  status: ('A' for Active; 'I' for Inactive)
REMARK    5  A    between atoms: CA   and  CB  
REMARK    6  A    between atoms: CB   and  CG  
REMARK    7  A    between atoms: CG   and  CD  
REMARK    8  A    between atoms: CD   and  CE  
ROOT
ATOM      7  CA  LYS A 135      33.193  34.663   9.290  1.00 25.02     0.186 C 
ENDROOT
BRANCH   7   8
ATOM      8  CB  LYS A 135      32.060  35.360  10.034  1.00 26.63     0.034 C 
BRANCH   8   9
ATOM      9  CG  LYS A 135      30.782  34.563  10.069  1.00 29.45     0.005 C 
BRANCH   9  10
ATOM     10  CD  LYS A 135      30.288  34.279   8.659  1.00 32.00     0.041 C 
BRANCH  10  11
ATOM     11  CE  LYS A 135      29.749  35.544   8.019  1.00 34.25     0.338 C 
ATOM     12  NZ  LYS A 135      28.567  35.251   7.162  1.00 35.99     0.618 N 
ENDBRANCH  10  11
ENDBRANCH   9  10
ENDBRANCH   8   9
ENDBRANCH   7   8
END_RES LYS A 135
