REMARK VINA RESULT:    -4.707      4.375     11.475
REMARK INTER + INTRA:         -15.184
REMARK INTER:                  -8.620
REMARK INTRA:                  -6.564
REMARK UNBOUND:                -6.624
REMARK SMILES CC(=O)N[C@@H]1[C@@H](O)C[C@](O)(C(=O)O)O[C@H]1C(O)[C@H](O)CNC(=O)OCc1cn(-c2cccc(S(N)(=O)=O)c2)nn1
REMARK SMILES IDX 21 1 22 2 23 3 20 5 18 6 16 7 15 8 9 9 8 10 14 11 6 12 5 13
REMARK SMILES IDX 10 14 11 16 12 17 13 18 7 20 4 22 2 23 1 25 3 26 17 27 19 29
REMARK SMILES IDX 24 31 25 32 26 33 27 34 40 35 28 36 39 37 29 38 38 39 30 40
REMARK SMILES IDX 33 41 31 42 32 43 34 44 36 45 37 46 35 47
REMARK H PARENT 21 4 10 15 13 19 7 21 4 24 17 28 19 30 35 48 35 49
REMARK Flexibility Score: inf
ROOT
ATOM      1  N   UNL     1      25.942  28.127  19.086  1.00  0.00    -0.319 N 
ATOM      2  C   UNL     1      25.103  29.150  18.576  1.00  0.00     0.407 C 
ATOM      3  O   UNL     1      24.878  30.148  19.281  1.00  0.00    -0.225 OA
ATOM      4  H   UNL     1      26.091  27.310  18.433  1.00  0.00     0.167 HD
ENDROOT
BRANCH   1   5
ATOM      5  C   UNL     1      26.548  28.190  20.391  1.00  0.00     0.154 C 
BRANCH   5   6
ATOM      6  C   UNL     1      28.042  27.958  20.308  1.00  0.00     0.165 C 
BRANCH   6   7
ATOM      7  C   UNL     1      28.745  29.295  20.121  1.00  0.00     0.176 C 
BRANCH   7   8
ATOM      8  C   UNL     1      30.216  29.121  20.493  1.00  0.00     0.178 C 
ATOM      9  C   UNL     1      30.776  28.271  22.575  1.00  0.00     0.269 C 
ATOM     10  C   UNL     1      32.046  29.085  22.661  1.00  0.00     0.112 C 
ATOM     11  O   UNL     1      30.386  28.021  21.275  1.00  0.00    -0.332 OA
ATOM     12  C   UNL     1      32.139  30.136  21.608  1.00  0.00     0.145 C 
ATOM     13  C   UNL     1      30.734  30.404  21.069  1.00  0.00     0.142 C 
BRANCH   9  14
ATOM     14  O   UNL     1      29.730  28.864  23.276  1.00  0.00    -0.357 OA
ATOM     15  H   UNL     1      29.911  28.768  24.263  1.00  0.00     0.214 HD
ENDBRANCH   9  14
BRANCH   9  16
ATOM     16  C   UNL     1      31.059  26.958  23.214  1.00  0.00     0.364 C 
ATOM     17  O   UNL     1      32.065  26.785  23.950  1.00  0.00    -0.246 OA
BRANCH  16  18
ATOM     18  O   UNL     1      30.224  25.855  23.031  1.00  0.00    -0.477 OA
ATOM     19  H   UNL     1      29.217  25.966  23.040  1.00  0.00     0.296 HD
ENDBRANCH  16  18
ENDBRANCH   9  16
BRANCH  12  20
ATOM     20  O   UNL     1      32.732  31.312  22.033  1.00  0.00    -0.391 OA
ATOM     21  H   UNL     1      33.401  31.175  22.762  1.00  0.00     0.211 HD
ENDBRANCH  12  20
BRANCH  13  22
ATOM     22  N   UNL     1      30.822  31.368  19.985  1.00  0.00    -0.348 N 
ATOM     23  C   UNL     1      30.255  32.674  20.076  1.00  0.00     0.217 C 
ATOM     24  H   UNL     1      31.324  31.090  19.097  1.00  0.00     0.163 HD
ATOM     25  C   UNL     1      30.406  33.576  18.905  1.00  0.00     0.114 C 
ATOM     26  O   UNL     1      29.668  32.985  21.126  1.00  0.00    -0.275 OA
ENDBRANCH  13  22
ENDBRANCH   7   8
BRANCH   7  27
ATOM     27  O   UNL     1      28.674  29.625  18.780  1.00  0.00    -0.388 OA
ATOM     28  H   UNL     1      28.056  30.379  18.627  1.00  0.00     0.211 HD
ENDBRANCH   7  27
ENDBRANCH   6   7
BRANCH   6  29
ATOM     29  O   UNL     1      28.293  27.130  19.200  1.00  0.00    -0.388 OA
ATOM     30  H   UNL     1      28.142  26.161  19.435  1.00  0.00     0.211 HD
ENDBRANCH   6  29
ENDBRANCH   5   6
ENDBRANCH   1   5
BRANCH   2  31
ATOM     31  O   UNL     1      24.529  29.057  17.304  1.00  0.00    -0.443 OA
BRANCH  31  32
ATOM     32  C   UNL     1      24.804  30.017  16.304  1.00  0.00     0.294 C 
BRANCH  32  33
ATOM     33  C   UNL     1      26.270  30.172  16.135  1.00  0.00     0.121 A 
ATOM     34  C   UNL     1      26.918  31.368  15.892  1.00  0.00     0.144 A 
ATOM     35  N   UNL     1      27.222  29.233  16.180  1.00  0.00    -0.131 NA
ATOM     36  N   UNL     1      28.222  31.063  15.808  1.00  0.00    -0.220 N 
ATOM     37  N   UNL     1      28.419  29.765  15.982  1.00  0.00    -0.062 NA
BRANCH  36  38
ATOM     38  C   UNL     1      29.273  31.996  15.564  1.00  0.00     0.068 A 
ATOM     39  C   UNL     1      29.046  33.259  15.063  1.00  0.00     0.050 A 
ATOM     40  C   UNL     1      30.588  31.653  15.829  1.00  0.00     0.028 A 
ATOM     41  C   UNL     1      30.079  34.165  14.827  1.00  0.00     0.084 A 
ATOM     42  C   UNL     1      31.619  32.525  15.607  1.00  0.00     0.004 A 
ATOM     43  C   UNL     1      31.362  33.779  15.106  1.00  0.00     0.022 A 
BRANCH  41  44
ATOM     44  S   UNL     1      29.788  35.753  14.195  1.00  0.00     0.238 S 
ATOM     45  O   UNL     1      30.234  35.779  12.756  1.00  0.00    -0.207 OA
ATOM     46  O   UNL     1      30.656  36.749  14.928  1.00  0.00    -0.207 OA
BRANCH  44  47
ATOM     47  N   UNL     1      28.127  36.178  14.278  1.00  0.00    -0.225 NA
ATOM     48  H   UNL     1      27.561  35.337  14.492  1.00  0.00     0.137 HD
ATOM     49  H   UNL     1      27.792  36.652  13.414  1.00  0.00     0.137 HD
ENDBRANCH  44  47
ENDBRANCH  41  44
ENDBRANCH  36  38
ENDBRANCH  32  33
ENDBRANCH  31  32
ENDBRANCH   2  31
TORSDOF 17
BEGIN_RES LYS A 131
REMARK  4 active torsions:
REMARK  status: ('A' for Active; 'I' for Inactive)
REMARK    1  A    between atoms: CA   and  CB  
REMARK    2  A    between atoms: CB   and  CG  
REMARK    3  A    between atoms: CG   and  CD  
REMARK    4  A    between atoms: CD   and  CE  
ROOT
ATOM      1  CA  LYS A 131      29.867  25.555  16.977  1.00 20.52     0.186 C 
ENDROOT
BRANCH   1   2
ATOM      2  CB  LYS A 131      28.345  25.722  17.026  1.00 20.94     0.034 C 
BRANCH   2   3
ATOM      3  CG  LYS A 131      27.601  24.403  16.887  1.00 22.96     0.005 C 
BRANCH   3   4
ATOM      4  CD  LYS A 131      26.542  24.236  17.942  1.00 24.33     0.041 C 
BRANCH   4   5
ATOM      5  CE  LYS A 131      25.174  24.128  17.277  1.00 26.91     0.338 C 
ATOM      6  NZ  LYS A 131      24.457  25.422  17.352  1.00 27.40     0.618 N 
ENDBRANCH   4   5
ENDBRANCH   3   4
ENDBRANCH   2   3
ENDBRANCH   1   2
END_RES LYS A 131
BEGIN_RES LYS A 135
REMARK  4 active torsions:
REMARK  status: ('A' for Active; 'I' for Inactive)
REMARK    5  A    between atoms: CA   and  CB  
REMARK    6  A    between atoms: CB   and  CG  
REMARK    7  A    between atoms: CG   and  CD  
REMARK    8  A    between atoms: CD   and  CE  
ROOT
ATOM      7  CA  LYS A 135      33.193  34.663   9.290  1.00 25.02     0.186 C 
ENDROOT
BRANCH   7   8
ATOM      8  CB  LYS A 135      32.060  35.360  10.034  1.00 26.63     0.034 C 
BRANCH   8   9
ATOM      9  CG  LYS A 135      30.802  35.503   9.218  1.00 29.45     0.005 C 
BRANCH   9  10
ATOM     10  CD  LYS A 135      30.123  34.155   9.036  1.00 32.00     0.041 C 
BRANCH  10  11
ATOM     11  CE  LYS A 135      28.666  34.338   8.657  1.00 34.25     0.338 C 
ATOM     12  NZ  LYS A 135      27.769  33.654   9.629  1.00 35.99     0.618 N 
ENDBRANCH  10  11
ENDBRANCH   9  10
ENDBRANCH   8   9
ENDBRANCH   7   8
END_RES LYS A 135
