REMARK VINA RESULT:    -5.067      5.715     10.355
REMARK INTER + INTRA:         -15.252
REMARK INTER:                  -9.189
REMARK INTRA:                  -6.063
REMARK UNBOUND:                -6.187
REMARK SMILES CC(=O)N[C@@H]1[C@@H](O)C[C@](O)(C(=O)O)O[C@H]1C(O)[C@H](O)CNC(=O)OCc1cn(-c2cc(Cl)ccc2C(=O)N(C)C)nn1
REMARK SMILES IDX 21 1 22 2 23 3 20 5 18 6 16 7 15 8 9 9 8 10 14 11 6 12 5 13
REMARK SMILES IDX 10 14 11 16 12 17 13 18 7 20 4 22 2 23 1 25 3 26 17 27 19 29
REMARK SMILES IDX 24 31 25 32 26 33 27 34 42 35 28 36 41 37 29 38 30 39 35 40
REMARK SMILES IDX 31 41 34 42 32 43 33 44 36 45 37 46 38 47 39 48 40 49
REMARK H PARENT 21 4 10 15 13 19 7 21 4 24 17 28 19 30
REMARK Flexibility Score: inf
ROOT
ATOM      1  N   UNL     1      33.684  34.689  20.775  1.00  0.00    -0.319 N 
ATOM      2  C   UNL     1      34.361  35.917  20.735  1.00  0.00     0.407 C 
ATOM      3  O   UNL     1      33.725  36.983  20.620  1.00  0.00    -0.225 OA
ATOM      4  H   UNL     1      34.227  33.802  20.876  1.00  0.00     0.167 HD
ENDROOT
BRANCH   1   5
ATOM      5  C   UNL     1      32.251  34.592  20.682  1.00  0.00     0.154 C 
BRANCH   5   6
ATOM      6  C   UNL     1      31.867  33.922  19.388  1.00  0.00     0.165 C 
BRANCH   6   7
ATOM      7  C   UNL     1      31.721  34.900  18.250  1.00  0.00     0.176 C 
BRANCH   7   8
ATOM      8  C   UNL     1      31.045  34.270  17.092  1.00  0.00     0.178 C 
ATOM      9  C   UNL     1      30.652  32.371  15.867  1.00  0.00     0.269 C 
ATOM     10  C   UNL     1      29.563  33.251  15.307  1.00  0.00     0.112 C 
ATOM     11  O   UNL     1      31.491  33.005  16.750  1.00  0.00    -0.332 OA
ATOM     12  C   UNL     1      30.046  34.605  14.903  1.00  0.00     0.145 C 
ATOM     13  C   UNL     1      31.147  35.119  15.825  1.00  0.00     0.142 C 
BRANCH   9  14
ATOM     14  O   UNL     1      31.453  31.952  14.790  1.00  0.00    -0.357 OA
ATOM     15  H   UNL     1      31.214  32.564  14.029  1.00  0.00     0.214 HD
ENDBRANCH   9  14
BRANCH   9  16
ATOM     16  C   UNL     1      30.099  31.184  16.527  1.00  0.00     0.364 C 
ATOM     17  O   UNL     1      29.291  30.449  15.909  1.00  0.00    -0.246 OA
BRANCH  16  18
ATOM     18  O   UNL     1      30.411  30.800  17.822  1.00  0.00    -0.477 OA
ATOM     19  H   UNL     1      30.807  29.854  17.939  1.00  0.00     0.296 HD
ENDBRANCH  16  18
ENDBRANCH   9  16
BRANCH  12  20
ATOM     20  O   UNL     1      30.510  34.531  13.574  1.00  0.00    -0.391 OA
ATOM     21  H   UNL     1      29.711  34.307  13.026  1.00  0.00     0.211 HD
ENDBRANCH  12  20
BRANCH  13  22
ATOM     22  N   UNL     1      31.026  36.511  16.095  1.00  0.00    -0.348 N 
ATOM     23  C   UNL     1      31.486  37.467  15.155  1.00  0.00     0.217 C 
ATOM     24  H   UNL     1      30.601  36.857  16.977  1.00  0.00     0.163 HD
ATOM     25  C   UNL     1      31.335  38.924  15.486  1.00  0.00     0.114 C 
ATOM     26  O   UNL     1      32.011  37.175  14.066  1.00  0.00    -0.275 OA
ENDBRANCH  13  22
ENDBRANCH   7   8
BRANCH   7  27
ATOM     27  O   UNL     1      32.930  35.494  17.988  1.00  0.00    -0.388 OA
ATOM     28  H   UNL     1      33.649  34.832  18.243  1.00  0.00     0.211 HD
ENDBRANCH   7  27
ENDBRANCH   6   7
BRANCH   6  29
ATOM     29  O   UNL     1      30.584  33.309  19.538  1.00  0.00    -0.388 OA
ATOM     30  H   UNL     1      30.673  32.380  19.829  1.00  0.00     0.211 HD
ENDBRANCH   6  29
ENDBRANCH   5   6
ENDBRANCH   1   5
BRANCH   2  31
ATOM     31  O   UNL     1      35.745  36.031  20.819  1.00  0.00    -0.443 OA
BRANCH  31  32
ATOM     32  C   UNL     1      36.562  35.072  20.176  1.00  0.00     0.294 C 
BRANCH  32  33
ATOM     33  C   UNL     1      36.715  35.379  18.747  1.00  0.00     0.121 A 
ATOM     34  C   UNL     1      37.563  34.825  17.811  1.00  0.00     0.144 A 
ATOM     35  N   UNL     1      36.010  36.307  18.078  1.00  0.00    -0.131 NA
ATOM     36  N   UNL     1      37.354  35.424  16.608  1.00  0.00    -0.219 N 
ATOM     37  N   UNL     1      36.410  36.309  16.817  1.00  0.00    -0.062 NA
BRANCH  36  38
ATOM     38  C   UNL     1      38.009  35.161  15.375  1.00  0.00     0.081 A 
ATOM     39  C   UNL     1      37.430  34.329  14.427  1.00  0.00     0.049 A 
ATOM     40  C   UNL     1      39.231  35.740  15.124  1.00  0.00     0.065 A 
ATOM     41  C   UNL     1      38.045  34.061  13.230  1.00  0.00     0.043 A 
ATOM     42  C   UNL     1      39.881  35.493  13.927  1.00  0.00     0.017 A 
ATOM     43  Cl  UNL     1      37.319  33.007  12.020  1.00  0.00    -0.084 Cl
ATOM     44  C   UNL     1      39.271  34.652  12.997  1.00  0.00     0.021 A 
BRANCH  40  45
ATOM     45  C   UNL     1      39.822  36.604  16.119  1.00  0.00     0.255 C 
ATOM     46  O   UNL     1      40.578  36.182  17.039  1.00  0.00    -0.269 OA
ATOM     47  N   UNL     1      39.559  37.993  16.089  1.00  0.00    -0.345 N 
ATOM     48  C   UNL     1      38.702  38.521  15.057  1.00  0.00     0.146 C 
ATOM     49  C   UNL     1      40.128  38.910  17.066  1.00  0.00     0.146 C 
ENDBRANCH  40  45
ENDBRANCH  36  38
ENDBRANCH  32  33
ENDBRANCH  31  32
ENDBRANCH   2  31
TORSDOF 16
BEGIN_RES LYS A 131
REMARK  4 active torsions:
REMARK  status: ('A' for Active; 'I' for Inactive)
REMARK    1  A    between atoms: CA   and  CB  
REMARK    2  A    between atoms: CB   and  CG  
REMARK    3  A    between atoms: CG   and  CD  
REMARK    4  A    between atoms: CD   and  CE  
ROOT
ATOM      1  CA  LYS A 131      29.867  25.555  16.977  1.00 20.52     0.186 C 
ENDROOT
BRANCH   1   2
ATOM      2  CB  LYS A 131      28.345  25.722  17.026  1.00 20.94     0.034 C 
BRANCH   2   3
ATOM      3  CG  LYS A 131      27.600  24.412  16.822  1.00 22.96     0.005 C 
BRANCH   3   4
ATOM      4  CD  LYS A 131      26.802  24.019  18.034  1.00 24.33     0.041 C 
BRANCH   4   5
ATOM      5  CE  LYS A 131      25.701  23.046  17.626  1.00 26.91     0.338 C 
ATOM      6  NZ  LYS A 131      24.913  22.627  18.809  1.00 27.40     0.618 N 
ENDBRANCH   4   5
ENDBRANCH   3   4
ENDBRANCH   2   3
ENDBRANCH   1   2
END_RES LYS A 131
BEGIN_RES LYS A 135
REMARK  4 active torsions:
REMARK  status: ('A' for Active; 'I' for Inactive)
REMARK    5  A    between atoms: CA   and  CB  
REMARK    6  A    between atoms: CB   and  CG  
REMARK    7  A    between atoms: CG   and  CD  
REMARK    8  A    between atoms: CD   and  CE  
ROOT
ATOM      7  CA  LYS A 135      33.193  34.663   9.290  1.00 25.02     0.186 C 
ENDROOT
BRANCH   7   8
ATOM      8  CB  LYS A 135      32.060  35.360  10.034  1.00 26.63     0.034 C 
BRANCH   8   9
ATOM      9  CG  LYS A 135      30.880  35.693   9.159  1.00 29.45     0.005 C 
BRANCH   9  10
ATOM     10  CD  LYS A 135      30.367  34.448   8.452  1.00 32.00     0.041 C 
BRANCH  10  11
ATOM     11  CE  LYS A 135      28.852  34.455   8.392  1.00 34.25     0.338 C 
ATOM     12  NZ  LYS A 135      28.265  33.758   9.570  1.00 35.99     0.618 N 
ENDBRANCH  10  11
ENDBRANCH   9  10
ENDBRANCH   8   9
ENDBRANCH   7   8
END_RES LYS A 135
