REMARK VINA RESULT:    -4.924      8.275     13.144
REMARK INTER + INTRA:         -13.795
REMARK INTER:                  -8.476
REMARK INTRA:                  -5.319
REMARK UNBOUND:                -5.272
REMARK SMILES CC(=O)N[C@@H]1[C@@H](O)C[C@](O)(C(=O)O)O[C@H]1C(O)[C@H](O)CNC(=O)OCc1cn(-c2ccncc2)nn1
REMARK SMILES IDX 20 1 18 2 16 3 15 4 9 5 8 6 14 7 6 8 5 9 10 10 11 12 12 13
REMARK SMILES IDX 13 14 7 16 4 18 2 19 1 21 3 22 17 23 19 25 21 27 22 28 23 30
REMARK SMILES IDX 24 31 25 32 26 33 27 34 36 35 28 36 35 37 29 38 30 39 34 40
REMARK SMILES IDX 31 41 33 42 32 43
REMARK H PARENT 10 11 13 15 7 17 4 20 17 24 19 26 21 29
REMARK Flexibility Score: inf
ROOT
ATOM      1  C   UNL     1      21.776  35.708   9.215  1.00  0.00     0.154 C 
ENDROOT
BRANCH   1   2
ATOM      2  C   UNL     1      22.130  36.342   7.915  1.00  0.00     0.165 C 
BRANCH   2   3
ATOM      3  C   UNL     1      22.864  37.661   8.089  1.00  0.00     0.176 C 
BRANCH   3   4
ATOM      4  C   UNL     1      24.304  37.594   7.727  1.00  0.00     0.178 C 
ATOM      5  C   UNL     1      26.358  36.727   8.319  1.00  0.00     0.269 C 
ATOM      6  C   UNL     1      26.862  37.562   7.168  1.00  0.00     0.112 C 
ATOM      7  O   UNL     1      24.997  36.592   8.346  1.00  0.00    -0.332 OA
ATOM      8  C   UNL     1      26.243  38.932   7.129  1.00  0.00     0.145 C 
ATOM      9  C   UNL     1      25.017  38.904   8.021  1.00  0.00     0.142 C 
BRANCH   5  10
ATOM     10  O   UNL     1      26.853  37.177   9.544  1.00  0.00    -0.357 OA
ATOM     11  H   UNL     1      26.522  38.089   9.764  1.00  0.00     0.214 HD
ENDBRANCH   5  10
BRANCH   5  12
ATOM     12  C   UNL     1      26.932  35.350   8.122  1.00  0.00     0.364 C 
ATOM     13  O   UNL     1      27.706  35.059   7.197  1.00  0.00    -0.246 OA
BRANCH  12  14
ATOM     14  O   UNL     1      26.539  34.393   9.054  1.00  0.00    -0.477 OA
ATOM     15  H   UNL     1      25.581  34.372   9.395  1.00  0.00     0.296 HD
ENDBRANCH  12  14
ENDBRANCH   5  12
BRANCH   8  16
ATOM     16  O   UNL     1      27.130  39.920   7.556  1.00  0.00    -0.391 OA
ATOM     17  H   UNL     1      27.238  39.864   8.536  1.00  0.00     0.211 HD
ENDBRANCH   8  16
BRANCH   9  18
ATOM     18  N   UNL     1      24.166  40.049   7.798  1.00  0.00    -0.348 N 
ATOM     19  C   UNL     1      24.266  41.202   8.624  1.00  0.00     0.217 C 
ATOM     20  H   UNL     1      23.463  40.065   7.038  1.00  0.00     0.163 HD
ATOM     21  C   UNL     1      23.399  42.407   8.421  1.00  0.00     0.114 C 
ATOM     22  O   UNL     1      25.111  41.210   9.554  1.00  0.00    -0.275 OA
ENDBRANCH   9  18
ENDBRANCH   3   4
BRANCH   3  23
ATOM     23  O   UNL     1      22.568  38.239   9.296  1.00  0.00    -0.388 OA
ATOM     24  H   UNL     1      22.251  39.170   9.143  1.00  0.00     0.211 HD
ENDBRANCH   3  23
ENDBRANCH   2   3
BRANCH   2  25
ATOM     25  O   UNL     1      21.028  36.625   7.130  1.00  0.00    -0.388 OA
ATOM     26  H   UNL     1      20.238  36.912   7.640  1.00  0.00     0.211 HD
ENDBRANCH   2  25
ENDBRANCH   1   2
BRANCH   1  27
ATOM     27  N   UNL     1      22.917  35.081   9.818  1.00  0.00    -0.319 N 
ATOM     28  C   UNL     1      23.588  35.451  10.989  1.00  0.00     0.407 C 
ATOM     29  H   UNL     1      23.324  34.213   9.322  1.00  0.00     0.167 HD
ATOM     30  O   UNL     1      23.227  36.431  11.643  1.00  0.00    -0.225 OA
BRANCH  28  31
ATOM     31  O   UNL     1      24.698  34.740  11.485  1.00  0.00    -0.443 OA
BRANCH  31  32
ATOM     32  C   UNL     1      25.239  35.093  12.763  1.00  0.00     0.294 C 
BRANCH  32  33
ATOM     33  C   UNL     1      26.696  34.931  12.783  1.00  0.00     0.121 A 
ATOM     34  C   UNL     1      27.518  34.522  13.808  1.00  0.00     0.144 A 
ATOM     35  N   UNL     1      27.510  35.172  11.734  1.00  0.00    -0.131 NA
ATOM     36  N   UNL     1      28.784  34.535  13.332  1.00  0.00    -0.220 N 
ATOM     37  N   UNL     1      28.769  34.928  12.084  1.00  0.00    -0.062 NA
BRANCH  36  38
ATOM     38  C   UNL     1      29.968  34.182  14.050  1.00  0.00     0.069 A 
ATOM     39  C   UNL     1      29.990  32.997  14.745  1.00  0.00     0.048 A 
ATOM     40  C   UNL     1      31.072  35.027  14.043  1.00  0.00     0.048 A 
ATOM     41  C   UNL     1      31.140  32.672  15.431  1.00  0.00     0.113 A 
ATOM     42  C   UNL     1      32.188  34.660  14.738  1.00  0.00     0.113 A 
ATOM     43  N   UNL     1      32.198  33.494  15.416  1.00  0.00    -0.265 NA
ENDBRANCH  36  38
ENDBRANCH  32  33
ENDBRANCH  31  32
ENDBRANCH  28  31
ENDBRANCH   1  27
TORSDOF 15
BEGIN_RES LYS A 131
REMARK  4 active torsions:
REMARK  status: ('A' for Active; 'I' for Inactive)
REMARK    1  A    between atoms: CA   and  CB  
REMARK    2  A    between atoms: CB   and  CG  
REMARK    3  A    between atoms: CG   and  CD  
REMARK    4  A    between atoms: CD   and  CE  
ROOT
ATOM      1  CA  LYS A 131      29.867  25.555  16.977  1.00 20.52     0.186 C 
ENDROOT
BRANCH   1   2
ATOM      2  CB  LYS A 131      28.345  25.722  17.026  1.00 20.94     0.034 C 
BRANCH   2   3
ATOM      3  CG  LYS A 131      27.601  24.401  16.900  1.00 22.96     0.005 C 
BRANCH   3   4
ATOM      4  CD  LYS A 131      26.157  24.524  17.299  1.00 24.33     0.041 C 
BRANCH   4   5
ATOM      5  CE  LYS A 131      26.060  25.228  18.648  1.00 26.91     0.338 C 
ATOM      6  NZ  LYS A 131      24.913  26.166  18.663  1.00 27.40     0.618 N 
ENDBRANCH   4   5
ENDBRANCH   3   4
ENDBRANCH   2   3
ENDBRANCH   1   2
END_RES LYS A 131
BEGIN_RES LYS A 135
REMARK  4 active torsions:
REMARK  status: ('A' for Active; 'I' for Inactive)
REMARK    5  A    between atoms: CA   and  CB  
REMARK    6  A    between atoms: CB   and  CG  
REMARK    7  A    between atoms: CG   and  CD  
REMARK    8  A    between atoms: CD   and  CE  
ROOT
ATOM      7  CA  LYS A 135      33.193  34.663   9.290  1.00 25.02     0.186 C 
ENDROOT
BRANCH   7   8
ATOM      8  CB  LYS A 135      32.060  35.360  10.034  1.00 26.63     0.034 C 
BRANCH   8   9
ATOM      9  CG  LYS A 135      30.758  35.370   9.276  1.00 29.45     0.005 C 
BRANCH   9  10
ATOM     10  CD  LYS A 135      30.372  36.791   8.892  1.00 32.00     0.041 C 
BRANCH  10  11
ATOM     11  CE  LYS A 135      30.286  37.671  10.124  1.00 34.25     0.338 C 
ATOM     12  NZ  LYS A 135      30.876  39.013   9.867  1.00 35.99     0.618 N 
ENDBRANCH  10  11
ENDBRANCH   9  10
ENDBRANCH   8   9
ENDBRANCH   7   8
END_RES LYS A 135
