REMARK VINA RESULT:    -6.281      3.224      5.399
REMARK INTER + INTRA:         -15.746
REMARK INTER:                 -10.206
REMARK INTRA:                  -5.540
REMARK UNBOUND:                -3.774
REMARK SMILES CC(=O)N[C@@H]1[C@@H](O)C[C@](O)(C(=O)O)O[C@H]1C(O)[C@H](O)CNC(=O)OCc1cn(COCc2ccccc2)nn1
REMARK SMILES IDX 21 1 22 2 23 3 20 5 18 6 16 7 15 8 9 9 8 10 14 11 6 12 5 13
REMARK SMILES IDX 10 14 11 16 12 17 13 18 7 20 4 22 2 23 1 25 3 26 17 27 19 29
REMARK SMILES IDX 24 31 25 32 26 33 27 34 39 35 28 36 38 37 29 38 30 39 31 40
REMARK SMILES IDX 32 41 33 42 37 43 34 44 36 45 35 46
REMARK H PARENT 21 4 10 15 13 19 7 21 4 24 17 28 19 30
REMARK Flexibility Score: inf
ROOT
ATOM      1  N   UNL     1      25.644  40.103   5.679  1.00  0.00    -0.319 N 
ATOM      2  C   UNL     1      25.422  40.943   6.810  1.00  0.00     0.407 C 
ATOM      3  O   UNL     1      26.387  41.509   7.407  1.00  0.00    -0.225 OA
ATOM      4  H   UNL     1      24.834  39.659   5.218  1.00  0.00     0.167 HD
ENDROOT
BRANCH   1   5
ATOM      5  C   UNL     1      27.015  39.926   5.246  1.00  0.00     0.154 C 
BRANCH   5   6
ATOM      6  C   UNL     1      27.631  38.673   5.806  1.00  0.00     0.165 C 
BRANCH   6   7
ATOM      7  C   UNL     1      29.115  38.877   6.021  1.00  0.00     0.176 C 
BRANCH   7   8
ATOM      8  C   UNL     1      29.465  39.117   7.452  1.00  0.00     0.178 C 
ATOM      9  C   UNL     1      28.464  39.285   9.550  1.00  0.00     0.269 C 
ATOM     10  C   UNL     1      29.715  40.058   9.941  1.00  0.00     0.112 C 
ATOM     11  O   UNL     1      28.279  39.215   8.174  1.00  0.00    -0.332 OA
ATOM     12  C   UNL     1      29.929  41.109   8.873  1.00  0.00     0.145 C 
ATOM     13  C   UNL     1      30.328  40.348   7.620  1.00  0.00     0.142 C 
BRANCH   9  14
ATOM     14  O   UNL     1      27.395  40.032  10.043  1.00  0.00    -0.357 OA
ATOM     15  H   UNL     1      26.713  40.210   9.349  1.00  0.00     0.214 HD
ENDBRANCH   9  14
BRANCH   9  16
ATOM     16  C   UNL     1      28.451  37.964  10.189  1.00  0.00     0.364 C 
ATOM     17  O   UNL     1      29.514  37.297  10.250  1.00  0.00    -0.246 OA
BRANCH  16  18
ATOM     18  O   UNL     1      27.314  37.390  10.743  1.00  0.00    -0.477 OA
ATOM     19  H   UNL     1      27.317  37.201  11.740  1.00  0.00     0.296 HD
ENDBRANCH  16  18
ENDBRANCH   9  16
BRANCH  12  20
ATOM     20  O   UNL     1      28.774  41.851   8.646  1.00  0.00    -0.391 OA
ATOM     21  H   UNL     1      28.814  42.220   7.710  1.00  0.00     0.211 HD
ENDBRANCH  12  20
BRANCH  13  22
ATOM     22  N   UNL     1      31.705  39.939   7.797  1.00  0.00    -0.348 N 
ATOM     23  C   UNL     1      32.654  40.164   6.763  1.00  0.00     0.217 C 
ATOM     24  H   UNL     1      32.063  39.473   8.666  1.00  0.00     0.163 HD
ATOM     25  C   UNL     1      34.082  39.765   6.893  1.00  0.00     0.114 C 
ATOM     26  O   UNL     1      32.311  40.718   5.688  1.00  0.00    -0.275 OA
ENDBRANCH  13  22
ENDBRANCH   7   8
BRANCH   7  27
ATOM     27  O   UNL     1      29.585  39.822   5.142  1.00  0.00    -0.388 OA
ATOM     28  H   UNL     1      28.842  40.466   4.968  1.00  0.00     0.211 HD
ENDBRANCH   7  27
ENDBRANCH   6   7
BRANCH   6  29
ATOM     29  O   UNL     1      27.380  37.619   4.936  1.00  0.00    -0.388 OA
ATOM     30  H   UNL     1      26.978  37.964   4.095  1.00  0.00     0.211 HD
ENDBRANCH   6  29
ENDBRANCH   5   6
ENDBRANCH   1   5
BRANCH   2  31
ATOM     31  O   UNL     1      24.151  41.185   7.314  1.00  0.00    -0.443 OA
BRANCH  31  32
ATOM     32  C   UNL     1      23.658  40.618   8.511  1.00  0.00     0.294 C 
BRANCH  32  33
ATOM     33  C   UNL     1      23.614  39.140   8.470  1.00  0.00     0.120 A 
ATOM     34  C   UNL     1      24.227  38.198   9.269  1.00  0.00     0.141 A 
ATOM     35  N   UNL     1      22.912  38.429   7.571  1.00  0.00    -0.132 NA
ATOM     36  N   UNL     1      23.887  36.958   8.841  1.00  0.00    -0.226 N 
ATOM     37  N   UNL     1      23.086  37.147   7.809  1.00  0.00    -0.065 NA
BRANCH  36  38
ATOM     38  C   UNL     1      24.315  35.669   9.405  1.00  0.00     0.307 C 
BRANCH  38  39
ATOM     39  O   UNL     1      25.706  35.620   9.434  1.00  0.00    -0.355 OA
BRANCH  39  40
ATOM     40  C   UNL     1      26.214  34.572   8.702  1.00  0.00     0.198 C 
BRANCH  40  41
ATOM     41  C   UNL     1      27.679  34.602   8.523  1.00  0.00    -0.022 A 
ATOM     42  C   UNL     1      28.493  33.948   9.426  1.00  0.00     0.006 A 
ATOM     43  C   UNL     1      28.255  35.266   7.469  1.00  0.00     0.006 A 
ATOM     44  C   UNL     1      29.881  33.958   9.274  1.00  0.00     0.000 A 
ATOM     45  C   UNL     1      29.633  35.272   7.323  1.00  0.00     0.000 A 
ATOM     46  C   UNL     1      30.443  34.632   8.207  1.00  0.00     0.000 A 
ENDBRANCH  40  41
ENDBRANCH  39  40
ENDBRANCH  38  39
ENDBRANCH  36  38
ENDBRANCH  32  33
ENDBRANCH  31  32
ENDBRANCH   2  31
TORSDOF 18
BEGIN_RES LYS A 131
REMARK  4 active torsions:
REMARK  status: ('A' for Active; 'I' for Inactive)
REMARK    1  A    between atoms: CA   and  CB  
REMARK    2  A    between atoms: CB   and  CG  
REMARK    3  A    between atoms: CG   and  CD  
REMARK    4  A    between atoms: CD   and  CE  
ROOT
ATOM      1  CA  LYS A 131      29.867  25.555  16.977  1.00 20.52     0.186 C 
ENDROOT
BRANCH   1   2
ATOM      2  CB  LYS A 131      28.345  25.722  17.026  1.00 20.94     0.034 C 
BRANCH   2   3
ATOM      3  CG  LYS A 131      27.599  24.423  16.762  1.00 22.96     0.005 C 
BRANCH   3   4
ATOM      4  CD  LYS A 131      26.901  23.911  17.991  1.00 24.33     0.041 C 
BRANCH   4   5
ATOM      5  CE  LYS A 131      25.454  24.394  17.994  1.00 26.91     0.338 C 
ATOM      6  NZ  LYS A 131      25.126  25.042  19.285  1.00 27.40     0.618 N 
ENDBRANCH   4   5
ENDBRANCH   3   4
ENDBRANCH   2   3
ENDBRANCH   1   2
END_RES LYS A 131
BEGIN_RES LYS A 135
REMARK  4 active torsions:
REMARK  status: ('A' for Active; 'I' for Inactive)
REMARK    5  A    between atoms: CA   and  CB  
REMARK    6  A    between atoms: CB   and  CG  
REMARK    7  A    between atoms: CG   and  CD  
REMARK    8  A    between atoms: CD   and  CE  
ROOT
ATOM      7  CA  LYS A 135      33.193  34.663   9.290  1.00 25.02     0.186 C 
ENDROOT
BRANCH   7   8
ATOM      8  CB  LYS A 135      32.060  35.360  10.034  1.00 26.63     0.034 C 
BRANCH   8   9
ATOM      9  CG  LYS A 135      32.435  35.804  11.424  1.00 29.45     0.005 C 
BRANCH   9  10
ATOM     10  CD  LYS A 135      31.475  35.223  12.451  1.00 32.00     0.041 C 
BRANCH  10  11
ATOM     11  CE  LYS A 135      30.854  36.328  13.284  1.00 34.25     0.338 C 
ATOM     12  NZ  LYS A 135      31.565  37.620  13.076  1.00 35.99     0.618 N 
ENDBRANCH  10  11
ENDBRANCH   9  10
ENDBRANCH   8   9
ENDBRANCH   7   8
END_RES LYS A 135
