REMARK VINA RESULT:    -4.205      2.804      6.104
REMARK INTER + INTRA:         -14.750
REMARK INTER:                  -9.046
REMARK INTRA:                  -5.704
REMARK UNBOUND:                -6.980
REMARK SMILES CC(=O)N[C@@H]1[C@@H](O)C[C@](O)(C(=O)O)O[C@H]1C(O)[C@H](O)CNC(=O)OCc1cn(Cc2ccc(C#N)cc2)nn1
REMARK SMILES IDX 21 1 22 2 23 3 20 5 18 6 16 7 15 8 9 9 8 10 14 11 6 12 5 13
REMARK SMILES IDX 10 14 11 16 12 17 13 18 7 20 4 22 2 23 1 25 3 26 17 27 19 29
REMARK SMILES IDX 24 31 25 32 26 33 27 34 39 35 28 36 38 37 29 38 30 39 31 40
REMARK SMILES IDX 37 41 32 42 36 43 33 44 34 45 35 46
REMARK H PARENT 21 4 10 15 13 19 7 21 4 24 17 28 19 30
REMARK Flexibility Score: inf
ROOT
ATOM      1  N   UNL     1      31.200  32.134  15.142  1.00  0.00    -0.319 N 
ATOM      2  C   UNL     1      31.759  33.387  15.528  1.00  0.00     0.407 C 
ATOM      3  O   UNL     1      31.805  33.690  16.771  1.00  0.00    -0.225 OA
ATOM      4  H   UNL     1      31.177  31.910  14.130  1.00  0.00     0.167 HD
ENDROOT
BRANCH   1   5
ATOM      5  C   UNL     1      30.705  31.253  16.136  1.00  0.00     0.154 C 
BRANCH   5   6
ATOM      6  C   UNL     1      29.203  31.147  16.250  1.00  0.00     0.165 C 
BRANCH   6   7
ATOM      7  C   UNL     1      28.714  31.108  17.684  1.00  0.00     0.176 C 
BRANCH   7   8
ATOM      8  C   UNL     1      27.929  29.880  17.996  1.00  0.00     0.178 C 
ATOM      9  C   UNL     1      25.774  29.181  18.530  1.00  0.00     0.269 C 
ATOM     10  C   UNL     1      26.416  27.813  18.461  1.00  0.00     0.112 C 
ATOM     11  O   UNL     1      26.562  30.177  18.036  1.00  0.00    -0.332 OA
ATOM     12  C   UNL     1      27.734  27.750  19.149  1.00  0.00     0.145 C 
ATOM     13  C   UNL     1      28.260  29.190  19.282  1.00  0.00     0.142 C 
BRANCH   9  14
ATOM     14  O   UNL     1      25.381  29.419  19.864  1.00  0.00    -0.357 OA
ATOM     15  H   UNL     1      26.067  28.993  20.457  1.00  0.00     0.214 HD
ENDBRANCH   9  14
BRANCH   9  16
ATOM     16  C   UNL     1      24.541  29.114  17.717  1.00  0.00     0.364 C 
ATOM     17  O   UNL     1      23.768  30.097  17.690  1.00  0.00    -0.246 OA
BRANCH  16  18
ATOM     18  O   UNL     1      24.242  27.982  16.995  1.00  0.00    -0.477 OA
ATOM     19  H   UNL     1      24.256  27.045  17.355  1.00  0.00     0.296 HD
ENDBRANCH  16  18
ENDBRANCH   9  16
BRANCH  12  20
ATOM     20  O   UNL     1      27.706  27.119  20.377  1.00  0.00    -0.391 OA
ATOM     21  H   UNL     1      27.098  26.323  20.281  1.00  0.00     0.211 HD
ENDBRANCH  12  20
BRANCH  13  22
ATOM     22  N   UNL     1      29.639  29.188  19.661  1.00  0.00    -0.348 N 
ATOM     23  C   UNL     1      30.070  29.772  20.901  1.00  0.00     0.217 C 
ATOM     24  H   UNL     1      30.394  28.754  19.059  1.00  0.00     0.163 HD
ATOM     25  C   UNL     1      31.513  29.764  21.288  1.00  0.00     0.114 C 
ATOM     26  O   UNL     1      29.246  30.302  21.685  1.00  0.00    -0.275 OA
ENDBRANCH  13  22
ENDBRANCH   7   8
BRANCH   7  27
ATOM     27  O   UNL     1      28.127  32.284  18.022  1.00  0.00    -0.388 OA
ATOM     28  H   UNL     1      27.180  32.268  18.165  1.00  0.00     0.211 HD
ENDBRANCH   7  27
ENDBRANCH   6   7
BRANCH   6  29
ATOM     29  O   UNL     1      28.896  29.911  15.625  1.00  0.00    -0.388 OA
ATOM     30  H   UNL     1      28.415  30.036  14.786  1.00  0.00     0.211 HD
ENDBRANCH   6  29
ENDBRANCH   5   6
ENDBRANCH   1   5
BRANCH   2  31
ATOM     31  O   UNL     1      32.269  34.324  14.648  1.00  0.00    -0.443 OA
BRANCH  31  32
ATOM     32  C   UNL     1      31.545  35.514  14.426  1.00  0.00     0.294 C 
BRANCH  32  33
ATOM     33  C   UNL     1      30.177  35.248  13.924  1.00  0.00     0.120 A 
ATOM     34  C   UNL     1      28.970  35.486  14.562  1.00  0.00     0.138 A 
ATOM     35  N   UNL     1      29.871  34.720  12.733  1.00  0.00    -0.132 NA
ATOM     36  N   UNL     1      27.984  35.101  13.746  1.00  0.00    -0.248 N 
ATOM     37  N   UNL     1      28.559  34.644  12.654  1.00  0.00    -0.067 NA
BRANCH  36  38
ATOM     38  C   UNL     1      26.560  35.171  13.993  1.00  0.00     0.181 C 
BRANCH  38  39
ATOM     39  C   UNL     1      25.898  33.866  14.032  1.00  0.00    -0.026 A 
ATOM     40  C   UNL     1      25.026  33.508  13.037  1.00  0.00     0.007 A 
ATOM     41  C   UNL     1      26.151  32.994  15.079  1.00  0.00     0.007 A 
ATOM     42  C   UNL     1      24.390  32.282  13.063  1.00  0.00     0.020 A 
ATOM     43  C   UNL     1      25.524  31.756  15.129  1.00  0.00     0.020 A 
ATOM     44  C   UNL     1      24.640  31.414  14.105  1.00  0.00     0.052 A 
BRANCH  44  45
ATOM     45  C   UNL     1      23.984  30.141  14.143  1.00  0.00     0.099 C 
ATOM     46  N   UNL     1      23.447  29.101  14.192  1.00  0.00    -0.192 NA
ENDBRANCH  44  45
ENDBRANCH  38  39
ENDBRANCH  36  38
ENDBRANCH  32  33
ENDBRANCH  31  32
ENDBRANCH   2  31
TORSDOF 17
BEGIN_RES LYS A 131
REMARK  4 active torsions:
REMARK  status: ('A' for Active; 'I' for Inactive)
REMARK    1  A    between atoms: CA   and  CB  
REMARK    2  A    between atoms: CB   and  CG  
REMARK    3  A    between atoms: CG   and  CD  
REMARK    4  A    between atoms: CD   and  CE  
ROOT
ATOM      1  CA  LYS A 131      29.867  25.555  16.977  1.00 20.52     0.186 C 
ENDROOT
BRANCH   1   2
ATOM      2  CB  LYS A 131      28.345  25.722  17.026  1.00 20.94     0.034 C 
BRANCH   2   3
ATOM      3  CG  LYS A 131      27.599  24.439  16.694  1.00 22.96     0.005 C 
BRANCH   3   4
ATOM      4  CD  LYS A 131      26.196  24.444  17.234  1.00 24.33     0.041 C 
BRANCH   4   5
ATOM      5  CE  LYS A 131      26.222  24.111  18.723  1.00 26.91     0.338 C 
ATOM      6  NZ  LYS A 131      24.998  23.371  19.111  1.00 27.40     0.618 N 
ENDBRANCH   4   5
ENDBRANCH   3   4
ENDBRANCH   2   3
ENDBRANCH   1   2
END_RES LYS A 131
BEGIN_RES LYS A 135
REMARK  4 active torsions:
REMARK  status: ('A' for Active; 'I' for Inactive)
REMARK    5  A    between atoms: CA   and  CB  
REMARK    6  A    between atoms: CB   and  CG  
REMARK    7  A    between atoms: CG   and  CD  
REMARK    8  A    between atoms: CD   and  CE  
ROOT
ATOM      7  CA  LYS A 135      33.193  34.663   9.290  1.00 25.02     0.186 C 
ENDROOT
BRANCH   7   8
ATOM      8  CB  LYS A 135      32.060  35.360  10.034  1.00 26.63     0.034 C 
BRANCH   8   9
ATOM      9  CG  LYS A 135      30.787  35.461   9.235  1.00 29.45     0.005 C 
BRANCH   9  10
ATOM     10  CD  LYS A 135      30.223  34.078   8.946  1.00 32.00     0.041 C 
BRANCH  10  11
ATOM     11  CE  LYS A 135      28.719  34.066   9.135  1.00 34.25     0.338 C 
ATOM     12  NZ  LYS A 135      28.033  34.793   8.031  1.00 35.99     0.618 N 
ENDBRANCH  10  11
ENDBRANCH   9  10
ENDBRANCH   8   9
ENDBRANCH   7   8
END_RES LYS A 135
