REMARK VINA RESULT:    -4.496      4.654      9.129
REMARK INTER + INTRA:         -14.442
REMARK INTER:                  -8.728
REMARK INTRA:                  -5.714
REMARK UNBOUND:                -6.398
REMARK SMILES CC(=O)N[C@@H]1[C@@H](O)C[C@](O)(C(=O)O)O[C@H]1C(O)[C@H](O)CNC(=O)OCc1cn(Cc2ccc(Br)cc2)nn1
REMARK SMILES IDX 21 1 22 2 23 3 20 5 18 6 16 7 15 8 9 9 8 10 14 11 6 12 5 13
REMARK SMILES IDX 10 14 11 16 12 17 13 18 7 20 4 22 2 23 1 25 3 26 17 27 19 29
REMARK SMILES IDX 24 31 25 32 26 33 27 34 38 35 28 36 37 37 29 38 30 39 31 40
REMARK SMILES IDX 36 41 32 42 35 43 33 44 34 45
REMARK H PARENT 21 4 10 15 13 19 7 21 4 24 17 28 19 30
REMARK Flexibility Score: inf
ROOT
ATOM      1  N   UNL     1      30.752  31.327  20.170  1.00  0.00    -0.319 N 
ATOM      2  C   UNL     1      31.528  32.349  20.770  1.00  0.00     0.407 C 
ATOM      3  O   UNL     1      31.509  33.556  20.463  1.00  0.00    -0.225 OA
ATOM      4  H   UNL     1      30.846  30.321  20.518  1.00  0.00     0.167 HD
ENDROOT
BRANCH   1   5
ATOM      5  C   UNL     1      29.850  31.641  19.107  1.00  0.00     0.154 C 
BRANCH   5   6
ATOM      6  C   UNL     1      30.407  31.444  17.720  1.00  0.00     0.165 C 
BRANCH   6   7
ATOM      7  C   UNL     1      30.818  32.710  17.059  1.00  0.00     0.176 C 
BRANCH   7   8
ATOM      8  C   UNL     1      30.554  32.879  15.616  1.00  0.00     0.178 C 
ATOM      9  C   UNL     1      31.911  34.511  14.711  1.00  0.00     0.269 C 
ATOM     10  C   UNL     1      31.102  34.654  13.442  1.00  0.00     0.112 C 
ATOM     11  O   UNL     1      31.807  33.171  15.050  1.00  0.00    -0.332 OA
ATOM     12  C   UNL     1      29.683  34.389  13.810  1.00  0.00     0.145 C 
ATOM     13  C   UNL     1      29.473  33.758  15.173  1.00  0.00     0.142 C 
BRANCH   9  14
ATOM     14  O   UNL     1      31.390  35.385  15.639  1.00  0.00    -0.357 OA
ATOM     15  H   UNL     1      30.577  35.077  16.081  1.00  0.00     0.214 HD
ENDBRANCH   9  14
BRANCH   9  16
ATOM     16  C   UNL     1      33.324  34.806  14.377  1.00  0.00     0.364 C 
ATOM     17  O   UNL     1      34.135  35.290  15.197  1.00  0.00    -0.246 OA
BRANCH  16  18
ATOM     18  O   UNL     1      33.740  34.523  13.079  1.00  0.00    -0.477 OA
ATOM     19  H   UNL     1      33.204  33.960  12.439  1.00  0.00     0.296 HD
ENDBRANCH  16  18
ENDBRANCH   9  16
BRANCH  12  20
ATOM     20  O   UNL     1      29.029  35.643  13.849  1.00  0.00    -0.391 OA
ATOM     21  H   UNL     1      29.318  36.181  14.612  1.00  0.00     0.211 HD
ENDBRANCH  12  20
BRANCH  13  22
ATOM     22  N   UNL     1      28.212  33.008  14.972  1.00  0.00    -0.348 N 
ATOM     23  C   UNL     1      27.239  32.862  15.967  1.00  0.00     0.217 C 
ATOM     24  H   UNL     1      28.110  32.592  14.015  1.00  0.00     0.163 HD
ATOM     25  C   UNL     1      26.004  32.078  15.666  1.00  0.00     0.114 C 
ATOM     26  O   UNL     1      27.393  33.374  17.085  1.00  0.00    -0.275 OA
ENDBRANCH  13  22
ENDBRANCH   7   8
BRANCH   7  27
ATOM     27  O   UNL     1      30.498  33.782  17.879  1.00  0.00    -0.388 OA
ATOM     28  H   UNL     1      31.020  33.718  18.730  1.00  0.00     0.211 HD
ENDBRANCH   7  27
ENDBRANCH   6   7
BRANCH   6  29
ATOM     29  O   UNL     1      29.672  30.590  16.916  1.00  0.00    -0.388 OA
ATOM     30  H   UNL     1      30.146  29.767  16.681  1.00  0.00     0.211 HD
ENDBRANCH   6  29
ENDBRANCH   5   6
ENDBRANCH   1   5
BRANCH   2  31
ATOM     31  O   UNL     1      32.396  31.990  21.801  1.00  0.00    -0.443 OA
BRANCH  31  32
ATOM     32  C   UNL     1      33.219  32.942  22.430  1.00  0.00     0.294 C 
BRANCH  32  33
ATOM     33  C   UNL     1      34.626  32.819  22.008  1.00  0.00     0.120 A 
ATOM     34  C   UNL     1      35.595  33.775  21.810  1.00  0.00     0.138 A 
ATOM     35  N   UNL     1      35.189  31.620  21.731  1.00  0.00    -0.132 NA
ATOM     36  N   UNL     1      36.716  33.126  21.420  1.00  0.00    -0.248 N 
ATOM     37  N   UNL     1      36.430  31.839  21.386  1.00  0.00    -0.067 NA
BRANCH  36  38
ATOM     38  C   UNL     1      37.977  33.767  21.108  1.00  0.00     0.181 C 
BRANCH  38  39
ATOM     39  C   UNL     1      38.048  33.912  19.616  1.00  0.00    -0.026 A 
ATOM     40  C   UNL     1      38.661  32.917  18.869  1.00  0.00     0.007 A 
ATOM     41  C   UNL     1      37.504  35.025  19.012  1.00  0.00     0.007 A 
ATOM     42  C   UNL     1      38.714  33.069  17.508  1.00  0.00     0.016 A 
ATOM     43  C   UNL     1      37.558  35.182  17.627  1.00  0.00     0.016 A 
ATOM     44  C   UNL     1      38.170  34.183  16.911  1.00  0.00     0.017 A 
ATOM     45  Br  UNL     1      38.258  34.369  15.010  1.00  0.00    -0.051 Br
ENDBRANCH  38  39
ENDBRANCH  36  38
ENDBRANCH  32  33
ENDBRANCH  31  32
ENDBRANCH   2  31
TORSDOF 16
BEGIN_RES LYS A 131
REMARK  4 active torsions:
REMARK  status: ('A' for Active; 'I' for Inactive)
REMARK    1  A    between atoms: CA   and  CB  
REMARK    2  A    between atoms: CB   and  CG  
REMARK    3  A    between atoms: CG   and  CD  
REMARK    4  A    between atoms: CD   and  CE  
ROOT
ATOM      1  CA  LYS A 131      29.867  25.555  16.977  1.00 20.52     0.186 C 
ENDROOT
BRANCH   1   2
ATOM      2  CB  LYS A 131      28.345  25.722  17.026  1.00 20.94     0.034 C 
BRANCH   2   3
ATOM      3  CG  LYS A 131      27.601  24.403  16.880  1.00 22.96     0.005 C 
BRANCH   3   4
ATOM      4  CD  LYS A 131      26.146  24.531  17.239  1.00 24.33     0.041 C 
BRANCH   4   5
ATOM      5  CE  LYS A 131      25.618  23.181  17.711  1.00 26.91     0.338 C 
ATOM      6  NZ  LYS A 131      24.280  22.915  17.131  1.00 27.40     0.618 N 
ENDBRANCH   4   5
ENDBRANCH   3   4
ENDBRANCH   2   3
ENDBRANCH   1   2
END_RES LYS A 131
BEGIN_RES LYS A 135
REMARK  4 active torsions:
REMARK  status: ('A' for Active; 'I' for Inactive)
REMARK    5  A    between atoms: CA   and  CB  
REMARK    6  A    between atoms: CB   and  CG  
REMARK    7  A    between atoms: CG   and  CD  
REMARK    8  A    between atoms: CD   and  CE  
ROOT
ATOM      7  CA  LYS A 135      33.193  34.663   9.290  1.00 25.02     0.186 C 
ENDROOT
BRANCH   7   8
ATOM      8  CB  LYS A 135      32.060  35.360  10.034  1.00 26.63     0.034 C 
BRANCH   8   9
ATOM      9  CG  LYS A 135      30.793  35.479   9.227  1.00 29.45     0.005 C 
BRANCH   9  10
ATOM     10  CD  LYS A 135      30.128  34.120   9.070  1.00 32.00     0.041 C 
BRANCH  10  11
ATOM     11  CE  LYS A 135      28.668  34.282   8.692  1.00 34.25     0.338 C 
ATOM     12  NZ  LYS A 135      28.512  35.214   7.541  1.00 35.99     0.618 N 
ENDBRANCH  10  11
ENDBRANCH   9  10
ENDBRANCH   8   9
ENDBRANCH   7   8
END_RES LYS A 135
