REMARK VINA RESULT:    -5.511      0.000      0.000
REMARK INTER + INTRA:         -15.863
REMARK INTER:                 -10.979
REMARK INTRA:                  -4.884
REMARK UNBOUND:                -6.003
REMARK SMILES CC(=O)N[C@@H]1[C@@H](O)C[C@](O)(C(=O)O)O[C@H]1C(O)[C@H](O)CNC(=O)OCc1cn(Cc2ccc3c(c2)OCO3)nn1
REMARK SMILES IDX 21 1 22 2 23 3 20 5 18 6 16 7 15 8 9 9 8 10 14 11 6 12 5 13
REMARK SMILES IDX 10 14 11 16 12 17 13 18 7 20 4 22 2 23 1 25 3 26 17 27 19 29
REMARK SMILES IDX 24 31 25 32 26 33 27 34 40 35 28 36 39 37 29 38 30 39 31 40
REMARK SMILES IDX 35 41 32 42 34 43 33 44 36 45 38 46 37 47
REMARK H PARENT 21 4 10 15 13 19 7 21 4 24 17 28 19 30
REMARK Flexibility Score: inf
ROOT
ATOM      1  N   UNL     1      26.324  36.409  11.204  1.00  0.00    -0.319 N 
ATOM      2  C   UNL     1      26.487  35.182  11.906  1.00  0.00     0.407 C 
ATOM      3  O   UNL     1      25.484  34.412  12.065  1.00  0.00    -0.225 OA
ATOM      4  H   UNL     1      27.153  37.011  11.091  1.00  0.00     0.167 HD
ENDROOT
BRANCH   1   5
ATOM      5  C   UNL     1      25.009  36.715  10.702  1.00  0.00     0.154 C 
BRANCH   5   6
ATOM      6  C   UNL     1      24.803  36.311   9.276  1.00  0.00     0.165 C 
BRANCH   6   7
ATOM      7  C   UNL     1      25.474  37.250   8.300  1.00  0.00     0.176 C 
BRANCH   7   8
ATOM      8  C   UNL     1      26.492  36.500   7.446  1.00  0.00     0.178 C 
ATOM      9  C   UNL     1      28.384  35.570   8.416  1.00  0.00     0.269 C 
ATOM     10  C   UNL     1      29.267  35.875   7.228  1.00  0.00     0.112 C 
ATOM     11  O   UNL     1      27.058  35.453   8.111  1.00  0.00    -0.332 OA
ATOM     12  C   UNL     1      28.512  36.587   6.124  1.00  0.00     0.145 C 
ATOM     13  C   UNL     1      27.466  37.446   6.795  1.00  0.00     0.142 C 
BRANCH   9  14
ATOM     14  O   UNL     1      28.591  36.514   9.440  1.00  0.00    -0.357 OA
ATOM     15  H   UNL     1      28.108  37.346   9.284  1.00  0.00     0.214 HD
ENDBRANCH   9  14
BRANCH   9  16
ATOM     16  C   UNL     1      28.844  34.265   8.965  1.00  0.00     0.364 C 
ATOM     17  O   UNL     1      30.058  33.915   8.853  1.00  0.00    -0.246 OA
BRANCH  16  18
ATOM     18  O   UNL     1      28.008  33.371   9.613  1.00  0.00    -0.477 OA
ATOM     19  H   UNL     1      27.915  32.432   9.213  1.00  0.00     0.296 HD
ENDBRANCH  16  18
ENDBRANCH   9  16
BRANCH  12  20
ATOM     20  O   UNL     1      29.367  37.322   5.310  1.00  0.00    -0.391 OA
ATOM     21  H   UNL     1      29.562  36.773   4.512  1.00  0.00     0.211 HD
ENDBRANCH  12  20
BRANCH  13  22
ATOM     22  N   UNL     1      26.790  38.328   5.912  1.00  0.00    -0.348 N 
ATOM     23  C   UNL     1      26.836  39.738   6.059  1.00  0.00     0.217 C 
ATOM     24  H   UNL     1      26.235  37.889   5.119  1.00  0.00     0.163 HD
ATOM     25  C   UNL     1      26.111  40.641   5.108  1.00  0.00     0.114 C 
ATOM     26  O   UNL     1      27.513  40.182   7.021  1.00  0.00    -0.275 OA
ENDBRANCH  13  22
ENDBRANCH   7   8
BRANCH   7  27
ATOM     27  O   UNL     1      26.183  38.194   9.041  1.00  0.00    -0.388 OA
ATOM     28  H   UNL     1      26.534  38.897   8.440  1.00  0.00     0.211 HD
ENDBRANCH   7  27
ENDBRANCH   6   7
BRANCH   6  29
ATOM     29  O   UNL     1      23.429  36.284   9.038  1.00  0.00    -0.388 OA
ATOM     30  H   UNL     1      23.170  35.552   8.428  1.00  0.00     0.211 HD
ENDBRANCH   6  29
ENDBRANCH   5   6
ENDBRANCH   1   5
BRANCH   2  31
ATOM     31  O   UNL     1      27.706  34.776  12.437  1.00  0.00    -0.443 OA
BRANCH  31  32
ATOM     32  C   UNL     1      28.665  35.773  12.774  1.00  0.00     0.294 C 
BRANCH  32  33
ATOM     33  C   UNL     1      29.612  35.260  13.790  1.00  0.00     0.120 A 
ATOM     34  C   UNL     1      30.001  33.956  13.904  1.00  0.00     0.138 A 
ATOM     35  N   UNL     1      30.244  35.927  14.754  1.00  0.00    -0.132 NA
ATOM     36  N   UNL     1      30.856  33.871  14.933  1.00  0.00    -0.248 N 
ATOM     37  N   UNL     1      30.995  35.074  15.439  1.00  0.00    -0.067 NA
BRANCH  36  38
ATOM     38  C   UNL     1      31.500  32.657  15.386  1.00  0.00     0.181 C 
BRANCH  38  39
ATOM     39  C   UNL     1      30.529  31.955  16.271  1.00  0.00    -0.023 A 
ATOM     40  C   UNL     1      30.582  32.188  17.626  1.00  0.00     0.010 A 
ATOM     41  C   UNL     1      29.589  31.085  15.779  1.00  0.00     0.056 A 
ATOM     42  C   UNL     1      29.686  31.543  18.472  1.00  0.00     0.051 A 
ATOM     43  C   UNL     1      28.701  30.446  16.621  1.00  0.00     0.166 A 
ATOM     44  C   UNL     1      28.742  30.669  17.971  1.00  0.00     0.165 A 
ATOM     45  O   UNL     1      27.689  29.546  16.349  1.00  0.00    -0.454 OA
ATOM     46  O   UNL     1      27.762  29.920  18.587  1.00  0.00    -0.454 OA
ATOM     47  C   UNL     1      26.957  29.386  17.544  1.00  0.00     0.468 C 
ENDBRANCH  38  39
ENDBRANCH  36  38
ENDBRANCH  32  33
ENDBRANCH  31  32
ENDBRANCH   2  31
TORSDOF 16
BEGIN_RES LYS A 131
REMARK  4 active torsions:
REMARK  status: ('A' for Active; 'I' for Inactive)
REMARK    1  A    between atoms: CA   and  CB  
REMARK    2  A    between atoms: CB   and  CG  
REMARK    3  A    between atoms: CG   and  CD  
REMARK    4  A    between atoms: CD   and  CE  
ROOT
ATOM      1  CA  LYS A 131      29.867  25.555  16.977  1.00 20.52     0.186 C 
ENDROOT
BRANCH   1   2
ATOM      2  CB  LYS A 131      28.345  25.722  17.026  1.00 20.94     0.034 C 
BRANCH   2   3
ATOM      3  CG  LYS A 131      27.602  24.398  16.929  1.00 22.96     0.005 C 
BRANCH   3   4
ATOM      4  CD  LYS A 131      26.139  24.546  17.244  1.00 24.33     0.041 C 
BRANCH   4   5
ATOM      5  CE  LYS A 131      25.582  23.205  17.714  1.00 26.91     0.338 C 
ATOM      6  NZ  LYS A 131      25.529  23.155  19.194  1.00 27.40     0.618 N 
ENDBRANCH   4   5
ENDBRANCH   3   4
ENDBRANCH   2   3
ENDBRANCH   1   2
END_RES LYS A 131
BEGIN_RES LYS A 135
REMARK  4 active torsions:
REMARK  status: ('A' for Active; 'I' for Inactive)
REMARK    5  A    between atoms: CA   and  CB  
REMARK    6  A    between atoms: CB   and  CG  
REMARK    7  A    between atoms: CG   and  CD  
REMARK    8  A    between atoms: CD   and  CE  
ROOT
ATOM      7  CA  LYS A 135      33.193  34.663   9.290  1.00 25.02     0.186 C 
ENDROOT
BRANCH   7   8
ATOM      8  CB  LYS A 135      32.060  35.360  10.034  1.00 26.63     0.034 C 
BRANCH   8   9
ATOM      9  CG  LYS A 135      32.483  35.960  11.350  1.00 29.45     0.005 C 
BRANCH   9  10
ATOM     10  CD  LYS A 135      31.778  37.287  11.586  1.00 32.00     0.041 C 
BRANCH  10  11
ATOM     11  CE  LYS A 135      31.861  38.161  10.350  1.00 34.25     0.338 C 
ATOM     12  NZ  LYS A 135      31.521  39.575  10.669  1.00 35.99     0.618 N 
ENDBRANCH  10  11
ENDBRANCH   9  10
ENDBRANCH   8   9
ENDBRANCH   7   8
END_RES LYS A 135
