REMARK VINA RESULT:    -4.735      0.000      0.000
REMARK INTER + INTRA:         -15.709
REMARK INTER:                 -10.739
REMARK INTRA:                  -4.970
REMARK UNBOUND:                -7.237
REMARK SMILES CC(=O)N[C@@H]1[C@@H](O)C[C@](O)(C(=O)O)O[C@H]1C(O)[C@H](O)CNC(=O)OCc1cn(-c2ccccc2C(C)C)nn1
REMARK SMILES IDX 21 1 22 2 23 3 20 5 18 6 16 7 15 8 9 9 8 10 14 11 6 12 5 13
REMARK SMILES IDX 10 14 11 16 12 17 13 18 7 20 4 22 2 23 1 25 3 26 17 27 19 29
REMARK SMILES IDX 24 31 25 32 26 33 27 34 39 35 28 36 38 37 29 38 34 39 30 40
REMARK SMILES IDX 33 41 31 42 32 43 35 44 36 45 37 46
REMARK H PARENT 21 4 10 15 13 19 7 21 4 24 17 28 19 30
REMARK Flexibility Score: inf
ROOT
ATOM      1  N   UNL     1      25.027  35.857  11.025  1.00  0.00    -0.319 N 
ATOM      2  C   UNL     1      26.295  35.889  11.638  1.00  0.00     0.407 C 
ATOM      3  O   UNL     1      27.017  36.905  11.581  1.00  0.00    -0.225 OA
ATOM      4  H   UNL     1      24.455  34.975  11.118  1.00  0.00     0.167 HD
ENDROOT
BRANCH   1   5
ATOM      5  C   UNL     1      24.502  36.962  10.301  1.00  0.00     0.154 C 
BRANCH   5   6
ATOM      6  C   UNL     1      24.223  36.678   8.826  1.00  0.00     0.165 C 
BRANCH   6   7
ATOM      7  C   UNL     1      25.391  37.363   8.112  1.00  0.00     0.176 C 
BRANCH   7   8
ATOM      8  C   UNL     1      26.367  36.395   7.524  1.00  0.00     0.178 C 
ATOM      9  C   UNL     1      28.318  35.530   8.431  1.00  0.00     0.269 C 
ATOM     10  C   UNL     1      28.973  35.481   7.096  1.00  0.00     0.112 C 
ATOM     11  O   UNL     1      26.961  35.649   8.484  1.00  0.00    -0.332 OA
ATOM     12  C   UNL     1      28.354  36.360   6.030  1.00  0.00     0.145 C 
ATOM     13  C   UNL     1      27.356  37.235   6.731  1.00  0.00     0.142 C 
BRANCH   9  14
ATOM     14  O   UNL     1      28.957  36.506   9.238  1.00  0.00    -0.357 OA
ATOM     15  H   UNL     1      29.124  36.207  10.150  1.00  0.00     0.214 HD
ENDBRANCH   9  14
BRANCH   9  16
ATOM     16  C   UNL     1      28.625  34.212   9.097  1.00  0.00     0.364 C 
ATOM     17  O   UNL     1      29.809  33.813   9.099  1.00  0.00    -0.246 OA
BRANCH  16  18
ATOM     18  O   UNL     1      27.655  33.431   9.712  1.00  0.00    -0.477 OA
ATOM     19  H   UNL     1      27.128  33.713  10.536  1.00  0.00     0.296 HD
ENDBRANCH  16  18
ENDBRANCH   9  16
BRANCH  12  20
ATOM     20  O   UNL     1      29.388  37.182   5.485  1.00  0.00    -0.391 OA
ATOM     21  H   UNL     1      29.305  38.111   5.808  1.00  0.00     0.211 HD
ENDBRANCH  12  20
BRANCH  13  22
ATOM     22  N   UNL     1      26.687  38.229   5.988  1.00  0.00    -0.348 N 
ATOM     23  C   UNL     1      27.124  39.567   5.832  1.00  0.00     0.217 C 
ATOM     24  H   UNL     1      25.766  37.977   5.490  1.00  0.00     0.163 HD
ATOM     25  C   UNL     1      26.410  40.587   5.053  1.00  0.00     0.114 C 
ATOM     26  O   UNL     1      28.235  39.864   6.446  1.00  0.00    -0.275 OA
ENDBRANCH  13  22
ENDBRANCH   7   8
BRANCH   7  27
ATOM     27  O   UNL     1      25.957  38.201   9.077  1.00  0.00    -0.388 OA
ATOM     28  H   UNL     1      26.300  39.003   8.601  1.00  0.00     0.211 HD
ENDBRANCH   7  27
ENDBRANCH   6   7
BRANCH   6  29
ATOM     29  O   UNL     1      23.045  37.176   8.375  1.00  0.00    -0.388 OA
ATOM     30  H   UNL     1      22.424  36.512   8.082  1.00  0.00     0.211 HD
ENDBRANCH   6  29
ENDBRANCH   5   6
ENDBRANCH   1   5
BRANCH   2  31
ATOM     31  O   UNL     1      26.781  34.779  12.332  1.00  0.00    -0.443 OA
BRANCH  31  32
ATOM     32  C   UNL     1      26.651  34.780  13.746  1.00  0.00     0.294 C 
BRANCH  32  33
ATOM     33  C   UNL     1      25.582  33.796  14.047  1.00  0.00     0.121 A 
ATOM     34  C   UNL     1      24.905  33.059  13.066  1.00  0.00     0.144 A 
ATOM     35  N   UNL     1      25.151  33.352  15.237  1.00  0.00    -0.131 NA
ATOM     36  N   UNL     1      24.111  32.208  13.743  1.00  0.00    -0.220 N 
ATOM     37  N   UNL     1      24.285  32.407  14.987  1.00  0.00    -0.062 NA
BRANCH  36  38
ATOM     38  C   UNL     1      23.350  31.187  13.127  1.00  0.00     0.070 A 
ATOM     39  C   UNL     1      22.035  31.350  12.917  1.00  0.00    -0.020 A 
ATOM     40  C   UNL     1      23.954  29.942  12.899  1.00  0.00     0.029 A 
ATOM     41  C   UNL     1      21.279  30.266  12.471  1.00  0.00     0.006 A 
ATOM     42  C   UNL     1      23.241  28.885  12.468  1.00  0.00     0.002 A 
ATOM     43  C   UNL     1      21.878  29.020  12.242  1.00  0.00     0.000 A 
BRANCH  39  44
ATOM     44  C   UNL     1      21.412  32.655  13.013  1.00  0.00     0.015 C 
ATOM     45  C   UNL     1      20.742  32.888  14.358  1.00  0.00     0.012 C 
ATOM     46  C   UNL     1      20.114  32.557  12.094  1.00  0.00     0.012 C 
ENDBRANCH  39  44
ENDBRANCH  36  38
ENDBRANCH  32  33
ENDBRANCH  31  32
ENDBRANCH   2  31
TORSDOF 16
BEGIN_RES LYS A 131
REMARK  4 active torsions:
REMARK  status: ('A' for Active; 'I' for Inactive)
REMARK    1  A    between atoms: CA   and  CB  
REMARK    2  A    between atoms: CB   and  CG  
REMARK    3  A    between atoms: CG   and  CD  
REMARK    4  A    between atoms: CD   and  CE  
ROOT
ATOM      1  CA  LYS A 131      29.867  25.555  16.977  1.00 20.52     0.186 C 
ENDROOT
BRANCH   1   2
ATOM      2  CB  LYS A 131      28.345  25.722  17.026  1.00 20.94     0.034 C 
BRANCH   2   3
ATOM      3  CG  LYS A 131      27.601  24.405  16.870  1.00 22.96     0.005 C 
BRANCH   3   4
ATOM      4  CD  LYS A 131      26.156  24.519  17.271  1.00 24.33     0.041 C 
BRANCH   4   5
ATOM      5  CE  LYS A 131      26.065  25.043  18.701  1.00 26.91     0.338 C 
ATOM      6  NZ  LYS A 131      25.454  24.025  19.588  1.00 27.40     0.618 N 
ENDBRANCH   4   5
ENDBRANCH   3   4
ENDBRANCH   2   3
ENDBRANCH   1   2
END_RES LYS A 131
BEGIN_RES LYS A 135
REMARK  4 active torsions:
REMARK  status: ('A' for Active; 'I' for Inactive)
REMARK    5  A    between atoms: CA   and  CB  
REMARK    6  A    between atoms: CB   and  CG  
REMARK    7  A    between atoms: CG   and  CD  
REMARK    8  A    between atoms: CD   and  CE  
ROOT
ATOM      7  CA  LYS A 135      33.193  34.663   9.290  1.00 25.02     0.186 C 
ENDROOT
BRANCH   7   8
ATOM      8  CB  LYS A 135      32.060  35.360  10.034  1.00 26.63     0.034 C 
BRANCH   8   9
ATOM      9  CG  LYS A 135      32.534  36.268  11.140  1.00 29.45     0.005 C 
BRANCH   9  10
ATOM     10  CD  LYS A 135      32.315  35.619  12.498  1.00 32.00     0.041 C 
BRANCH  10  11
ATOM     11  CE  LYS A 135      30.882  35.812  12.955  1.00 34.25     0.338 C 
ATOM     12  NZ  LYS A 135      30.140  34.520  12.954  1.00 35.99     0.618 N 
ENDBRANCH  10  11
ENDBRANCH   9  10
ENDBRANCH   8   9
ENDBRANCH   7   8
END_RES LYS A 135
