REMARK VINA RESULT:    -4.429      6.326     12.013
REMARK INTER + INTRA:         -13.957
REMARK INTER:                 -10.198
REMARK INTRA:                  -3.760
REMARK UNBOUND:                -5.644
REMARK SMILES CC(=O)N[C@@H]1[C@@H](O)C[C@](O)(C(=O)O)O[C@H]1C(O)[C@H](O)CNC(=O)OCc1cn(CCC(=O)O)nn1
REMARK SMILES IDX 21 1 22 2 23 3 20 5 18 6 16 7 15 8 9 9 8 10 14 11 6 12 5 13
REMARK SMILES IDX 10 14 11 16 12 17 13 18 7 20 4 22 2 23 1 25 3 26 17 27 19 29
REMARK SMILES IDX 24 31 25 32 26 33 27 34 35 35 28 36 34 37 29 38 30 39 31 40
REMARK SMILES IDX 32 41 33 42
REMARK H PARENT 21 4 10 15 13 19 7 21 4 24 17 28 19 30 33 43
REMARK Flexibility Score: inf
ROOT
ATOM      1  N   UNL     1      25.416  35.496  11.263  1.00  0.00    -0.319 N 
ATOM      2  C   UNL     1      26.708  35.821  11.748  1.00  0.00     0.407 C 
ATOM      3  O   UNL     1      27.213  36.968  11.557  1.00  0.00    -0.225 OA
ATOM      4  H   UNL     1      25.037  34.546  11.441  1.00  0.00     0.167 HD
ENDROOT
BRANCH   1   5
ATOM      5  C   UNL     1      24.619  36.448  10.527  1.00  0.00     0.154 C 
BRANCH   5   6
ATOM      6  C   UNL     1      24.458  36.108   9.070  1.00  0.00     0.165 C 
BRANCH   6   7
ATOM      7  C   UNL     1      25.245  37.080   8.191  1.00  0.00     0.176 C 
BRANCH   7   8
ATOM      8  C   UNL     1      26.453  36.376   7.598  1.00  0.00     0.178 C 
ATOM      9  C   UNL     1      28.442  35.497   8.450  1.00  0.00     0.269 C 
ATOM     10  C   UNL     1      29.048  35.543   7.075  1.00  0.00     0.112 C 
ATOM     11  O   UNL     1      27.065  35.524   8.459  1.00  0.00    -0.332 OA
ATOM     12  C   UNL     1      28.355  36.437   6.110  1.00  0.00     0.145 C 
ATOM     13  C   UNL     1      27.399  37.330   6.917  1.00  0.00     0.142 C 
BRANCH   9  14
ATOM     14  O   UNL     1      29.006  36.514   9.212  1.00  0.00    -0.357 OA
ATOM     15  H   UNL     1      29.370  36.071  10.028  1.00  0.00     0.214 HD
ENDBRANCH   9  14
BRANCH   9  16
ATOM     16  C   UNL     1      28.851  34.206   9.049  1.00  0.00     0.364 C 
ATOM     17  O   UNL     1      30.023  33.773   9.029  1.00  0.00    -0.246 OA
BRANCH  16  18
ATOM     18  O   UNL     1      27.897  33.419   9.669  1.00  0.00    -0.477 OA
ATOM     19  H   UNL     1      28.063  32.464   9.961  1.00  0.00     0.296 HD
ENDBRANCH  16  18
ENDBRANCH   9  16
BRANCH  12  20
ATOM     20  O   UNL     1      29.228  37.216   5.356  1.00  0.00    -0.391 OA
ATOM     21  H   UNL     1      28.861  37.428   4.454  1.00  0.00     0.211 HD
ENDBRANCH  12  20
BRANCH  13  22
ATOM     22  N   UNL     1      26.700  38.244   6.037  1.00  0.00    -0.348 N 
ATOM     23  C   UNL     1      26.942  39.645   6.112  1.00  0.00     0.217 C 
ATOM     24  H   UNL     1      26.003  37.916   5.328  1.00  0.00     0.163 HD
ATOM     25  C   UNL     1      26.241  40.630   5.220  1.00  0.00     0.114 C 
ATOM     26  O   UNL     1      27.778  40.103   6.955  1.00  0.00    -0.275 OA
ENDBRANCH  13  22
ENDBRANCH   7   8
BRANCH   7  27
ATOM     27  O   UNL     1      24.410  37.497   7.159  1.00  0.00    -0.388 OA
ATOM     28  H   UNL     1      23.516  37.061   7.193  1.00  0.00     0.211 HD
ENDBRANCH   7  27
ENDBRANCH   6   7
BRANCH   6  29
ATOM     29  O   UNL     1      23.094  36.185   8.779  1.00  0.00    -0.388 OA
ATOM     30  H   UNL     1      22.609  35.553   9.365  1.00  0.00     0.211 HD
ENDBRANCH   6  29
ENDBRANCH   5   6
ENDBRANCH   1   5
BRANCH   2  31
ATOM     31  O   UNL     1      27.423  34.871  12.441  1.00  0.00    -0.443 OA
BRANCH  31  32
ATOM     32  C   UNL     1      27.147  34.512  13.784  1.00  0.00     0.294 C 
BRANCH  32  33
ATOM     33  C   UNL     1      28.305  34.883  14.666  1.00  0.00     0.120 A 
ATOM     34  C   UNL     1      29.448  34.159  14.877  1.00  0.00     0.138 A 
ATOM     35  N   UNL     1      28.389  36.008  15.405  1.00  0.00    -0.132 NA
ATOM     36  N   UNL     1      30.211  34.864  15.748  1.00  0.00    -0.252 N 
ATOM     37  N   UNL     1      29.546  35.971  16.046  1.00  0.00    -0.067 NA
BRANCH  36  38
ATOM     38  C   UNL     1      31.509  34.433  16.222  1.00  0.00     0.158 C 
BRANCH  38  39
ATOM     39  C   UNL     1      32.214  33.726  15.067  1.00  0.00     0.146 C 
BRANCH  39  40
ATOM     40  C   UNL     1      33.313  34.634  14.620  1.00  0.00     0.305 C 
ATOM     41  O   UNL     1      33.421  35.806  15.003  1.00  0.00    -0.252 OA
BRANCH  40  42
ATOM     42  O   UNL     1      34.242  34.095  13.729  1.00  0.00    -0.481 OA
ATOM     43  H   UNL     1      35.165  33.826  14.066  1.00  0.00     0.296 HD
ENDBRANCH  40  42
ENDBRANCH  39  40
ENDBRANCH  38  39
ENDBRANCH  36  38
ENDBRANCH  32  33
ENDBRANCH  31  32
ENDBRANCH   2  31
TORSDOF 18
BEGIN_RES LYS A 131
REMARK  4 active torsions:
REMARK  status: ('A' for Active; 'I' for Inactive)
REMARK    1  A    between atoms: CA   and  CB  
REMARK    2  A    between atoms: CB   and  CG  
REMARK    3  A    between atoms: CG   and  CD  
REMARK    4  A    between atoms: CD   and  CE  
ROOT
ATOM      1  CA  LYS A 131      29.867  25.555  16.977  1.00 20.52     0.186 C 
ENDROOT
BRANCH   1   2
ATOM      2  CB  LYS A 131      28.345  25.722  17.026  1.00 20.94     0.034 C 
BRANCH   2   3
ATOM      3  CG  LYS A 131      27.601  24.400  16.908  1.00 22.96     0.005 C 
BRANCH   3   4
ATOM      4  CD  LYS A 131      26.150  24.532  17.276  1.00 24.33     0.041 C 
BRANCH   4   5
ATOM      5  CE  LYS A 131      26.007  24.524  18.795  1.00 26.91     0.338 C 
ATOM      6  NZ  LYS A 131      25.521  23.205  19.263  1.00 27.40     0.618 N 
ENDBRANCH   4   5
ENDBRANCH   3   4
ENDBRANCH   2   3
ENDBRANCH   1   2
END_RES LYS A 131
BEGIN_RES LYS A 135
REMARK  4 active torsions:
REMARK  status: ('A' for Active; 'I' for Inactive)
REMARK    5  A    between atoms: CA   and  CB  
REMARK    6  A    between atoms: CB   and  CG  
REMARK    7  A    between atoms: CG   and  CD  
REMARK    8  A    between atoms: CD   and  CE  
ROOT
ATOM      7  CA  LYS A 135      33.193  34.663   9.290  1.00 25.02     0.186 C 
ENDROOT
BRANCH   7   8
ATOM      8  CB  LYS A 135      32.060  35.360  10.034  1.00 26.63     0.034 C 
BRANCH   8   9
ATOM      9  CG  LYS A 135      32.409  35.730  11.453  1.00 29.45     0.005 C 
BRANCH   9  10
ATOM     10  CD  LYS A 135      31.909  37.128  11.781  1.00 32.00     0.041 C 
BRANCH  10  11
ATOM     11  CE  LYS A 135      30.655  37.060  12.631  1.00 34.25     0.338 C 
ATOM     12  NZ  LYS A 135      30.027  38.403  12.770  1.00 35.99     0.618 N 
ENDBRANCH  10  11
ENDBRANCH   9  10
ENDBRANCH   8   9
ENDBRANCH   7   8
END_RES LYS A 135
