REMARK VINA RESULT:    -5.769      2.575      5.418
REMARK INTER + INTRA:         -14.771
REMARK INTER:                  -9.049
REMARK INTRA:                  -5.722
REMARK UNBOUND:                -3.774
REMARK SMILES CC(=O)N[C@@H]1[C@@H](O)C[C@](O)(C(=O)O)O[C@H]1C(O)[C@H](O)CNC(=O)OCc1cn(COCc2ccccc2)nn1
REMARK SMILES IDX 21 1 22 2 23 3 20 5 18 6 16 7 15 8 9 9 8 10 14 11 6 12 5 13
REMARK SMILES IDX 10 14 11 16 12 17 13 18 7 20 4 22 2 23 1 25 3 26 17 27 19 29
REMARK SMILES IDX 24 31 25 32 26 33 27 34 39 35 28 36 38 37 29 38 30 39 31 40
REMARK SMILES IDX 32 41 33 42 37 43 34 44 36 45 35 46
REMARK H PARENT 21 4 10 15 13 19 7 21 4 24 17 28 19 30
REMARK Flexibility Score: inf
ROOT
ATOM      1  N   UNL     1      21.822  35.026  10.800  1.00  0.00    -0.319 N 
ATOM      2  C   UNL     1      21.121  34.181  11.710  1.00  0.00     0.407 C 
ATOM      3  O   UNL     1      19.870  33.998  11.607  1.00  0.00    -0.225 OA
ATOM      4  H   UNL     1      22.840  35.151  10.915  1.00  0.00     0.167 HD
ENDROOT
BRANCH   1   5
ATOM      5  C   UNL     1      21.044  35.662   9.756  1.00  0.00     0.154 C 
BRANCH   5   6
ATOM      6  C   UNL     1      21.674  35.498   8.399  1.00  0.00     0.165 C 
BRANCH   6   7
ATOM      7  C   UNL     1      22.089  36.847   7.854  1.00  0.00     0.176 C 
BRANCH   7   8
ATOM      8  C   UNL     1      23.461  37.248   8.284  1.00  0.00     0.178 C 
ATOM      9  C   UNL     1      25.503  36.311   8.901  1.00  0.00     0.269 C 
ATOM     10  C   UNL     1      25.761  37.646   9.584  1.00  0.00     0.112 C 
ATOM     11  O   UNL     1      24.157  36.094   8.628  1.00  0.00    -0.332 OA
ATOM     12  C   UNL     1      24.536  37.953  10.417  1.00  0.00     0.145 C 
ATOM     13  C   UNL     1      23.424  38.244   9.423  1.00  0.00     0.142 C 
BRANCH   9  14
ATOM     14  O   UNL     1      25.869  35.339   9.831  1.00  0.00    -0.357 OA
ATOM     15  H   UNL     1      25.603  34.430   9.543  1.00  0.00     0.214 HD
ENDBRANCH   9  14
BRANCH   9  16
ATOM     16  C   UNL     1      26.350  36.167   7.710  1.00  0.00     0.364 C 
ATOM     17  O   UNL     1      27.132  35.188   7.623  1.00  0.00    -0.246 OA
BRANCH  16  18
ATOM     18  O   UNL     1      26.343  37.065   6.650  1.00  0.00    -0.477 OA
ATOM     19  H   UNL     1      26.236  38.052   6.866  1.00  0.00     0.296 HD
ENDBRANCH  16  18
ENDBRANCH   9  16
BRANCH  12  20
ATOM     20  O   UNL     1      24.191  36.881  11.235  1.00  0.00    -0.391 OA
ATOM     21  H   UNL     1      24.203  36.042  10.679  1.00  0.00     0.211 HD
ENDBRANCH  12  20
BRANCH  13  22
ATOM     22  N   UNL     1      23.664  39.571   8.899  1.00  0.00    -0.348 N 
ATOM     23  C   UNL     1      22.676  40.582   9.038  1.00  0.00     0.217 C 
ATOM     24  H   UNL     1      24.550  39.847   8.407  1.00  0.00     0.163 HD
ATOM     25  C   UNL     1      22.872  41.964   8.519  1.00  0.00     0.114 C 
ATOM     26  O   UNL     1      21.586  40.338   9.615  1.00  0.00    -0.275 OA
ENDBRANCH  13  22
ENDBRANCH   7   8
BRANCH   7  27
ATOM     27  O   UNL     1      21.107  37.773   8.110  1.00  0.00    -0.388 OA
ATOM     28  H   UNL     1      20.440  37.343   8.717  1.00  0.00     0.211 HD
ENDBRANCH   7  27
ENDBRANCH   6   7
BRANCH   6  29
ATOM     29  O   UNL     1      20.771  34.862   7.557  1.00  0.00    -0.388 OA
ATOM     30  H   UNL     1      20.943  35.128   6.615  1.00  0.00     0.211 HD
ENDBRANCH   6  29
ENDBRANCH   5   6
ENDBRANCH   1   5
BRANCH   2  31
ATOM     31  O   UNL     1      21.761  33.520  12.749  1.00  0.00    -0.443 OA
BRANCH  31  32
ATOM     32  C   UNL     1      22.423  34.177  13.811  1.00  0.00     0.294 C 
BRANCH  32  33
ATOM     33  C   UNL     1      23.860  34.401  13.540  1.00  0.00     0.120 A 
ATOM     34  C   UNL     1      24.849  34.956  14.324  1.00  0.00     0.141 A 
ATOM     35  N   UNL     1      24.474  34.070  12.391  1.00  0.00    -0.132 NA
ATOM     36  N   UNL     1      26.020  34.949  13.640  1.00  0.00    -0.226 N 
ATOM     37  N   UNL     1      25.744  34.401  12.472  1.00  0.00    -0.065 NA
BRANCH  36  38
ATOM     38  C   UNL     1      27.326  35.446  14.100  1.00  0.00     0.307 C 
BRANCH  38  39
ATOM     39  O   UNL     1      28.220  34.382  14.179  1.00  0.00    -0.355 OA
BRANCH  39  40
ATOM     40  C   UNL     1      29.187  34.429  13.203  1.00  0.00     0.198 C 
BRANCH  40  41
ATOM     41  C   UNL     1      30.570  34.518  13.713  1.00  0.00    -0.022 A 
ATOM     42  C   UNL     1      30.942  33.777  14.815  1.00  0.00     0.006 A 
ATOM     43  C   UNL     1      31.502  35.323  13.107  1.00  0.00     0.006 A 
ATOM     44  C   UNL     1      32.247  33.840  15.311  1.00  0.00     0.000 A 
ATOM     45  C   UNL     1      32.794  35.382  13.603  1.00  0.00     0.000 A 
ATOM     46  C   UNL     1      33.171  34.656  14.689  1.00  0.00     0.000 A 
ENDBRANCH  40  41
ENDBRANCH  39  40
ENDBRANCH  38  39
ENDBRANCH  36  38
ENDBRANCH  32  33
ENDBRANCH  31  32
ENDBRANCH   2  31
TORSDOF 18
BEGIN_RES LYS A 131
REMARK  4 active torsions:
REMARK  status: ('A' for Active; 'I' for Inactive)
REMARK    1  A    between atoms: CA   and  CB  
REMARK    2  A    between atoms: CB   and  CG  
REMARK    3  A    between atoms: CG   and  CD  
REMARK    4  A    between atoms: CD   and  CE  
ROOT
ATOM      1  CA  LYS A 131      29.867  25.555  16.977  1.00 20.52     0.186 C 
ENDROOT
BRANCH   1   2
ATOM      2  CB  LYS A 131      28.345  25.722  17.026  1.00 20.94     0.034 C 
BRANCH   2   3
ATOM      3  CG  LYS A 131      27.599  24.478  16.569  1.00 22.96     0.005 C 
BRANCH   3   4
ATOM      4  CD  LYS A 131      27.007  23.717  17.723  1.00 24.33     0.041 C 
BRANCH   4   5
ATOM      5  CE  LYS A 131      26.206  24.670  18.604  1.00 26.91     0.338 C 
ATOM      6  NZ  LYS A 131      25.482  23.920  19.656  1.00 27.40     0.618 N 
ENDBRANCH   4   5
ENDBRANCH   3   4
ENDBRANCH   2   3
ENDBRANCH   1   2
END_RES LYS A 131
BEGIN_RES LYS A 135
REMARK  4 active torsions:
REMARK  status: ('A' for Active; 'I' for Inactive)
REMARK    5  A    between atoms: CA   and  CB  
REMARK    6  A    between atoms: CB   and  CG  
REMARK    7  A    between atoms: CG   and  CD  
REMARK    8  A    between atoms: CD   and  CE  
ROOT
ATOM      7  CA  LYS A 135      33.193  34.663   9.290  1.00 25.02     0.186 C 
ENDROOT
BRANCH   7   8
ATOM      8  CB  LYS A 135      32.060  35.360  10.034  1.00 26.63     0.034 C 
BRANCH   8   9
ATOM      9  CG  LYS A 135      30.697  35.080   9.455  1.00 29.45     0.005 C 
BRANCH   9  10
ATOM     10  CD  LYS A 135      29.682  36.096   9.956  1.00 32.00     0.041 C 
BRANCH  10  11
ATOM     11  CE  LYS A 135      29.988  37.473   9.400  1.00 34.25     0.338 C 
ATOM     12  NZ  LYS A 135      29.673  37.546   7.946  1.00 35.99     0.618 N 
ENDBRANCH  10  11
ENDBRANCH   9  10
ENDBRANCH   8   9
ENDBRANCH   7   8
END_RES LYS A 135
