REMARK VINA RESULT:    -4.261      6.448     11.838
REMARK INTER + INTRA:         -16.058
REMARK INTER:                  -9.478
REMARK INTRA:                  -6.580
REMARK UNBOUND:                -7.438
REMARK SMILES CC(=O)N[C@@H]1[C@@H](O)C[C@](O)(C(=O)O)O[C@H]1C(O)[C@H](O)CNC(=O)OCc1cn([C@@H](CCC(=O)O)C(=O)O)nn1
REMARK SMILES IDX 24 1 22 2 21 3 23 5 20 6 18 7 16 8 15 9 9 10 8 11 14 12 6 13
REMARK SMILES IDX 5 14 10 15 11 17 12 18 13 19 7 21 4 23 2 24 1 26 3 27 17 28
REMARK SMILES IDX 19 30 25 32 26 33 27 34 39 35 28 36 38 37 29 38 30 39 31 40
REMARK SMILES IDX 32 41 33 42 34 43 35 45 36 46 37 47
REMARK H PARENT 21 4 10 16 13 20 7 22 4 25 17 29 19 31 34 44 37 48
REMARK Flexibility Score: inf
ROOT
ATOM      1  O   UNL     1      28.168  30.974  16.847  1.00  0.00    -0.443 OA
ENDROOT
BRANCH   1   2
ATOM      2  C   UNL     1      27.556  29.772  17.225  1.00  0.00     0.407 C 
ATOM      3  N   UNL     1      28.027  28.983  18.284  1.00  0.00    -0.319 N 
ATOM      4  H   UNL     1      28.901  29.359  18.783  1.00  0.00     0.167 HD
ATOM      5  O   UNL     1      26.560  29.426  16.570  1.00  0.00    -0.225 OA
BRANCH   3   6
ATOM      6  C   UNL     1      27.473  27.748  18.760  1.00  0.00     0.154 C 
BRANCH   6   7
ATOM      7  C   UNL     1      27.760  27.533  20.193  1.00  0.00     0.165 C 
BRANCH   7   8
ATOM      8  C   UNL     1      29.232  27.667  20.538  1.00  0.00     0.176 C 
BRANCH   8   9
ATOM      9  C   UNL     1      29.454  28.872  21.458  1.00  0.00     0.178 C 
ATOM     10  C   UNL     1      30.674  30.461  20.249  1.00  0.00     0.269 C 
ATOM     11  C   UNL     1      31.859  29.591  20.560  1.00  0.00     0.112 C 
ATOM     12  O   UNL     1      29.497  30.055  20.798  1.00  0.00    -0.332 OA
ATOM     13  C   UNL     1      31.902  29.035  21.938  1.00  0.00     0.145 C 
ATOM     14  C   UNL     1      30.553  28.611  22.443  1.00  0.00     0.142 C 
BRANCH  10  15
ATOM     15  O   UNL     1      30.530  30.433  18.861  1.00  0.00    -0.357 OA
ATOM     16  H   UNL     1      30.456  29.518  18.519  1.00  0.00     0.214 HD
ENDBRANCH  10  15
BRANCH  10  17
ATOM     17  C   UNL     1      30.966  31.864  20.637  1.00  0.00     0.364 C 
ATOM     18  O   UNL     1      30.845  32.223  21.832  1.00  0.00    -0.246 OA
BRANCH  17  19
ATOM     19  O   UNL     1      31.376  32.817  19.709  1.00  0.00    -0.477 OA
ATOM     20  H   UNL     1      31.563  32.473  18.767  1.00  0.00     0.296 HD
ENDBRANCH  17  19
ENDBRANCH  10  17
BRANCH  13  21
ATOM     21  O   UNL     1      32.748  27.927  21.927  1.00  0.00    -0.391 OA
ATOM     22  H   UNL     1      33.627  28.151  21.521  1.00  0.00     0.211 HD
ENDBRANCH  13  21
BRANCH  14  23
ATOM     23  N   UNL     1      30.201  29.237  23.684  1.00  0.00    -0.348 N 
ATOM     24  C   UNL     1      29.558  28.479  24.695  1.00  0.00     0.217 C 
ATOM     25  H   UNL     1      30.418  30.264  23.846  1.00  0.00     0.163 HD
ATOM     26  C   UNL     1      29.193  29.122  25.974  1.00  0.00     0.114 C 
ATOM     27  O   UNL     1      29.279  27.258  24.548  1.00  0.00    -0.275 OA
ENDBRANCH  14  23
ENDBRANCH   8   9
BRANCH   8  28
ATOM     28  O   UNL     1      29.654  26.519  21.181  1.00  0.00    -0.388 OA
ATOM     29  H   UNL     1      28.856  26.005  21.464  1.00  0.00     0.211 HD
ENDBRANCH   8  28
ENDBRANCH   7   8
BRANCH   7  30
ATOM     30  O   UNL     1      27.190  26.407  20.692  1.00  0.00    -0.388 OA
ATOM     31  H   UNL     1      26.210  26.358  20.621  1.00  0.00     0.211 HD
ENDBRANCH   7  30
ENDBRANCH   6   7
ENDBRANCH   3   6
ENDBRANCH   1   2
BRANCH   1  32
ATOM     32  C   UNL     1      28.962  31.017  15.665  1.00  0.00     0.294 C 
BRANCH  32  33
ATOM     33  C   UNL     1      30.014  32.022  15.746  1.00  0.00     0.120 A 
ATOM     34  C   UNL     1      30.522  32.808  14.748  1.00  0.00     0.139 A 
ATOM     35  N   UNL     1      30.693  32.372  16.849  1.00  0.00    -0.132 NA
ATOM     36  N   UNL     1      31.480  33.607  15.239  1.00  0.00    -0.238 N 
ATOM     37  N   UNL     1      31.559  33.316  16.523  1.00  0.00    -0.066 NA
BRANCH  36  38
ATOM     38  C   UNL     1      32.315  34.607  14.597  1.00  0.00     0.219 C 
BRANCH  38  39
ATOM     39  C   UNL     1      31.657  35.122  13.370  1.00  0.00     0.051 C 
BRANCH  39  40
ATOM     40  C   UNL     1      32.421  36.122  12.586  1.00  0.00     0.125 C 
BRANCH  40  41
ATOM     41  C   UNL     1      31.781  37.435  12.518  1.00  0.00     0.303 C 
ATOM     42  O   UNL     1      31.183  37.939  13.531  1.00  0.00    -0.252 OA
BRANCH  41  43
ATOM     43  O   UNL     1      31.812  38.164  11.327  1.00  0.00    -0.481 OA
ATOM     44  H   UNL     1      31.845  39.171  11.401  1.00  0.00     0.296 HD
ENDBRANCH  41  43
ENDBRANCH  40  41
ENDBRANCH  39  40
ENDBRANCH  38  39
BRANCH  38  45
ATOM     45  C   UNL     1      32.876  35.580  15.519  1.00  0.00     0.328 C 
ATOM     46  O   UNL     1      34.063  35.696  15.818  1.00  0.00    -0.250 OA
BRANCH  45  47
ATOM     47  O   UNL     1      31.971  36.468  16.131  1.00  0.00    -0.480 OA
ATOM     48  H   UNL     1      31.491  36.169  16.962  1.00  0.00     0.296 HD
ENDBRANCH  45  47
ENDBRANCH  38  45
ENDBRANCH  36  38
ENDBRANCH  32  33
ENDBRANCH   1  32
TORSDOF 21
BEGIN_RES LYS A 131
REMARK  4 active torsions:
REMARK  status: ('A' for Active; 'I' for Inactive)
REMARK    1  A    between atoms: CA   and  CB  
REMARK    2  A    between atoms: CB   and  CG  
REMARK    3  A    between atoms: CG   and  CD  
REMARK    4  A    between atoms: CD   and  CE  
ROOT
ATOM      1  CA  LYS A 131      29.867  25.555  16.977  1.00 20.52     0.186 C 
ENDROOT
BRANCH   1   2
ATOM      2  CB  LYS A 131      28.345  25.722  17.026  1.00 20.94     0.034 C 
BRANCH   2   3
ATOM      3  CG  LYS A 131      27.600  24.412  16.818  1.00 22.96     0.005 C 
BRANCH   3   4
ATOM      4  CD  LYS A 131      26.667  24.104  17.956  1.00 24.33     0.041 C 
BRANCH   4   5
ATOM      5  CE  LYS A 131      25.558  23.178  17.469  1.00 26.91     0.338 C 
ATOM      6  NZ  LYS A 131      24.273  23.910  17.376  1.00 27.40     0.618 N 
ENDBRANCH   4   5
ENDBRANCH   3   4
ENDBRANCH   2   3
ENDBRANCH   1   2
END_RES LYS A 131
BEGIN_RES LYS A 135
REMARK  4 active torsions:
REMARK  status: ('A' for Active; 'I' for Inactive)
REMARK    5  A    between atoms: CA   and  CB  
REMARK    6  A    between atoms: CB   and  CG  
REMARK    7  A    between atoms: CG   and  CD  
REMARK    8  A    between atoms: CD   and  CE  
ROOT
ATOM      7  CA  LYS A 135      33.193  34.663   9.290  1.00 25.02     0.186 C 
ENDROOT
BRANCH   7   8
ATOM      8  CB  LYS A 135      32.060  35.360  10.034  1.00 26.63     0.034 C 
BRANCH   8   9
ATOM      9  CG  LYS A 135      30.784  35.453   9.238  1.00 29.45     0.005 C 
BRANCH   9  10
ATOM     10  CD  LYS A 135      30.233  34.067   8.943  1.00 32.00     0.041 C 
BRANCH  10  11
ATOM     11  CE  LYS A 135      28.758  33.995   9.290  1.00 34.25     0.338 C 
ATOM     12  NZ  LYS A 135      28.404  34.993  10.337  1.00 35.99     0.618 N 
ENDBRANCH  10  11
ENDBRANCH   9  10
ENDBRANCH   8   9
ENDBRANCH   7   8
END_RES LYS A 135
