REMARK VINA RESULT:    -4.380      3.833      6.821
REMARK INTER + INTRA:         -13.865
REMARK INTER:                  -8.293
REMARK INTRA:                  -5.572
REMARK UNBOUND:                -6.285
REMARK SMILES CC(=O)N[C@@H]1[C@@H](O)C[C@](O)(C(=O)O)O[C@H]1C(O)[C@H](O)CNC(=O)OCc1cn(-c2ccccc2I)nn1
REMARK SMILES IDX 20 1 18 2 16 3 15 4 9 5 8 6 14 7 6 8 5 9 10 10 11 12 12 13
REMARK SMILES IDX 13 14 7 16 4 18 2 19 1 21 3 22 17 23 19 25 21 27 22 28 23 30
REMARK SMILES IDX 24 31 25 32 26 33 27 34 37 35 28 36 36 37 29 38 30 39 34 40
REMARK SMILES IDX 31 41 33 42 35 43 32 44
REMARK H PARENT 10 11 13 15 7 17 4 20 17 24 19 26 21 29
REMARK Flexibility Score: inf
ROOT
ATOM      1  C   UNL     1      28.442  31.409  20.685  1.00  0.00     0.154 C 
ENDROOT
BRANCH   1   2
ATOM      2  C   UNL     1      29.937  31.620  20.740  1.00  0.00     0.165 C 
BRANCH   2   3
ATOM      3  C   UNL     1      30.660  30.338  20.521  1.00  0.00     0.176 C 
BRANCH   3   4
ATOM      4  C   UNL     1      30.364  29.238  21.507  1.00  0.00     0.178 C 
ATOM      5  C   UNL     1      32.331  28.428  22.522  1.00  0.00     0.269 C 
ATOM      6  C   UNL     1      31.987  27.009  22.119  1.00  0.00     0.112 C 
ATOM      7  O   UNL     1      31.304  29.301  22.480  1.00  0.00    -0.332 OA
ATOM      8  C   UNL     1      31.301  27.086  20.780  1.00  0.00     0.145 C 
ATOM      9  C   UNL     1      30.048  27.909  20.945  1.00  0.00     0.142 C 
BRANCH   5  10
ATOM     10  O   UNL     1      33.310  28.849  21.622  1.00  0.00    -0.357 OA
ATOM     11  H   UNL     1      33.412  29.839  21.755  1.00  0.00     0.214 HD
ENDBRANCH   5  10
BRANCH   5  12
ATOM     12  C   UNL     1      32.976  28.349  23.870  1.00  0.00     0.364 C 
ATOM     13  O   UNL     1      32.367  28.592  24.935  1.00  0.00    -0.246 OA
BRANCH  12  14
ATOM     14  O   UNL     1      34.306  27.993  23.937  1.00  0.00    -0.477 OA
ATOM     15  H   UNL     1      34.618  27.042  24.143  1.00  0.00     0.296 HD
ENDBRANCH  12  14
ENDBRANCH   5  12
BRANCH   8  16
ATOM     16  O   UNL     1      32.214  27.662  19.894  1.00  0.00    -0.391 OA
ATOM     17  H   UNL     1      32.937  28.145  20.364  1.00  0.00     0.211 HD
ENDBRANCH   8  16
BRANCH   9  18
ATOM     18  N   UNL     1      29.180  27.163  21.875  1.00  0.00    -0.348 N 
ATOM     19  C   UNL     1      27.779  27.362  21.913  1.00  0.00     0.217 C 
ATOM     20  H   UNL     1      29.595  26.469  22.527  1.00  0.00     0.163 HD
ATOM     21  C   UNL     1      26.976  26.572  22.874  1.00  0.00     0.114 C 
ATOM     22  O   UNL     1      27.213  28.196  21.144  1.00  0.00    -0.275 OA
ENDBRANCH   9  18
ENDBRANCH   3   4
BRANCH   3  23
ATOM     23  O   UNL     1      30.643  29.928  19.194  1.00  0.00    -0.388 OA
ATOM     24  H   UNL     1      29.855  30.296  18.706  1.00  0.00     0.211 HD
ENDBRANCH   3  23
ENDBRANCH   2   3
BRANCH   2  25
ATOM     25  O   UNL     1      30.194  32.142  22.035  1.00  0.00    -0.388 OA
ATOM     26  H   UNL     1      30.968  32.767  21.984  1.00  0.00     0.211 HD
ENDBRANCH   2  25
ENDBRANCH   1   2
BRANCH   1  27
ATOM     27  N   UNL     1      27.976  30.858  19.433  1.00  0.00    -0.319 N 
ATOM     28  C   UNL     1      27.170  31.674  18.577  1.00  0.00     0.407 C 
ATOM     29  H   UNL     1      28.242  29.890  19.186  1.00  0.00     0.167 HD
ATOM     30  O   UNL     1      26.901  32.830  18.945  1.00  0.00    -0.225 OA
BRANCH  28  31
ATOM     31  O   UNL     1      26.737  31.122  17.383  1.00  0.00    -0.443 OA
BRANCH  31  32
ATOM     32  C   UNL     1      27.166  31.696  16.176  1.00  0.00     0.294 C 
BRANCH  32  33
ATOM     33  C   UNL     1      28.636  31.880  16.250  1.00  0.00     0.121 A 
ATOM     34  C   UNL     1      29.291  33.085  15.969  1.00  0.00     0.144 A 
ATOM     35  N   UNL     1      29.598  31.009  16.574  1.00  0.00    -0.131 NA
ATOM     36  N   UNL     1      30.592  32.833  16.150  1.00  0.00    -0.219 N 
ATOM     37  N   UNL     1      30.789  31.581  16.514  1.00  0.00    -0.062 NA
BRANCH  36  38
ATOM     38  C   UNL     1      31.630  33.780  15.974  1.00  0.00     0.080 A 
ATOM     39  C   UNL     1      32.287  33.840  14.746  1.00  0.00     0.029 A 
ATOM     40  C   UNL     1      31.964  34.611  17.008  1.00  0.00     0.039 A 
ATOM     41  C   UNL     1      33.299  34.759  14.566  1.00  0.00     0.002 A 
ATOM     42  C   UNL     1      32.982  35.525  16.808  1.00  0.00     0.017 A 
ATOM     43  I   UNL     1      31.002  34.557  18.881  1.00  0.00    -0.042 I 
ATOM     44  C   UNL     1      33.648  35.603  15.598  1.00  0.00     0.001 A 
ENDBRANCH  36  38
ENDBRANCH  32  33
ENDBRANCH  31  32
ENDBRANCH  28  31
ENDBRANCH   1  27
TORSDOF 15
BEGIN_RES LYS A 131
REMARK  4 active torsions:
REMARK  status: ('A' for Active; 'I' for Inactive)
REMARK    1  A    between atoms: CA   and  CB  
REMARK    2  A    between atoms: CB   and  CG  
REMARK    3  A    between atoms: CG   and  CD  
REMARK    4  A    between atoms: CD   and  CE  
ROOT
ATOM      1  CA  LYS A 131      29.867  25.555  16.977  1.00 20.52     0.186 C 
ENDROOT
BRANCH   1   2
ATOM      2  CB  LYS A 131      28.345  25.722  17.026  1.00 20.94     0.034 C 
BRANCH   2   3
ATOM      3  CG  LYS A 131      27.601  24.405  16.867  1.00 22.96     0.005 C 
BRANCH   3   4
ATOM      4  CD  LYS A 131      26.489  24.258  17.868  1.00 24.33     0.041 C 
BRANCH   4   5
ATOM      5  CE  LYS A 131      25.152  24.535  17.189  1.00 26.91     0.338 C 
ATOM      6  NZ  LYS A 131      24.307  23.317  17.191  1.00 27.40     0.618 N 
ENDBRANCH   4   5
ENDBRANCH   3   4
ENDBRANCH   2   3
ENDBRANCH   1   2
END_RES LYS A 131
BEGIN_RES LYS A 135
REMARK  4 active torsions:
REMARK  status: ('A' for Active; 'I' for Inactive)
REMARK    5  A    between atoms: CA   and  CB  
REMARK    6  A    between atoms: CB   and  CG  
REMARK    7  A    between atoms: CG   and  CD  
REMARK    8  A    between atoms: CD   and  CE  
ROOT
ATOM      7  CA  LYS A 135      33.193  34.663   9.290  1.00 25.02     0.186 C 
ENDROOT
BRANCH   7   8
ATOM      8  CB  LYS A 135      32.060  35.360  10.034  1.00 26.63     0.034 C 
BRANCH   8   9
ATOM      9  CG  LYS A 135      30.792  35.477   9.228  1.00 29.45     0.005 C 
BRANCH   9  10
ATOM     10  CD  LYS A 135      30.170  34.107   9.005  1.00 32.00     0.041 C 
BRANCH  10  11
ATOM     11  CE  LYS A 135      28.658  34.211   8.949  1.00 34.25     0.338 C 
ATOM     12  NZ  LYS A 135      28.071  34.240  10.318  1.00 35.99     0.618 N 
ENDBRANCH  10  11
ENDBRANCH   9  10
ENDBRANCH   8   9
ENDBRANCH   7   8
END_RES LYS A 135
