REMARK VINA RESULT:    -8.997      2.815      5.471
REMARK INTER + INTRA:         -13.120
REMARK INTER:                  -7.761
REMARK INTRA:                  -5.358
REMARK UNBOUND:                 4.555
REMARK SMILES CC(=O)N[C@@H]1[C@@H](O)C[C@](O)(C(=O)O)O[C@H]1C(O)[C@H](O)CNC(=O)OCc1cn(C2CCc3ccccc3NC2=O)nn1
REMARK SMILES IDX 24 1 22 2 21 3 23 5 20 6 18 7 16 8 15 9 9 10 8 11 14 12 6 13
REMARK SMILES IDX 5 14 10 15 11 17 12 18 13 19 7 21 4 23 2 24 1 26 3 27 17 28
REMARK SMILES IDX 19 30 25 32 26 33 27 34 42 35 28 36 41 37 29 38 39 40 38 41
REMARK SMILES IDX 40 42 37 44 32 45 36 46 33 47 35 48 34 49 31 50 30 51
REMARK H PARENT 21 4 10 16 13 20 7 22 4 25 17 29 19 31 38 43
REMARK Flexibility Score: 80.00
ROOT
ATOM      1  O   UNL     1      30.064  32.507  20.909  1.00  0.00    -0.443 OA
ENDROOT
BRANCH   1   2
ATOM      2  C   UNL     1      30.403  33.599  20.149  1.00  0.00     0.407 C 
ATOM      3  N   UNL     1      29.744  33.836  18.896  1.00  0.00    -0.319 N 
ATOM      4  H   UNL     1      29.012  33.139  18.623  1.00  0.00     0.167 HD
ATOM      5  O   UNL     1      31.286  34.419  20.508  1.00  0.00    -0.225 OA
BRANCH   3   6
ATOM      6  C   UNL     1      30.073  34.976  18.061  1.00  0.00     0.154 C 
BRANCH   6   7
ATOM      7  C   UNL     1      30.649  34.463  16.764  1.00  0.00     0.165 C 
BRANCH   7   8
ATOM      8  C   UNL     1      29.579  34.044  15.779  1.00  0.00     0.176 C 
BRANCH   8   9
ATOM      9  C   UNL     1      29.832  34.685  14.405  1.00  0.00     0.178 C 
ATOM     10  C   UNL     1      31.353  36.257  13.559  1.00  0.00     0.269 C 
ATOM     11  C   UNL     1      30.246  36.683  12.647  1.00  0.00     0.112 C 
ATOM     12  O   UNL     1      31.039  35.269  14.450  1.00  0.00    -0.332 OA
ATOM     13  C   UNL     1      29.028  36.896  13.530  1.00  0.00     0.145 C 
ATOM     14  C   UNL     1      28.655  35.558  14.118  1.00  0.00     0.142 C 
BRANCH  10  15
ATOM     15  O   UNL     1      31.728  37.372  14.338  1.00  0.00    -0.357 OA
ATOM     16  H   UNL     1      32.707  37.277  14.467  1.00  0.00     0.214 HD
ENDBRANCH  10  15
BRANCH  10  17
ATOM     17  C   UNL     1      32.564  35.828  12.815  1.00  0.00     0.364 C 
ATOM     18  O   UNL     1      32.929  36.477  11.811  1.00  0.00    -0.246 OA
BRANCH  17  19
ATOM     19  O   UNL     1      33.318  34.720  13.197  1.00  0.00    -0.477 OA
ATOM     20  H   UNL     1      34.148  34.517  12.622  1.00  0.00     0.296 HD
ENDBRANCH  17  19
ENDBRANCH  10  17
BRANCH  13  21
ATOM     21  O   UNL     1      29.412  37.746  14.562  1.00  0.00    -0.391 OA
ATOM     22  H   UNL     1      28.616  37.914  15.121  1.00  0.00     0.211 HD
ENDBRANCH  13  21
BRANCH  14  23
ATOM     23  N   UNL     1      27.829  34.881  13.134  1.00  0.00    -0.348 N 
ATOM     24  C   UNL     1      26.455  34.586  13.334  1.00  0.00     0.217 C 
ATOM     25  H   UNL     1      28.274  34.589  12.211  1.00  0.00     0.163 HD
ATOM     26  C   UNL     1      25.716  33.889  12.255  1.00  0.00     0.114 C 
ATOM     27  O   UNL     1      25.920  34.927  14.421  1.00  0.00    -0.275 OA
ENDBRANCH  14  23
ENDBRANCH   8   9
BRANCH   8  28
ATOM     28  O   UNL     1      28.371  34.550  16.270  1.00  0.00    -0.388 OA
ATOM     29  H   UNL     1      27.585  34.049  15.963  1.00  0.00     0.211 HD
ENDBRANCH   8  28
ENDBRANCH   7   8
BRANCH   7  30
ATOM     30  O   UNL     1      31.548  33.426  16.985  1.00  0.00    -0.388 OA
ATOM     31  H   UNL     1      32.023  33.510  17.838  1.00  0.00     0.211 HD
ENDBRANCH   7  30
ENDBRANCH   6   7
ENDBRANCH   3   6
ENDBRANCH   1   2
BRANCH   1  32
ATOM     32  C   UNL     1      30.155  31.186  20.401  1.00  0.00     0.294 C 
BRANCH  32  33
ATOM     33  C   UNL     1      29.346  31.030  19.165  1.00  0.00     0.120 A 
ATOM     34  C   UNL     1      27.950  30.948  19.139  1.00  0.00     0.139 A 
ATOM     35  N   UNL     1      29.726  30.933  17.878  1.00  0.00    -0.132 NA
ATOM     36  N   UNL     1      27.546  30.806  17.866  1.00  0.00    -0.240 N 
ATOM     37  N   UNL     1      28.640  30.802  17.137  1.00  0.00    -0.066 NA
BRANCH  36  38
ATOM     38  C   UNL     1      26.185  30.675  17.396  1.00  0.00     0.198 CG0
ATOM     39  G   UNL     1      26.001  29.309  16.820  1.00  0.00     0.000 G0
BRANCH  38  40
ATOM     40  C   UNL     1      25.837  31.757  16.432  1.00  0.00     0.249 C 
ATOM     41  N   UNL     1      25.153  31.743  15.193  1.00  0.00    -0.324 N 
ATOM     42  O   UNL     1      26.238  32.883  16.818  1.00  0.00    -0.272 OA
ATOM     43  H   UNL     1      25.240  32.566  14.560  1.00  0.00     0.170 HD
BRANCH  41  44
ATOM     44  C   UNL     1      24.318  30.694  14.671  1.00  0.00     0.044 A 
ATOM     45  C   UNL     1      24.010  29.491  15.278  1.00  0.00    -0.024 A 
ATOM     46  C   UNL     1      23.823  31.037  13.427  1.00  0.00     0.026 A 
ATOM     47  C   UNL     1      23.194  28.624  14.620  1.00  0.00     0.006 A 
ATOM     48  C   UNL     1      22.997  30.157  12.763  1.00  0.00     0.002 A 
ATOM     49  C   UNL     1      22.692  28.959  13.369  1.00  0.00     0.000 A 
BRANCH  45  50
ATOM     50  C   UNL     1      24.483  29.019  16.608  1.00  0.00     0.040 C 
BRANCH  50  51
ATOM     51  C   UNL     1      25.959  29.300  16.829  1.00  0.00     0.042 CG0
ATOM     52  G   UNL     1      26.201  30.664  17.389  1.00  0.00     0.000 G0
ENDBRANCH  50  51
ENDBRANCH  45  50
ENDBRANCH  41  44
ENDBRANCH  38  40
ENDBRANCH  36  38
ENDBRANCH  32  33
ENDBRANCH   1  32
TORSDOF 15
BEGIN_RES LYS A 131
REMARK  4 active torsions:
REMARK  status: ('A' for Active; 'I' for Inactive)
REMARK    1  A    between atoms: CA   and  CB  
REMARK    2  A    between atoms: CB   and  CG  
REMARK    3  A    between atoms: CG   and  CD  
REMARK    4  A    between atoms: CD   and  CE  
ROOT
ATOM      1  CA  LYS A 131      29.867  25.555  16.977  1.00 20.52     0.186 C 
ENDROOT
BRANCH   1   2
ATOM      2  CB  LYS A 131      28.345  25.722  17.026  1.00 20.94     0.034 C 
BRANCH   2   3
ATOM      3  CG  LYS A 131      27.607  24.394  17.102  1.00 22.96     0.005 C 
BRANCH   3   4
ATOM      4  CD  LYS A 131      26.396  24.469  17.989  1.00 24.33     0.041 C 
BRANCH   4   5
ATOM      5  CE  LYS A 131      25.263  23.654  17.375  1.00 26.91     0.338 C 
ATOM      6  NZ  LYS A 131      24.064  23.692  18.245  1.00 27.40     0.618 N 
ENDBRANCH   4   5
ENDBRANCH   3   4
ENDBRANCH   2   3
ENDBRANCH   1   2
END_RES LYS A 131
BEGIN_RES LYS A 135
REMARK  4 active torsions:
REMARK  status: ('A' for Active; 'I' for Inactive)
REMARK    5  A    between atoms: CA   and  CB  
REMARK    6  A    between atoms: CB   and  CG  
REMARK    7  A    between atoms: CG   and  CD  
REMARK    8  A    between atoms: CD   and  CE  
ROOT
ATOM      7  CA  LYS A 135      33.193  34.663   9.290  1.00 25.02     0.186 C 
ENDROOT
BRANCH   7   8
ATOM      8  CB  LYS A 135      32.060  35.360  10.034  1.00 26.63     0.034 C 
BRANCH   8   9
ATOM      9  CG  LYS A 135      30.716  34.710   9.831  1.00 29.45     0.005 C 
BRANCH   9  10
ATOM     10  CD  LYS A 135      30.221  34.932   8.410  1.00 32.00     0.041 C 
BRANCH  10  11
ATOM     11  CE  LYS A 135      28.708  34.852   8.355  1.00 34.25     0.338 C 
ATOM     12  NZ  LYS A 135      28.187  33.859   9.335  1.00 35.99     0.618 N 
ENDBRANCH  10  11
ENDBRANCH   9  10
ENDBRANCH   8   9
ENDBRANCH   7   8
END_RES LYS A 135
