REMARK VINA RESULT:    -3.600      2.921      4.743
REMARK INTER + INTRA:         -16.738
REMARK INTER:                  -9.131
REMARK INTRA:                  -7.606
REMARK UNBOUND:                -8.298
REMARK SMILES CC(=O)N[C@@H]1[C@@H](O)C[C@](O)(C(=O)O)O[C@H]1C(O)[C@H](O)CNC(=O)OCc1cn(CCCCCCCCCCC(=O)O)nn1
REMARK SMILES IDX 29 1 28 2 26 3 27 4 43 5 42 6 25 7 24 8 22 9 21 10 23 12
REMARK SMILES IDX 20 13 18 14 16 15 15 16 9 17 8 18 14 19 6 20 5 21 10 22
REMARK SMILES IDX 11 24 12 25 13 26 7 28 4 30 2 31 1 33 3 34 17 35 19 37 30 39
REMARK SMILES IDX 31 40 32 41 33 42 34 43 35 44 36 45 37 46 38 47 39 48 40 49
REMARK SMILES IDX 41 50
REMARK H PARENT 21 11 10 23 13 27 7 29 4 32 17 36 19 38 41 51
REMARK Flexibility Score: inf
ROOT
ATOM      1  C   UNL     1      29.865  32.843  15.000  1.00  0.00     0.146 C 
ENDROOT
BRANCH   1   2
ATOM      2  N   UNL     1      28.803  32.159  15.685  1.00  0.00    -0.252 N 
ATOM      3  C   UNL     1      27.384  30.684  16.475  1.00  0.00     0.120 A 
ATOM      4  C   UNL     1      28.468  30.837  15.654  1.00  0.00     0.138 A 
ATOM      5  N   UNL     1      27.085  31.899  16.982  1.00  0.00    -0.132 NA
ATOM      6  N   UNL     1      27.947  32.750  16.494  1.00  0.00    -0.067 NA
BRANCH   3   7
ATOM      7  C   UNL     1      26.689  29.405  16.736  1.00  0.00     0.294 C 
BRANCH   7   8
ATOM      8  O   UNL     1      27.529  28.516  17.440  1.00  0.00    -0.443 OA
BRANCH   8   9
ATOM      9  C   UNL     1      27.258  28.178  18.759  1.00  0.00     0.407 C 
ATOM     10  N   UNL     1      26.416  28.979  19.576  1.00  0.00    -0.319 N 
ATOM     11  H   UNL     1      25.983  29.847  19.195  1.00  0.00     0.167 HD
ATOM     12  O   UNL     1      27.788  27.113  19.229  1.00  0.00    -0.225 OA
BRANCH  10  13
ATOM     13  C   UNL     1      26.162  28.593  20.928  1.00  0.00     0.154 C 
BRANCH  13  14
ATOM     14  C   UNL     1      26.719  29.580  21.931  1.00  0.00     0.165 C 
BRANCH  14  15
ATOM     15  C   UNL     1      28.070  29.130  22.399  1.00  0.00     0.176 C 
BRANCH  15  16
ATOM     16  C   UNL     1      29.136  30.073  21.883  1.00  0.00     0.178 C 
ATOM     17  C   UNL     1      29.377  32.002  20.622  1.00  0.00     0.269 C 
ATOM     18  C   UNL     1      30.781  31.478  20.419  1.00  0.00     0.112 C 
ATOM     19  O   UNL     1      28.522  31.038  21.132  1.00  0.00    -0.332 OA
ATOM     20  C   UNL     1      30.688  30.054  19.945  1.00  0.00     0.145 C 
ATOM     21  C   UNL     1      30.146  29.244  21.131  1.00  0.00     0.142 C 
BRANCH  17  22
ATOM     22  O   UNL     1      28.895  32.350  19.364  1.00  0.00    -0.357 OA
ATOM     23  H   UNL     1      28.026  31.926  19.183  1.00  0.00     0.214 HD
ENDBRANCH  17  22
BRANCH  17  24
ATOM     24  C   UNL     1      29.463  33.204  21.452  1.00  0.00     0.364 C 
ATOM     25  O   UNL     1      30.585  33.720  21.674  1.00  0.00    -0.246 OA
BRANCH  24  26
ATOM     26  O   UNL     1      28.366  33.833  22.027  1.00  0.00    -0.477 OA
ATOM     27  H   UNL     1      27.490  33.886  21.482  1.00  0.00     0.296 HD
ENDBRANCH  24  26
ENDBRANCH  17  24
BRANCH  20  28
ATOM     28  O   UNL     1      29.877  29.949  18.835  1.00  0.00    -0.391 OA
ATOM     29  H   UNL     1      30.008  30.760  18.282  1.00  0.00     0.211 HD
ENDBRANCH  20  28
BRANCH  21  30
ATOM     30  N   UNL     1      31.297  28.945  21.956  1.00  0.00    -0.348 N 
ATOM     31  C   UNL     1      31.683  27.592  22.110  1.00  0.00     0.217 C 
ATOM     32  H   UNL     1      31.850  29.697  22.437  1.00  0.00     0.163 HD
ATOM     33  C   UNL     1      32.867  27.241  22.954  1.00  0.00     0.114 C 
ATOM     34  O   UNL     1      31.038  26.688  21.545  1.00  0.00    -0.275 OA
ENDBRANCH  21  30
ENDBRANCH  15  16
BRANCH  15  35
ATOM     35  O   UNL     1      28.266  27.820  21.952  1.00  0.00    -0.388 OA
ATOM     36  H   UNL     1      28.432  27.186  22.671  1.00  0.00     0.211 HD
ENDBRANCH  15  35
ENDBRANCH  14  15
BRANCH  14  37
ATOM     37  O   UNL     1      25.890  29.696  23.047  1.00  0.00    -0.388 OA
ATOM     38  H   UNL     1      26.408  29.772  23.870  1.00  0.00     0.211 HD
ENDBRANCH  14  37
ENDBRANCH  13  14
ENDBRANCH  10  13
ENDBRANCH   8   9
ENDBRANCH   7   8
ENDBRANCH   3   7
ENDBRANCH   1   2
BRANCH   1  39
ATOM     39  C   UNL     1      31.175  32.499  15.657  1.00  0.00     0.024 C 
BRANCH  39  40
ATOM     40  C   UNL     1      31.867  33.697  16.243  1.00  0.00     0.002 C 
BRANCH  40  41
ATOM     41  C   UNL     1      31.515  33.916  17.693  1.00  0.00     0.000 C 
BRANCH  41  42
ATOM     42  C   UNL     1      32.213  35.173  18.204  1.00  0.00     0.000 C 
BRANCH  42  43
ATOM     43  C   UNL     1      33.232  35.611  17.185  1.00  0.00     0.000 C 
BRANCH  43  44
ATOM     44  C   UNL     1      33.686  37.021  17.427  1.00  0.00     0.000 C 
BRANCH  44  45
ATOM     45  C   UNL     1      35.065  37.229  16.894  1.00  0.00     0.001 C 
BRANCH  45  46
ATOM     46  C   UNL     1      35.818  35.906  16.790  1.00  0.00     0.012 C 
BRANCH  46  47
ATOM     47  C   UNL     1      37.296  36.109  16.592  1.00  0.00     0.122 C 
BRANCH  47  48
ATOM     48  C   UNL     1      37.695  35.235  15.446  1.00  0.00     0.303 C 
ATOM     49  O   UNL     1      38.883  34.998  15.143  1.00  0.00    -0.252 OA
BRANCH  48  50
ATOM     50  O   UNL     1      36.700  34.644  14.666  1.00  0.00    -0.481 OA
ATOM     51  H   UNL     1      35.862  34.313  15.113  1.00  0.00     0.296 HD
ENDBRANCH  48  50
ENDBRANCH  47  48
ENDBRANCH  46  47
ENDBRANCH  45  46
ENDBRANCH  44  45
ENDBRANCH  43  44
ENDBRANCH  42  43
ENDBRANCH  41  42
ENDBRANCH  40  41
ENDBRANCH  39  40
ENDBRANCH   1  39
TORSDOF 26
BEGIN_RES LYS A 131
REMARK  4 active torsions:
REMARK  status: ('A' for Active; 'I' for Inactive)
REMARK    1  A    between atoms: CA   and  CB  
REMARK    2  A    between atoms: CB   and  CG  
REMARK    3  A    between atoms: CG   and  CD  
REMARK    4  A    between atoms: CD   and  CE  
ROOT
ATOM      1  CA  LYS A 131      29.867  25.555  16.977  1.00 20.52     0.186 C 
ENDROOT
BRANCH   1   2
ATOM      2  CB  LYS A 131      28.345  25.722  17.026  1.00 20.94     0.034 C 
BRANCH   2   3
ATOM      3  CG  LYS A 131      27.600  24.413  16.816  1.00 22.96     0.005 C 
BRANCH   3   4
ATOM      4  CD  LYS A 131      26.617  24.137  17.920  1.00 24.33     0.041 C 
BRANCH   4   5
ATOM      5  CE  LYS A 131      25.310  24.867  17.633  1.00 26.91     0.338 C 
ATOM      6  NZ  LYS A 131      24.747  25.435  18.881  1.00 27.40     0.618 N 
ENDBRANCH   4   5
ENDBRANCH   3   4
ENDBRANCH   2   3
ENDBRANCH   1   2
END_RES LYS A 131
BEGIN_RES LYS A 135
REMARK  4 active torsions:
REMARK  status: ('A' for Active; 'I' for Inactive)
REMARK    5  A    between atoms: CA   and  CB  
REMARK    6  A    between atoms: CB   and  CG  
REMARK    7  A    between atoms: CG   and  CD  
REMARK    8  A    between atoms: CD   and  CE  
ROOT
ATOM      7  CA  LYS A 135      33.193  34.663   9.290  1.00 25.02     0.186 C 
ENDROOT
BRANCH   7   8
ATOM      8  CB  LYS A 135      32.060  35.360  10.034  1.00 26.63     0.034 C 
BRANCH   8   9
ATOM      9  CG  LYS A 135      30.737  34.647   9.921  1.00 29.45     0.005 C 
BRANCH   9  10
ATOM     10  CD  LYS A 135      30.326  34.506   8.464  1.00 32.00     0.041 C 
BRANCH  10  11
ATOM     11  CE  LYS A 135      28.816  34.540   8.331  1.00 34.25     0.338 C 
ATOM     12  NZ  LYS A 135      28.161  33.828   9.464  1.00 35.99     0.618 N 
ENDBRANCH  10  11
ENDBRANCH   9  10
ENDBRANCH   8   9
ENDBRANCH   7   8
END_RES LYS A 135
