REMARK VINA RESULT:    -3.745      2.178      5.920
REMARK INTER + INTRA:         -16.575
REMARK INTER:                  -8.246
REMARK INTRA:                  -8.329
REMARK UNBOUND:                -9.983
REMARK SMILES CC(=O)N[C@@H]1[C@@H](O)C[C@](O)(C(=O)O)O[C@H]1C(O)[C@H](O)CNC(=O)OCc1cn(-c2nc(C)nc(N)n2)nn1
REMARK SMILES IDX 21 1 22 2 23 3 20 5 18 6 16 7 15 8 9 9 8 10 14 11 6 12 5 13
REMARK SMILES IDX 10 14 11 16 12 17 13 18 7 20 4 22 2 23 1 25 3 26 17 27 19 29
REMARK SMILES IDX 24 31 25 32 26 33 27 34 38 35 28 36 37 37 29 38 36 39 30 40
REMARK SMILES IDX 34 41 31 42 33 43 32 44 35 45
REMARK H PARENT 21 4 10 15 13 19 7 21 4 24 17 28 19 30 35 46 35 47
REMARK Flexibility Score: inf
ROOT
ATOM      1  N   UNL     1      29.016  32.903  18.576  1.00  0.00    -0.319 N 
ATOM      2  C   UNL     1      29.275  31.525  18.786  1.00  0.00     0.407 C 
ATOM      3  O   UNL     1      30.425  31.049  18.830  1.00  0.00    -0.225 OA
ATOM      4  H   UNL     1      27.988  33.170  18.551  1.00  0.00     0.167 HD
ENDROOT
BRANCH   1   5
ATOM      5  C   UNL     1      30.031  33.925  18.401  1.00  0.00     0.154 C 
BRANCH   5   6
ATOM      6  C   UNL     1      30.405  34.109  16.993  1.00  0.00     0.165 C 
BRANCH   6   7
ATOM      7  C   UNL     1      29.300  34.623  16.068  1.00  0.00     0.176 C 
BRANCH   7   8
ATOM      8  C   UNL     1      29.805  35.231  14.793  1.00  0.00     0.178 C 
ATOM      9  C   UNL     1      31.498  36.647  14.024  1.00  0.00     0.269 C 
ATOM     10  C   UNL     1      30.464  37.525  13.360  1.00  0.00     0.112 C 
ATOM     11  O   UNL     1      30.999  35.842  15.004  1.00  0.00    -0.332 OA
ATOM     12  C   UNL     1      29.345  36.667  12.849  1.00  0.00     0.145 C 
ATOM     13  C   UNL     1      28.742  35.938  14.057  1.00  0.00     0.142 C 
BRANCH   9  14
ATOM     14  O   UNL     1      32.366  37.560  14.681  1.00  0.00    -0.357 OA
ATOM     15  H   UNL     1      33.175  37.069  14.977  1.00  0.00     0.214 HD
ENDBRANCH   9  14
BRANCH   9  16
ATOM     16  C   UNL     1      32.272  35.960  12.992  1.00  0.00     0.364 C 
ATOM     17  O   UNL     1      32.740  36.646  12.020  1.00  0.00    -0.246 OA
BRANCH  16  18
ATOM     18  O   UNL     1      32.571  34.611  12.942  1.00  0.00    -0.477 OA
ATOM     19  H   UNL     1      33.545  34.305  13.093  1.00  0.00     0.296 HD
ENDBRANCH  16  18
ENDBRANCH   9  16
BRANCH  12  20
ATOM     20  O   UNL     1      28.356  37.449  12.245  1.00  0.00    -0.391 OA
ATOM     21  H   UNL     1      28.435  37.295  11.261  1.00  0.00     0.211 HD
ENDBRANCH  12  20
BRANCH  13  22
ATOM     22  N   UNL     1      27.860  34.924  13.448  1.00  0.00    -0.348 N 
ATOM     23  C   UNL     1      26.463  35.151  13.450  1.00  0.00     0.217 C 
ATOM     24  H   UNL     1      28.245  34.057  13.022  1.00  0.00     0.163 HD
ATOM     25  C   UNL     1      25.503  34.169  12.850  1.00  0.00     0.114 C 
ATOM     26  O   UNL     1      26.038  36.216  13.977  1.00  0.00    -0.275 OA
ENDBRANCH  13  22
ENDBRANCH   7   8
BRANCH   7  27
ATOM     27  O   UNL     1      28.597  33.406  15.759  1.00  0.00    -0.388 OA
ATOM     28  H   UNL     1      29.129  32.719  16.266  1.00  0.00     0.211 HD
ENDBRANCH   7  27
ENDBRANCH   6   7
BRANCH   6  29
ATOM     29  O   UNL     1      31.031  33.023  16.436  1.00  0.00    -0.388 OA
ATOM     30  H   UNL     1      31.990  32.948  16.672  1.00  0.00     0.211 HD
ENDBRANCH   6  29
ENDBRANCH   5   6
ENDBRANCH   1   5
BRANCH   2  31
ATOM     31  O   UNL     1      28.224  30.623  18.954  1.00  0.00    -0.443 OA
BRANCH  31  32
ATOM     32  C   UNL     1      26.896  31.021  19.099  1.00  0.00     0.294 C 
BRANCH  32  33
ATOM     33  C   UNL     1      26.272  31.423  17.812  1.00  0.00     0.121 A 
ATOM     34  C   UNL     1      25.648  30.580  16.916  1.00  0.00     0.148 A 
ATOM     35  N   UNL     1      26.177  32.652  17.247  1.00  0.00    -0.131 NA
ATOM     36  N   UNL     1      25.200  31.287  15.857  1.00  0.00    -0.185 N 
ATOM     37  N   UNL     1      25.538  32.529  16.095  1.00  0.00    -0.059 NA
BRANCH  36  38
ATOM     38  C   UNL     1      24.505  30.795  14.719  1.00  0.00     0.257 A 
ATOM     39  N   UNL     1      24.820  29.643  14.103  1.00  0.00    -0.175 NA
ATOM     40  N   UNL     1      23.480  31.505  14.220  1.00  0.00    -0.196 NA
ATOM     41  C   UNL     1      24.165  29.177  13.026  1.00  0.00     0.225 A 
ATOM     42  C   UNL     1      22.796  31.056  13.127  1.00  0.00     0.133 A 
ATOM     43  N   UNL     1      23.152  29.896  12.548  1.00  0.00    -0.198 NA
ATOM     44  C   UNL     1      21.671  31.846  12.591  1.00  0.00     0.090 C 
BRANCH  41  45
ATOM     45  N   UNL     1      24.495  27.967  12.377  1.00  0.00    -0.368 N 
ATOM     46  H   UNL     1      25.488  27.691  12.274  1.00  0.00     0.159 HD
ATOM     47  H   UNL     1      23.765  27.338  11.995  1.00  0.00     0.159 HD
ENDBRANCH  41  45
ENDBRANCH  36  38
ENDBRANCH  32  33
ENDBRANCH  31  32
ENDBRANCH   2  31
TORSDOF 16
BEGIN_RES LYS A 135
REMARK  4 active torsions:
REMARK  status: ('A' for Active; 'I' for Inactive)
REMARK    1  A    between atoms: CA   and  CB  
REMARK    2  A    between atoms: CB   and  CG  
REMARK    3  A    between atoms: CG   and  CD  
REMARK    4  A    between atoms: CD   and  CE  
ROOT
ATOM      1  CA  LYS A 135      33.193  34.663   9.290  1.00 25.02     0.186 C 
ENDROOT
BRANCH   1   2
ATOM      2  CB  LYS A 135      32.060  35.360  10.034  1.00 26.63     0.034 C 
BRANCH   2   3
ATOM      3  CG  LYS A 135      30.726  34.676   9.879  1.00 29.45     0.005 C 
BRANCH   3   4
ATOM      4  CD  LYS A 135      30.419  34.426   8.410  1.00 32.00     0.041 C 
BRANCH   4   5
ATOM      5  CE  LYS A 135      28.966  34.737   8.109  1.00 34.25     0.338 C 
ATOM      6  NZ  LYS A 135      28.063  34.090   9.101  1.00 35.99     0.618 N 
ENDBRANCH   4   5
ENDBRANCH   3   4
ENDBRANCH   2   3
ENDBRANCH   1   2
END_RES LYS A 135
BEGIN_RES ARG A 124
REMARK  4 active torsions:
REMARK  status: ('A' for Active; 'I' for Inactive)
REMARK    5  A    between atoms: CA   and  CB  
REMARK    6  A    between atoms: CB   and  CG  
REMARK    7  A    between atoms: CG   and  CD  
REMARK    8  A    between atoms: CD   and  NE  
REMARK       I    between atoms: NE   and  CZ  
ROOT
ATOM      7  CA  ARG A 124      31.045  26.515   9.594  1.00 17.84     0.186 C 
ENDROOT
BRANCH   7   8
ATOM      8  CB  ARG A 124      29.529  26.705   9.647  1.00 16.18     0.036 C 
BRANCH   8   9
ATOM      9  CG  ARG A 124      29.035  28.049  10.293  1.00 16.22     0.029 C 
BRANCH   9  10
ATOM     10  CD  ARG A 124      27.729  27.881  11.103  1.00 15.09     0.145 C 
BRANCH  10  11
ATOM     11  NE  ARG A 124      27.770  28.511  12.440  1.00 16.98    -0.083 NA
ATOM     12  CZ  ARG A 124      27.881  27.852  13.588  1.00 18.21     0.782 C 
ATOM     13  NH1 ARG A 124      27.979  26.528  13.617  1.00 21.11     0.063 N 
ATOM     14  NH2 ARG A 124      27.919  28.517  14.732  1.00 21.25     0.063 N 
ENDBRANCH  10  11
ENDBRANCH   9  10
ENDBRANCH   8   9
ENDBRANCH   7   8
END_RES ARG A 124
BEGIN_RES ASN A 133
REMARK  2 active torsions:
REMARK  status: ('A' for Active; 'I' for Inactive)
REMARK    9  A    between atoms: CA   and  CB  
REMARK   10  A    between atoms: CB   and  CG  
ROOT
ATOM     15  CA  ASN A 133      31.225  30.257  11.749  1.00 18.15     0.196 C 
ENDROOT
BRANCH  15  16
ATOM     16  CB  ASN A 133      30.092  31.240  11.460  1.00 18.27     0.126 C 
BRANCH  16  17
ATOM     17  CG  ASN A 133      29.489  31.829  12.698  1.00 18.94     0.276 C 
ATOM     18  OD1 ASN A 133      30.150  32.547  13.450  1.00 18.09    -0.269 OA
ATOM     19  ND2 ASN A 133      28.212  31.525  12.925  1.00 18.93    -0.107 N 
ENDBRANCH  16  17
ENDBRANCH  15  16
END_RES ASN A 133
BEGIN_RES LYS A 131
REMARK  4 active torsions:
REMARK  status: ('A' for Active; 'I' for Inactive)
REMARK   11  A    between atoms: CA   and  CB  
REMARK   12  A    between atoms: CB   and  CG  
REMARK   13  A    between atoms: CG   and  CD  
REMARK   14  A    between atoms: CD   and  CE  
ROOT
ATOM     20  CA  LYS A 131      29.867  25.555  16.977  1.00 20.52     0.186 C 
ENDROOT
BRANCH  20  21
ATOM     21  CB  LYS A 131      28.345  25.722  17.026  1.00 20.94     0.034 C 
BRANCH  21  22
ATOM     22  CG  LYS A 131      27.599  24.419  16.782  1.00 22.96     0.005 C 
BRANCH  22  23
ATOM     23  CD  LYS A 131      26.593  24.131  17.861  1.00 24.33     0.041 C 
BRANCH  23  24
ATOM     24  CE  LYS A 131      25.778  25.389  18.145  1.00 26.91     0.338 C 
ATOM     25  NZ  LYS A 131      24.672  25.523  17.168  1.00 27.40     0.618 N 
ENDBRANCH  23  24
ENDBRANCH  22  23
ENDBRANCH  21  22
ENDBRANCH  20  21
END_RES LYS A 131
