REMARK VINA RESULT:    -5.408      6.059     10.473
REMARK INTER + INTRA:         -14.966
REMARK INTER:                  -9.822
REMARK INTRA:                  -5.143
REMARK UNBOUND:                -5.290
REMARK SMILES CC(=O)N[C@@H]1[C@@H](O)C[C@](O)(C(=O)O)O[C@H]1C(O)[C@H](O)CNC(=O)OCc1cn(Cc2ccccc2)nn1
REMARK SMILES IDX 21 1 22 2 23 3 20 5 18 6 16 7 15 8 9 9 8 10 14 11 6 12 5 13
REMARK SMILES IDX 10 14 11 16 12 17 13 18 7 20 4 22 2 23 1 25 3 26 17 27 19 29
REMARK SMILES IDX 24 31 25 32 26 33 27 34 37 35 28 36 36 37 29 38 30 39 31 40
REMARK SMILES IDX 35 41 32 42 34 43 33 44
REMARK H PARENT 21 4 10 15 13 19 7 21 4 24 17 28 19 30
REMARK Flexibility Score: inf
ROOT
ATOM      1  N   UNL     1      29.399  31.675  17.304  1.00  0.00    -0.319 N 
ATOM      2  C   UNL     1      28.406  30.837  16.758  1.00  0.00     0.407 C 
ATOM      3  O   UNL     1      28.651  30.011  15.864  1.00  0.00    -0.225 OA
ATOM      4  H   UNL     1      29.071  32.332  18.059  1.00  0.00     0.167 HD
ENDROOT
BRANCH   1   5
ATOM      5  C   UNL     1      30.764  31.652  16.878  1.00  0.00     0.154 C 
BRANCH   5   6
ATOM      6  C   UNL     1      30.990  32.720  15.833  1.00  0.00     0.165 C 
BRANCH   6   7
ATOM      7  C   UNL     1      30.218  33.970  16.146  1.00  0.00     0.176 C 
BRANCH   7   8
ATOM      8  C   UNL     1      30.363  35.046  15.096  1.00  0.00     0.178 C 
ATOM      9  C   UNL     1      29.909  35.111  12.805  1.00  0.00     0.269 C 
ATOM     10  C   UNL     1      30.731  36.410  12.808  1.00  0.00     0.112 C 
ATOM     11  O   UNL     1      29.464  34.933  14.080  1.00  0.00    -0.332 OA
ATOM     12  C   UNL     1      32.046  35.998  13.468  1.00  0.00     0.145 C 
ATOM     13  C   UNL     1      31.797  35.205  14.732  1.00  0.00     0.142 C 
BRANCH   9  14
ATOM     14  O   UNL     1      30.648  34.073  12.276  1.00  0.00    -0.357 OA
ATOM     15  H   UNL     1      30.763  33.388  12.967  1.00  0.00     0.214 HD
ENDBRANCH   9  14
BRANCH   9  16
ATOM     16  C   UNL     1      28.700  35.386  11.948  1.00  0.00     0.364 C 
ATOM     17  O   UNL     1      28.103  34.470  11.346  1.00  0.00    -0.246 OA
BRANCH  16  18
ATOM     18  O   UNL     1      28.228  36.677  11.811  1.00  0.00    -0.477 OA
ATOM     19  H   UNL     1      28.109  37.052  10.884  1.00  0.00     0.296 HD
ENDBRANCH  16  18
ENDBRANCH   9  16
BRANCH  12  20
ATOM     20  O   UNL     1      32.728  35.244  12.513  1.00  0.00    -0.391 OA
ATOM     21  H   UNL     1      33.072  35.843  11.815  1.00  0.00     0.211 HD
ENDBRANCH  12  20
BRANCH  13  22
ATOM     22  N   UNL     1      32.449  35.882  15.868  1.00  0.00    -0.348 N 
ATOM     23  C   UNL     1      33.851  35.856  16.069  1.00  0.00     0.217 C 
ATOM     24  H   UNL     1      31.851  36.411  16.566  1.00  0.00     0.163 HD
ATOM     25  C   UNL     1      34.551  36.521  17.195  1.00  0.00     0.114 C 
ATOM     26  O   UNL     1      34.553  35.229  15.238  1.00  0.00    -0.275 OA
ENDBRANCH  13  22
ENDBRANCH   7   8
BRANCH   7  27
ATOM     27  O   UNL     1      30.556  34.409  17.411  1.00  0.00    -0.388 OA
ATOM     28  H   UNL     1      29.763  34.321  17.993  1.00  0.00     0.211 HD
ENDBRANCH   7  27
ENDBRANCH   6   7
BRANCH   6  29
ATOM     29  O   UNL     1      30.607  32.148  14.619  1.00  0.00    -0.388 OA
ATOM     30  H   UNL     1      31.034  31.278  14.454  1.00  0.00     0.211 HD
ENDBRANCH   6  29
ENDBRANCH   5   6
ENDBRANCH   1   5
BRANCH   2  31
ATOM     31  O   UNL     1      27.090  30.911  17.213  1.00  0.00    -0.443 OA
BRANCH  31  32
ATOM     32  C   UNL     1      26.503  32.169  17.444  1.00  0.00     0.294 C 
BRANCH  32  33
ATOM     33  C   UNL     1      25.476  32.490  16.424  1.00  0.00     0.120 A 
ATOM     34  C   UNL     1      25.546  32.199  15.088  1.00  0.00     0.138 A 
ATOM     35  N   UNL     1      24.316  33.119  16.635  1.00  0.00    -0.132 NA
ATOM     36  N   UNL     1      24.420  32.661  14.520  1.00  0.00    -0.248 N 
ATOM     37  N   UNL     1      23.688  33.219  15.491  1.00  0.00    -0.067 NA
BRANCH  36  38
ATOM     38  C   UNL     1      24.014  32.601  13.139  1.00  0.00     0.181 C 
BRANCH  38  39
ATOM     39  C   UNL     1      23.199  31.387  12.871  1.00  0.00    -0.026 A 
ATOM     40  C   UNL     1      23.777  30.123  12.831  1.00  0.00     0.005 A 
ATOM     41  C   UNL     1      21.845  31.453  12.651  1.00  0.00     0.005 A 
ATOM     42  C   UNL     1      23.019  29.006  12.582  1.00  0.00     0.000 A 
ATOM     43  C   UNL     1      21.072  30.333  12.400  1.00  0.00     0.000 A 
ATOM     44  C   UNL     1      21.660  29.090  12.365  1.00  0.00     0.000 A 
ENDBRANCH  38  39
ENDBRANCH  36  38
ENDBRANCH  32  33
ENDBRANCH  31  32
ENDBRANCH   2  31
TORSDOF 16
BEGIN_RES LYS A 131
REMARK  4 active torsions:
REMARK  status: ('A' for Active; 'I' for Inactive)
REMARK    1  A    between atoms: CA   and  CB  
REMARK    2  A    between atoms: CB   and  CG  
REMARK    3  A    between atoms: CG   and  CD  
REMARK    4  A    between atoms: CD   and  CE  
ROOT
ATOM      1  CA  LYS A 131      29.867  25.555  16.977  1.00 20.52     0.186 C 
ENDROOT
BRANCH   1   2
ATOM      2  CB  LYS A 131      28.345  25.722  17.026  1.00 20.94     0.034 C 
BRANCH   2   3
ATOM      3  CG  LYS A 131      27.599  24.439  16.693  1.00 22.96     0.005 C 
BRANCH   3   4
ATOM      4  CD  LYS A 131      26.307  24.321  17.453  1.00 24.33     0.041 C 
BRANCH   4   5
ATOM      5  CE  LYS A 131      25.846  25.708  17.891  1.00 26.91     0.338 C 
ATOM      6  NZ  LYS A 131      24.571  25.617  18.641  1.00 27.40     0.618 N 
ENDBRANCH   4   5
ENDBRANCH   3   4
ENDBRANCH   2   3
ENDBRANCH   1   2
END_RES LYS A 131
BEGIN_RES LYS A 135
REMARK  4 active torsions:
REMARK  status: ('A' for Active; 'I' for Inactive)
REMARK    5  A    between atoms: CA   and  CB  
REMARK    6  A    between atoms: CB   and  CG  
REMARK    7  A    between atoms: CG   and  CD  
REMARK    8  A    between atoms: CD   and  CE  
ROOT
ATOM      7  CA  LYS A 135      33.193  34.663   9.290  1.00 25.02     0.186 C 
ENDROOT
BRANCH   7   8
ATOM      8  CB  LYS A 135      32.060  35.360  10.034  1.00 26.63     0.034 C 
BRANCH   8   9
ATOM      9  CG  LYS A 135      30.880  35.693   9.159  1.00 29.45     0.005 C 
BRANCH   9  10
ATOM     10  CD  LYS A 135      30.284  34.430   8.557  1.00 32.00     0.041 C 
BRANCH  10  11
ATOM     11  CE  LYS A 135      28.925  34.718   7.949  1.00 34.25     0.338 C 
ATOM     12  NZ  LYS A 135      28.728  36.181   7.746  1.00 35.99     0.618 N 
ENDBRANCH  10  11
ENDBRANCH   9  10
ENDBRANCH   8   9
ENDBRANCH   7   8
END_RES LYS A 135
