REMARK VINA RESULT:    -4.782      2.020      4.738
REMARK INTER + INTRA:         -14.562
REMARK INTER:                  -8.083
REMARK INTRA:                  -6.479
REMARK UNBOUND:                -6.285
REMARK SMILES CC(=O)N[C@@H]1[C@@H](O)C[C@](O)(C(=O)O)O[C@H]1C(O)[C@H](O)CNC(=O)OCc1cn(-c2ccccc2I)nn1
REMARK SMILES IDX 20 1 18 2 16 3 15 4 9 5 8 6 14 7 6 8 5 9 10 10 11 12 12 13
REMARK SMILES IDX 13 14 7 16 4 18 2 19 1 21 3 22 17 23 19 25 21 27 22 28 23 30
REMARK SMILES IDX 24 31 25 32 26 33 27 34 37 35 28 36 36 37 29 38 30 39 34 40
REMARK SMILES IDX 31 41 33 42 35 43 32 44
REMARK H PARENT 10 11 13 15 7 17 4 20 17 24 19 26 21 29
REMARK Flexibility Score: inf
ROOT
ATOM      1  C   UNL     1      29.941  31.015  19.491  1.00  0.00     0.154 C 
ENDROOT
BRANCH   1   2
ATOM      2  C   UNL     1      30.380  31.678  18.206  1.00  0.00     0.165 C 
BRANCH   2   3
ATOM      3  C   UNL     1      29.460  32.789  17.843  1.00  0.00     0.176 C 
BRANCH   3   4
ATOM      4  C   UNL     1      30.029  33.842  16.927  1.00  0.00     0.178 C 
ATOM      5  C   UNL     1      28.581  34.301  15.125  1.00  0.00     0.269 C 
ATOM      6  C   UNL     1      29.692  34.037  14.129  1.00  0.00     0.112 C 
ATOM      7  O   UNL     1      28.986  34.522  16.392  1.00  0.00    -0.332 OA
ATOM      8  C   UNL     1      30.543  32.934  14.703  1.00  0.00     0.145 C 
ATOM      9  C   UNL     1      31.109  33.416  16.015  1.00  0.00     0.142 C 
BRANCH   5  10
ATOM     10  O   UNL     1      27.779  33.160  15.106  1.00  0.00    -0.357 OA
ATOM     11  H   UNL     1      28.274  32.475  14.563  1.00  0.00     0.214 HD
ENDBRANCH   5  10
BRANCH   5  12
ATOM     12  C   UNL     1      27.763  35.425  14.570  1.00  0.00     0.364 C 
ATOM     13  O   UNL     1      27.096  36.204  15.285  1.00  0.00    -0.246 OA
BRANCH  12  14
ATOM     14  O   UNL     1      27.744  35.605  13.203  1.00  0.00    -0.477 OA
ATOM     15  H   UNL     1      26.883  35.747  12.672  1.00  0.00     0.296 HD
ENDBRANCH  12  14
ENDBRANCH   5  12
BRANCH   8  16
ATOM     16  O   UNL     1      29.712  31.821  14.848  1.00  0.00    -0.391 OA
ATOM     17  H   UNL     1      29.045  31.756  14.121  1.00  0.00     0.211 HD
ENDBRANCH   8  16
BRANCH   9  18
ATOM     18  N   UNL     1      31.980  34.562  15.695  1.00  0.00    -0.348 N 
ATOM     19  C   UNL     1      32.729  35.234  16.692  1.00  0.00     0.217 C 
ATOM     20  H   UNL     1      32.055  34.899  14.715  1.00  0.00     0.163 HD
ATOM     21  C   UNL     1      33.581  36.376  16.290  1.00  0.00     0.114 C 
ATOM     22  O   UNL     1      32.678  34.872  17.906  1.00  0.00    -0.275 OA
ENDBRANCH   9  18
ENDBRANCH   3   4
BRANCH   3  23
ATOM     23  O   UNL     1      28.195  32.347  17.479  1.00  0.00    -0.388 OA
ATOM     24  H   UNL     1      27.512  32.577  18.169  1.00  0.00     0.211 HD
ENDBRANCH   3  23
ENDBRANCH   2   3
BRANCH   2  25
ATOM     25  O   UNL     1      30.358  30.649  17.228  1.00  0.00    -0.388 OA
ATOM     26  H   UNL     1      31.167  30.079  17.340  1.00  0.00     0.211 HD
ENDBRANCH   2  25
ENDBRANCH   1   2
BRANCH   1  27
ATOM     27  N   UNL     1      29.154  29.820  19.292  1.00  0.00    -0.319 N 
ATOM     28  C   UNL     1      27.752  29.861  19.577  1.00  0.00     0.407 C 
ATOM     29  H   UNL     1      29.624  28.967  18.943  1.00  0.00     0.167 HD
ATOM     30  O   UNL     1      27.263  30.927  19.987  1.00  0.00    -0.225 OA
BRANCH  28  31
ATOM     31  O   UNL     1      27.021  28.701  19.378  1.00  0.00    -0.443 OA
BRANCH  31  32
ATOM     32  C   UNL     1      27.148  28.022  18.156  1.00  0.00     0.294 C 
BRANCH  32  33
ATOM     33  C   UNL     1      26.845  28.978  17.063  1.00  0.00     0.121 A 
ATOM     34  C   UNL     1      25.559  29.220  16.567  1.00  0.00     0.144 A 
ATOM     35  N   UNL     1      27.664  29.765  16.355  1.00  0.00    -0.131 NA
ATOM     36  N   UNL     1      25.717  30.133  15.603  1.00  0.00    -0.219 N 
ATOM     37  N   UNL     1      26.985  30.469  15.466  1.00  0.00    -0.062 NA
BRANCH  36  38
ATOM     38  C   UNL     1      24.665  30.676  14.824  1.00  0.00     0.080 A 
ATOM     39  C   UNL     1      24.346  30.071  13.609  1.00  0.00     0.029 A 
ATOM     40  C   UNL     1      23.990  31.775  15.279  1.00  0.00     0.039 A 
ATOM     41  C   UNL     1      23.323  30.592  12.845  1.00  0.00     0.002 A 
ATOM     42  C   UNL     1      22.968  32.282  14.497  1.00  0.00     0.017 A 
ATOM     43  I   UNL     1      24.436  32.722  17.106  1.00  0.00    -0.042 I 
ATOM     44  C   UNL     1      22.633  31.699  13.288  1.00  0.00     0.001 A 
ENDBRANCH  36  38
ENDBRANCH  32  33
ENDBRANCH  31  32
ENDBRANCH  28  31
ENDBRANCH   1  27
TORSDOF 15
BEGIN_RES LYS A 131
REMARK  4 active torsions:
REMARK  status: ('A' for Active; 'I' for Inactive)
REMARK    1  A    between atoms: CA   and  CB  
REMARK    2  A    between atoms: CB   and  CG  
REMARK    3  A    between atoms: CG   and  CD  
REMARK    4  A    between atoms: CD   and  CE  
ROOT
ATOM      1  CA  LYS A 131      29.867  25.555  16.977  1.00 20.52     0.186 C 
ENDROOT
BRANCH   1   2
ATOM      2  CB  LYS A 131      28.345  25.722  17.026  1.00 20.94     0.034 C 
BRANCH   2   3
ATOM      3  CG  LYS A 131      27.601  24.402  16.896  1.00 22.96     0.005 C 
BRANCH   3   4
ATOM      4  CD  LYS A 131      26.554  24.234  17.961  1.00 24.33     0.041 C 
BRANCH   4   5
ATOM      5  CE  LYS A 131      25.277  23.681  17.337  1.00 26.91     0.338 C 
ATOM      6  NZ  LYS A 131      24.399  24.787  16.886  1.00 27.40     0.618 N 
ENDBRANCH   4   5
ENDBRANCH   3   4
ENDBRANCH   2   3
ENDBRANCH   1   2
END_RES LYS A 131
BEGIN_RES LYS A 135
REMARK  4 active torsions:
REMARK  status: ('A' for Active; 'I' for Inactive)
REMARK    5  A    between atoms: CA   and  CB  
REMARK    6  A    between atoms: CB   and  CG  
REMARK    7  A    between atoms: CG   and  CD  
REMARK    8  A    between atoms: CD   and  CE  
ROOT
ATOM      7  CA  LYS A 135      33.193  34.663   9.290  1.00 25.02     0.186 C 
ENDROOT
BRANCH   7   8
ATOM      8  CB  LYS A 135      32.060  35.360  10.034  1.00 26.63     0.034 C 
BRANCH   8   9
ATOM      9  CG  LYS A 135      30.799  35.496   9.220  1.00 29.45     0.005 C 
BRANCH   9  10
ATOM     10  CD  LYS A 135      30.188  34.131   8.945  1.00 32.00     0.041 C 
BRANCH  10  11
ATOM     11  CE  LYS A 135      28.683  34.243   8.789  1.00 34.25     0.338 C 
ATOM     12  NZ  LYS A 135      27.993  34.068  10.097  1.00 35.99     0.618 N 
ENDBRANCH  10  11
ENDBRANCH   9  10
ENDBRANCH   8   9
ENDBRANCH   7   8
END_RES LYS A 135
