REMARK VINA RESULT:    -3.942      2.879      6.659
REMARK INTER + INTRA:         -14.478
REMARK INTER:                  -9.311
REMARK INTRA:                  -5.167
REMARK UNBOUND:                -7.311
REMARK SMILES CC(=O)N[C@@H]1[C@@H](O)C[C@](O)(C(=O)O)O[C@H]1C(O)[C@H](O)CNC(=O)OCc1cn(-c2ccc(O)c([N+](=O)[O-])c2)nn1
REMARK SMILES IDX 21 1 22 2 23 3 20 5 18 6 16 7 15 8 9 9 8 10 14 11 6 12 5 13
REMARK SMILES IDX 10 14 11 16 12 17 13 18 7 20 4 22 2 23 1 25 3 26 17 27 19 29
REMARK SMILES IDX 24 31 25 32 26 33 27 34 40 35 28 36 39 37 29 38 30 39 38 40
REMARK SMILES IDX 31 41 34 42 32 43 35 44 36 45 37 46 33 47
REMARK H PARENT 21 4 10 15 13 19 7 21 4 24 17 28 19 30 33 48
REMARK Flexibility Score: inf
ROOT
ATOM      1  N   UNL     1      28.457  29.083  18.933  1.00  0.00    -0.319 N 
ATOM      2  C   UNL     1      27.414  28.597  18.101  1.00  0.00     0.407 C 
ATOM      3  O   UNL     1      26.427  27.942  18.575  1.00  0.00    -0.225 OA
ATOM      4  H   UNL     1      29.235  29.615  18.512  1.00  0.00     0.167 HD
ENDROOT
BRANCH   1   5
ATOM      5  C   UNL     1      28.401  28.832  20.344  1.00  0.00     0.154 C 
BRANCH   5   6
ATOM      6  C   UNL     1      29.455  27.947  20.905  1.00  0.00     0.165 C 
BRANCH   6   7
ATOM      7  C   UNL     1      30.871  28.309  20.540  1.00  0.00     0.176 C 
BRANCH   7   8
ATOM      8  C   UNL     1      31.678  28.877  21.665  1.00  0.00     0.178 C 
ATOM      9  C   UNL     1      32.692  28.426  23.675  1.00  0.00     0.269 C 
ATOM     10  C   UNL     1      33.357  29.737  23.322  1.00  0.00     0.112 C 
ATOM     11  O   UNL     1      31.800  27.982  22.715  1.00  0.00    -0.332 OA
ATOM     12  C   UNL     1      32.311  30.774  23.087  1.00  0.00     0.145 C 
ATOM     13  C   UNL     1      31.313  30.266  22.040  1.00  0.00     0.142 C 
BRANCH   9  14
ATOM     14  O   UNL     1      32.011  28.626  24.868  1.00  0.00    -0.357 OA
ATOM     15  H   UNL     1      31.641  29.550  24.838  1.00  0.00     0.214 HD
ENDBRANCH   9  14
BRANCH   9  16
ATOM     16  C   UNL     1      33.770  27.434  23.913  1.00  0.00     0.364 C 
ATOM     17  O   UNL     1      34.343  27.346  25.030  1.00  0.00    -0.246 OA
BRANCH  16  18
ATOM     18  O   UNL     1      34.168  26.579  22.903  1.00  0.00    -0.477 OA
ATOM     19  H   UNL     1      34.727  25.760  23.054  1.00  0.00     0.296 HD
ENDBRANCH  16  18
ENDBRANCH   9  16
BRANCH  12  20
ATOM     20  O   UNL     1      31.676  31.008  24.321  1.00  0.00    -0.391 OA
ATOM     21  H   UNL     1      32.157  31.789  24.731  1.00  0.00     0.211 HD
ENDBRANCH  12  20
BRANCH  13  22
ATOM     22  N   UNL     1      31.499  31.093  20.837  1.00  0.00    -0.348 N 
ATOM     23  C   UNL     1      30.530  32.013  20.386  1.00  0.00     0.217 C 
ATOM     24  H   UNL     1      32.390  30.991  20.297  1.00  0.00     0.163 HD
ATOM     25  C   UNL     1      30.755  32.827  19.167  1.00  0.00     0.114 C 
ATOM     26  O   UNL     1      29.471  32.146  21.014  1.00  0.00    -0.275 OA
ENDBRANCH  13  22
ENDBRANCH   7   8
BRANCH   7  27
ATOM     27  O   UNL     1      31.559  27.208  20.030  1.00  0.00    -0.388 OA
ATOM     28  H   UNL     1      32.082  27.406  19.236  1.00  0.00     0.211 HD
ENDBRANCH   7  27
ENDBRANCH   6   7
BRANCH   6  29
ATOM     29  O   UNL     1      29.167  26.648  20.457  1.00  0.00    -0.388 OA
ATOM     30  H   UNL     1      29.617  26.537  19.571  1.00  0.00     0.211 HD
ENDBRANCH   6  29
ENDBRANCH   5   6
ENDBRANCH   1   5
BRANCH   2  31
ATOM     31  O   UNL     1      27.490  28.850  16.752  1.00  0.00    -0.443 OA
BRANCH  31  32
ATOM     32  C   UNL     1      27.235  30.134  16.270  1.00  0.00     0.294 C 
BRANCH  32  33
ATOM     33  C   UNL     1      28.468  30.925  16.013  1.00  0.00     0.121 A 
ATOM     34  C   UNL     1      28.575  32.180  15.432  1.00  0.00     0.144 A 
ATOM     35  N   UNL     1      29.737  30.576  16.295  1.00  0.00    -0.131 NA
ATOM     36  N   UNL     1      29.863  32.552  15.376  1.00  0.00    -0.220 N 
ATOM     37  N   UNL     1      30.553  31.558  15.909  1.00  0.00    -0.062 NA
BRANCH  36  38
ATOM     38  C   UNL     1      30.426  33.754  14.863  1.00  0.00     0.073 A 
ATOM     39  C   UNL     1      29.939  34.303  13.695  1.00  0.00     0.033 A 
ATOM     40  C   UNL     1      31.462  34.419  15.485  1.00  0.00     0.118 A 
ATOM     41  C   UNL     1      30.472  35.472  13.177  1.00  0.00     0.056 A 
ATOM     42  C   UNL     1      32.028  35.589  15.005  1.00  0.00     0.312 A 
ATOM     43  C   UNL     1      31.505  36.108  13.824  1.00  0.00     0.194 A 
BRANCH  42  44
ATOM     44  N   UNL     1      33.087  36.257  15.654  1.00  0.00     0.066 N 
ATOM     45  O   UNL     1      34.159  35.674  15.824  1.00  0.00    -0.258 OA
ATOM     46  O   UNL     1      32.921  37.535  16.087  1.00  0.00    -0.258 OA
ENDBRANCH  42  44
BRANCH  43  47
ATOM     47  O   UNL     1      32.075  37.285  13.343  1.00  0.00    -0.502 OA
ATOM     48  H   UNL     1      31.485  38.128  13.309  1.00  0.00     0.293 HD
ENDBRANCH  43  47
ENDBRANCH  36  38
ENDBRANCH  32  33
ENDBRANCH  31  32
ENDBRANCH   2  31
TORSDOF 17
BEGIN_RES LYS A 131
REMARK  4 active torsions:
REMARK  status: ('A' for Active; 'I' for Inactive)
REMARK    1  A    between atoms: CA   and  CB  
REMARK    2  A    between atoms: CB   and  CG  
REMARK    3  A    between atoms: CG   and  CD  
REMARK    4  A    between atoms: CD   and  CE  
ROOT
ATOM      1  CA  LYS A 131      29.867  25.555  16.977  1.00 20.52     0.186 C 
ENDROOT
BRANCH   1   2
ATOM      2  CB  LYS A 131      28.345  25.722  17.026  1.00 20.94     0.034 C 
BRANCH   2   3
ATOM      3  CG  LYS A 131      27.602  24.398  16.929  1.00 22.96     0.005 C 
BRANCH   3   4
ATOM      4  CD  LYS A 131      26.160  24.527  17.335  1.00 24.33     0.041 C 
BRANCH   4   5
ATOM      5  CE  LYS A 131      25.936  23.801  18.657  1.00 26.91     0.338 C 
ATOM      6  NZ  LYS A 131      25.531  24.758  19.713  1.00 27.40     0.618 N 
ENDBRANCH   4   5
ENDBRANCH   3   4
ENDBRANCH   2   3
ENDBRANCH   1   2
END_RES LYS A 131
BEGIN_RES LYS A 135
REMARK  4 active torsions:
REMARK  status: ('A' for Active; 'I' for Inactive)
REMARK    5  A    between atoms: CA   and  CB  
REMARK    6  A    between atoms: CB   and  CG  
REMARK    7  A    between atoms: CG   and  CD  
REMARK    8  A    between atoms: CD   and  CE  
ROOT
ATOM      7  CA  LYS A 135      33.193  34.663   9.290  1.00 25.02     0.186 C 
ENDROOT
BRANCH   7   8
ATOM      8  CB  LYS A 135      32.060  35.360  10.034  1.00 26.63     0.034 C 
BRANCH   8   9
ATOM      9  CG  LYS A 135      30.792  35.475   9.229  1.00 29.45     0.005 C 
BRANCH   9  10
ATOM     10  CD  LYS A 135      29.997  34.180   9.291  1.00 32.00     0.041 C 
BRANCH  10  11
ATOM     11  CE  LYS A 135      28.729  34.372  10.101  1.00 34.25     0.338 C 
ATOM     12  NZ  LYS A 135      27.558  33.755   9.419  1.00 35.99     0.618 N 
ENDBRANCH  10  11
ENDBRANCH   9  10
ENDBRANCH   8   9
ENDBRANCH   7   8
END_RES LYS A 135
