REMARK VINA RESULT:    -5.587      4.824      6.960
REMARK INTER + INTRA:         -14.217
REMARK INTER:                  -6.699
REMARK INTRA:                  -7.519
REMARK UNBOUND:                -4.548
REMARK SMILES CC(=O)N[C@@H]1[C@@H](O)C[C@](O)(C(=O)O)O[C@H]1C(O)[C@H](O)CNC(=O)OCc1cn(-c2ccc3c(c2)OCO3)nn1
REMARK SMILES IDX 20 1 18 2 16 3 15 4 9 5 8 6 14 7 6 8 5 9 10 10 11 12 12 13
REMARK SMILES IDX 13 14 7 16 4 18 2 19 1 21 3 22 17 23 19 25 21 27 22 28 23 30
REMARK SMILES IDX 24 31 25 32 26 33 27 34 39 35 28 36 38 37 29 38 30 39 34 40
REMARK SMILES IDX 31 41 33 42 32 43 35 44 37 45 36 46
REMARK H PARENT 10 11 13 15 7 17 4 20 17 24 19 26 21 29
REMARK Flexibility Score: inf
ROOT
ATOM      1  C   UNL     1      23.582  29.861  14.153  1.00  0.00     0.154 C 
ENDROOT
BRANCH   1   2
ATOM      2  C   UNL     1      24.780  30.008  15.031  1.00  0.00     0.165 C 
BRANCH   2   3
ATOM      3  C   UNL     1      24.369  30.367  16.469  1.00  0.00     0.176 C 
BRANCH   3   4
ATOM      4  C   UNL     1      25.614  30.663  17.223  1.00  0.00     0.178 C 
ATOM      5  C   UNL     1      27.801  30.106  17.547  1.00  0.00     0.269 C 
ATOM      6  C   UNL     1      27.695  31.326  18.437  1.00  0.00     0.112 C 
ATOM      7  O   UNL     1      26.672  29.864  16.804  1.00  0.00    -0.332 OA
ATOM      8  C   UNL     1      26.516  31.241  19.388  1.00  0.00     0.145 C 
ATOM      9  C   UNL     1      25.465  30.416  18.724  1.00  0.00     0.142 C 
BRANCH   5  10
ATOM     10  O   UNL     1      28.138  29.040  18.383  1.00  0.00    -0.357 OA
ATOM     11  H   UNL     1      27.276  28.687  18.733  1.00  0.00     0.214 HD
ENDBRANCH   5  10
BRANCH   5  12
ATOM     12  C   UNL     1      28.910  30.365  16.601  1.00  0.00     0.364 C 
ATOM     13  O   UNL     1      28.703  30.261  15.368  1.00  0.00    -0.246 OA
BRANCH  12  14
ATOM     14  O   UNL     1      30.182  30.721  17.017  1.00  0.00    -0.477 OA
ATOM     15  H   UNL     1      30.697  31.508  16.636  1.00  0.00     0.296 HD
ENDBRANCH  12  14
ENDBRANCH   5  12
BRANCH   8  16
ATOM     16  O   UNL     1      27.010  30.619  20.555  1.00  0.00    -0.391 OA
ATOM     17  H   UNL     1      26.827  29.662  20.545  1.00  0.00     0.211 HD
ENDBRANCH   8  16
BRANCH   9  18
ATOM     18  N   UNL     1      24.142  30.600  19.199  1.00  0.00    -0.348 N 
ATOM     19  C   UNL     1      23.550  29.976  20.330  1.00  0.00     0.217 C 
ATOM     20  H   UNL     1      23.528  31.260  18.674  1.00  0.00     0.163 HD
ATOM     21  C   UNL     1      22.141  30.241  20.746  1.00  0.00     0.114 C 
ATOM     22  O   UNL     1      24.263  29.179  20.981  1.00  0.00    -0.275 OA
ENDBRANCH   9  18
ENDBRANCH   3   4
BRANCH   3  23
ATOM     23  O   UNL     1      23.522  31.439  16.402  1.00  0.00    -0.388 OA
ATOM     24  H   UNL     1      23.687  32.195  16.976  1.00  0.00     0.211 HD
ENDBRANCH   3  23
ENDBRANCH   2   3
BRANCH   2  25
ATOM     25  O   UNL     1      25.629  30.984  14.581  1.00  0.00    -0.388 OA
ATOM     26  H   UNL     1      25.372  31.446  13.754  1.00  0.00     0.211 HD
ENDBRANCH   2  25
ENDBRANCH   1   2
BRANCH   1  27
ATOM     27  N   UNL     1      23.438  30.950  13.252  1.00  0.00    -0.319 N 
ATOM     28  C   UNL     1      22.351  31.839  13.274  1.00  0.00     0.407 C 
ATOM     29  H   UNL     1      24.175  31.132  12.505  1.00  0.00     0.167 HD
ATOM     30  O   UNL     1      21.392  31.780  14.060  1.00  0.00    -0.225 OA
BRANCH  28  31
ATOM     31  O   UNL     1      22.320  32.892  12.341  1.00  0.00    -0.443 OA
BRANCH  31  32
ATOM     32  C   UNL     1      22.681  34.177  12.748  1.00  0.00     0.294 C 
BRANCH  32  33
ATOM     33  C   UNL     1      23.904  34.096  13.588  1.00  0.00     0.121 A 
ATOM     34  C   UNL     1      25.215  34.257  13.152  1.00  0.00     0.144 A 
ATOM     35  N   UNL     1      24.002  33.859  14.907  1.00  0.00    -0.131 NA
ATOM     36  N   UNL     1      26.055  34.116  14.193  1.00  0.00    -0.220 N 
ATOM     37  N   UNL     1      25.280  33.876  15.236  1.00  0.00    -0.062 NA
BRANCH  36  38
ATOM     38  C   UNL     1      27.474  34.212  14.143  1.00  0.00     0.070 A 
ATOM     39  C   UNL     1      28.101  34.743  13.034  1.00  0.00     0.032 A 
ATOM     40  C   UNL     1      28.285  33.790  15.176  1.00  0.00     0.079 A 
ATOM     41  C   UNL     1      29.490  34.847  12.964  1.00  0.00     0.053 A 
ATOM     42  C   UNL     1      29.675  33.883  15.128  1.00  0.00     0.167 A 
ATOM     43  C   UNL     1      30.278  34.417  14.010  1.00  0.00     0.165 A 
ATOM     44  O   UNL     1      30.689  33.537  16.017  1.00  0.00    -0.454 OA
ATOM     45  O   UNL     1      31.663  34.383  14.248  1.00  0.00    -0.454 OA
ATOM     46  C   UNL     1      31.913  33.455  15.309  1.00  0.00     0.468 C 
ENDBRANCH  36  38
ENDBRANCH  32  33
ENDBRANCH  31  32
ENDBRANCH  28  31
ENDBRANCH   1  27
TORSDOF 15
BEGIN_RES LYS A 131
REMARK  4 active torsions:
REMARK  status: ('A' for Active; 'I' for Inactive)
REMARK    1  A    between atoms: CA   and  CB  
REMARK    2  A    between atoms: CB   and  CG  
REMARK    3  A    between atoms: CG   and  CD  
REMARK    4  A    between atoms: CD   and  CE  
ROOT
ATOM      1  CA  LYS A 131      29.867  25.555  16.977  1.00 20.52     0.186 C 
ENDROOT
BRANCH   1   2
ATOM      2  CB  LYS A 131      28.345  25.722  17.026  1.00 20.94     0.034 C 
BRANCH   2   3
ATOM      3  CG  LYS A 131      27.601  24.402  16.897  1.00 22.96     0.005 C 
BRANCH   3   4
ATOM      4  CD  LYS A 131      26.169  24.512  17.340  1.00 24.33     0.041 C 
BRANCH   4   5
ATOM      5  CE  LYS A 131      25.786  23.272  18.141  1.00 26.91     0.338 C 
ATOM      6  NZ  LYS A 131      25.458  23.637  19.539  1.00 27.40     0.618 N 
ENDBRANCH   4   5
ENDBRANCH   3   4
ENDBRANCH   2   3
ENDBRANCH   1   2
END_RES LYS A 131
BEGIN_RES LYS A 135
REMARK  4 active torsions:
REMARK  status: ('A' for Active; 'I' for Inactive)
REMARK    5  A    between atoms: CA   and  CB  
REMARK    6  A    between atoms: CB   and  CG  
REMARK    7  A    between atoms: CG   and  CD  
REMARK    8  A    between atoms: CD   and  CE  
ROOT
ATOM      7  CA  LYS A 135      33.193  34.663   9.290  1.00 25.02     0.186 C 
ENDROOT
BRANCH   7   8
ATOM      8  CB  LYS A 135      32.060  35.360  10.034  1.00 26.63     0.034 C 
BRANCH   8   9
ATOM      9  CG  LYS A 135      30.792  35.478   9.228  1.00 29.45     0.005 C 
BRANCH   9  10
ATOM     10  CD  LYS A 135      30.072  34.140   9.162  1.00 32.00     0.041 C 
BRANCH  10  11
ATOM     11  CE  LYS A 135      28.659  34.321   8.640  1.00 34.25     0.338 C 
ATOM     12  NZ  LYS A 135      27.663  33.724   9.572  1.00 35.99     0.618 N 
ENDBRANCH  10  11
ENDBRANCH   9  10
ENDBRANCH   8   9
ENDBRANCH   7   8
END_RES LYS A 135
