REMARK VINA RESULT:    -4.174      2.354      6.154
REMARK INTER + INTRA:         -14.016
REMARK INTER:                  -8.019
REMARK INTRA:                  -5.997
REMARK UNBOUND:                -6.059
REMARK SMILES CC(=O)N[C@@H]1[C@@H](O)C[C@](O)(C(=O)O)O[C@H]1C(O)[C@H](O)CNC(=O)OCc1cn(CCOC(C)=O)nn1
REMARK SMILES IDX 21 1 22 2 23 3 20 5 18 6 16 7 15 8 9 9 8 10 14 11 6 12 5 13
REMARK SMILES IDX 10 14 11 16 12 17 13 18 7 20 4 22 2 23 1 25 3 26 17 27 19 29
REMARK SMILES IDX 24 31 25 32 26 33 27 34 36 35 28 36 35 37 29 38 30 39 31 40
REMARK SMILES IDX 32 41 34 42 33 43
REMARK H PARENT 21 4 10 15 13 19 7 21 4 24 17 28 19 30
REMARK Flexibility Score: inf
ROOT
ATOM      1  N   UNL     1      30.032  31.344  17.317  1.00  0.00    -0.319 N 
ATOM      2  C   UNL     1      28.713  31.277  17.820  1.00  0.00     0.407 C 
ATOM      3  O   UNL     1      28.171  32.282  18.302  1.00  0.00    -0.225 OA
ATOM      4  H   UNL     1      30.419  30.440  16.928  1.00  0.00     0.167 HD
ENDROOT
BRANCH   1   5
ATOM      5  C   UNL     1      30.853  32.536  17.300  1.00  0.00     0.154 C 
BRANCH   5   6
ATOM      6  C   UNL     1      31.294  32.887  15.930  1.00  0.00     0.165 C 
BRANCH   6   7
ATOM      7  C   UNL     1      30.627  34.089  15.300  1.00  0.00     0.176 C 
BRANCH   7   8
ATOM      8  C   UNL     1      31.255  35.409  15.631  1.00  0.00     0.178 C 
ATOM      9  C   UNL     1      30.885  36.231  13.486  1.00  0.00     0.269 C 
ATOM     10  C   UNL     1      32.150  35.608  13.036  1.00  0.00     0.112 C 
ATOM     11  O   UNL     1      30.751  36.436  14.834  1.00  0.00    -0.332 OA
ATOM     12  C   UNL     1      33.166  35.320  14.080  1.00  0.00     0.145 C 
ATOM     13  C   UNL     1      32.741  35.499  15.496  1.00  0.00     0.142 C 
BRANCH   9  14
ATOM     14  O   UNL     1      29.756  35.474  13.088  1.00  0.00    -0.357 OA
ATOM     15  H   UNL     1      29.824  34.539  13.393  1.00  0.00     0.214 HD
ENDBRANCH   9  14
BRANCH   9  16
ATOM     16  C   UNL     1      30.694  37.557  12.834  1.00  0.00     0.364 C 
ATOM     17  O   UNL     1      29.784  37.734  11.954  1.00  0.00    -0.246 OA
BRANCH  16  18
ATOM     18  O   UNL     1      31.463  38.675  13.120  1.00  0.00    -0.477 OA
ATOM     19  H   UNL     1      32.481  38.574  13.044  1.00  0.00     0.296 HD
ENDBRANCH  16  18
ENDBRANCH   9  16
BRANCH  12  20
ATOM     20  O   UNL     1      33.588  33.996  13.920  1.00  0.00    -0.391 OA
ATOM     21  H   UNL     1      32.890  33.456  13.436  1.00  0.00     0.211 HD
ENDBRANCH  12  20
BRANCH  13  22
ATOM     22  N   UNL     1      33.138  36.759  16.079  1.00  0.00    -0.348 N 
ATOM     23  C   UNL     1      34.353  36.947  16.745  1.00  0.00     0.217 C 
ATOM     24  H   UNL     1      32.472  37.549  15.989  1.00  0.00     0.163 HD
ATOM     25  C   UNL     1      34.787  38.231  17.353  1.00  0.00     0.114 C 
ATOM     26  O   UNL     1      35.114  35.964  16.829  1.00  0.00    -0.275 OA
ENDBRANCH  13  22
ENDBRANCH   7   8
BRANCH   7  27
ATOM     27  O   UNL     1      29.367  34.146  16.009  1.00  0.00    -0.388 OA
ATOM     28  H   UNL     1      29.472  33.406  16.683  1.00  0.00     0.211 HD
ENDBRANCH   7  27
ENDBRANCH   6   7
BRANCH   6  29
ATOM     29  O   UNL     1      31.539  31.875  15.051  1.00  0.00    -0.388 OA
ATOM     30  H   UNL     1      30.739  31.508  14.646  1.00  0.00     0.211 HD
ENDBRANCH   6  29
ENDBRANCH   5   6
ENDBRANCH   1   5
BRANCH   2  31
ATOM     31  O   UNL     1      27.995  30.061  17.777  1.00  0.00    -0.443 OA
BRANCH  31  32
ATOM     32  C   UNL     1      27.656  29.481  16.517  1.00  0.00     0.294 C 
BRANCH  32  33
ATOM     33  C   UNL     1      26.381  30.079  16.073  1.00  0.00     0.120 A 
ATOM     34  C   UNL     1      26.236  31.046  15.092  1.00  0.00     0.138 A 
ATOM     35  N   UNL     1      25.147  29.818  16.524  1.00  0.00    -0.132 NA
ATOM     36  N   UNL     1      24.929  31.328  14.990  1.00  0.00    -0.249 N 
ATOM     37  N   UNL     1      24.296  30.576  15.861  1.00  0.00    -0.067 NA
BRANCH  36  38
ATOM     38  C   UNL     1      24.363  32.290  14.072  1.00  0.00     0.187 C 
BRANCH  38  39
ATOM     39  C   UNL     1      24.547  33.671  14.655  1.00  0.00     0.256 C 
BRANCH  39  40
ATOM     40  O   UNL     1      24.984  34.551  13.660  1.00  0.00    -0.464 OA
BRANCH  40  41
ATOM     41  C   UNL     1      26.255  34.503  13.167  1.00  0.00     0.302 C 
ATOM     42  O   UNL     1      27.236  34.348  13.917  1.00  0.00    -0.253 OA
ATOM     43  C   UNL     1      26.504  34.636  11.690  1.00  0.00     0.139 C 
ENDBRANCH  40  41
ENDBRANCH  39  40
ENDBRANCH  38  39
ENDBRANCH  36  38
ENDBRANCH  32  33
ENDBRANCH  31  32
ENDBRANCH   2  31
TORSDOF 18
BEGIN_RES LYS A 131
REMARK  4 active torsions:
REMARK  status: ('A' for Active; 'I' for Inactive)
REMARK    1  A    between atoms: CA   and  CB  
REMARK    2  A    between atoms: CB   and  CG  
REMARK    3  A    between atoms: CG   and  CD  
REMARK    4  A    between atoms: CD   and  CE  
ROOT
ATOM      1  CA  LYS A 131      29.867  25.555  16.977  1.00 20.52     0.186 C 
ENDROOT
BRANCH   1   2
ATOM      2  CB  LYS A 131      28.345  25.722  17.026  1.00 20.94     0.034 C 
BRANCH   2   3
ATOM      3  CG  LYS A 131      27.599  24.433  16.716  1.00 22.96     0.005 C 
BRANCH   3   4
ATOM      4  CD  LYS A 131      27.023  23.801  17.953  1.00 24.33     0.041 C 
BRANCH   4   5
ATOM      5  CE  LYS A 131      25.652  24.404  18.242  1.00 26.91     0.338 C 
ATOM      6  NZ  LYS A 131      24.762  24.254  17.067  1.00 27.40     0.618 N 
ENDBRANCH   4   5
ENDBRANCH   3   4
ENDBRANCH   2   3
ENDBRANCH   1   2
END_RES LYS A 131
BEGIN_RES LYS A 135
REMARK  4 active torsions:
REMARK  status: ('A' for Active; 'I' for Inactive)
REMARK    5  A    between atoms: CA   and  CB  
REMARK    6  A    between atoms: CB   and  CG  
REMARK    7  A    between atoms: CG   and  CD  
REMARK    8  A    between atoms: CD   and  CE  
ROOT
ATOM      7  CA  LYS A 135      33.193  34.663   9.290  1.00 25.02     0.186 C 
ENDROOT
BRANCH   7   8
ATOM      8  CB  LYS A 135      32.060  35.360  10.034  1.00 26.63     0.034 C 
BRANCH   8   9
ATOM      9  CG  LYS A 135      30.715  34.714   9.825  1.00 29.45     0.005 C 
BRANCH   9  10
ATOM     10  CD  LYS A 135      30.390  34.619   8.342  1.00 32.00     0.041 C 
BRANCH  10  11
ATOM     11  CE  LYS A 135      28.894  34.728   8.117  1.00 34.25     0.338 C 
ATOM     12  NZ  LYS A 135      28.404  36.101   8.421  1.00 35.99     0.618 N 
ENDBRANCH  10  11
ENDBRANCH   9  10
ENDBRANCH   8   9
ENDBRANCH   7   8
END_RES LYS A 135
